
 ===================================================
  XFOIL Version 6.99
  Copyright (C) 2000   Mark Drela, Harold Youngren

  This software comes with ABSOLUTELY NO WARRANTY,
    subject to the GNU General Public License.

  Caveat computor
 ===================================================

 File  xfoil.def  not found

   QUIT    Exit program

  .OPER    Direct operating point(s)
  .MDES    Complex mapping design routine
  .QDES    Surface speed design routine
  .GDES    Geometry design routine

   SAVE f  Write airfoil to labeled coordinate file
   PSAV f  Write airfoil to plain coordinate file
   ISAV f  Write airfoil to ISES coordinate file
   MSAV f  Write airfoil to MSES coordinate file
   REVE    Reverse written-airfoil node ordering

   LOAD f  Read buffer airfoil from coordinate file
   NACA i  Set NACA 4,5-digit airfoil and buffer airfoil
   INTE    Set buffer airfoil by interpolating two airfoils
   NORM    Buffer airfoil normalization toggle
   XYCM rr Change CM reference location, currently  0.25000 0.00000

   BEND    Display structural properties of current airfoil

   PCOP    Set current-airfoil panel nodes directly from buffer airfoil points
   PANE    Set current-airfoil panel nodes ( 160 ) based on curvature
  .PPAR    Show/change paneling

  .PLOP    Plotting options

   WDEF f  Write  current-settings file
   RDEF f  Reread current-settings file
   NAME s  Specify new airfoil name
   NINC    Increment name version number

   Z       Zoom    | (available in all menus)
   U       Unzoom  | 

 XFOIL   c>  
 Labeled airfoil file.  Name:  MH 95  15.86%                                   

 Number of input coordinate points:  61
 Counterclockwise ordering
 Max thickness =     0.158560  at x =   0.347
 Max camber    =     0.014399  at x =   0.246

  LE  x,y  =  -0.00001   0.00014  |   Chord =   1.00001
  TE  x,y  =   1.00000   0.00000  |

 Current airfoil nodes set from buffer airfoil nodes (  61 )

 XFOIL   c>  
 XFOIL   c>  
 Sharp trailing edge

 Paneling parameters used...
   Number of panel nodes       160
   Panel bunching parameter    1.000
   TE/LE panel density ratio   0.150
   Refined-area/LE panel density ratio    0.200
   Top    side refined area x/c limits  1.000 1.000
   Bottom side refined area x/c limits  1.000 1.000

 XFOIL   c>  
.OPERi   c>  
 Xtr/c     =  1.0000    top    side
 Xtr/c     =  1.0000    bottom side
 Ncrit     =    9.00   ( 0.070 % turb. level )
 Vacc      =  0.0100

 Klag  =  5.6000     Uxwt  =    1.00
 A     =  6.7000     B     =  0.7500       KCt = 0.01485
 CtiniK=  1.8000     CtiniX=  3.3000

..VPAR   c>  
..VPAR   c>  
.OPERi   c>  
 M  =    0.0000
 Re =    400000

.OPERv   c>  
.OPERv   c>  
.OPERv   c>  
 Polar  1 newly created for accumulation
 Airfoil archived with polar: MH 95  15.86%                                   

Enter  polar save filename  OR  <return> for no file   s>  
 New polar save file available

Enter  polar dump filename  OR  <return> for no file   s>  
 Polar dump file will NOT be written

 Polar accumulation enabled

.OPERva   c>   Calculating unit vorticity distributions ...
 Calculating wake trajectory ...
 Calculating source influence matrix ...

 Solving BL system ...

 Initializing BL ...
    side            1  ...
 MRCHUE: Inverse mode at  62     Hk =   4.027
 MRCHUE: Inverse mode at  63     Hk =   4.570
 MRCHUE: Inverse mode at  64     Hk =   5.101
 MRCHUE: Inverse mode at  65     Hk =   5.622
 MRCHUE: Inverse mode at  66     Hk =   6.132
 MRCHUE: Inverse mode at  67     Hk =   6.635
 MRCHUE: Inverse mode at  68     Hk =   7.130
 MRCHUE: Inverse mode at  69     Hk =   7.616
 MRCHUE: Inverse mode at  70     Hk =   8.093
 MRCHUE: Inverse mode at  71     Hk =   8.285
 MRCHUE: Inverse mode at  72     Hk =   6.173
 MRCHUE: Inverse mode at  73     Hk =   4.908
 MRCHUE: Inverse mode at  74     Hk =   4.046
 MRCHUE: Inverse mode at  75     Hk =   3.428
 MRCHUE: Inverse mode at  76     Hk =   3.112
    side            2  ...
 MRCHUE: Inverse mode at  17     Hk =   3.888
 MRCHUE: Inverse mode at  18     Hk =   4.667
 MRCHUE: Inverse mode at  19     Hk =   5.393
 MRCHUE: Inverse mode at  20     Hk =   6.094
 MRCHUE: Inverse mode at  21     Hk =   6.788
 MRCHUE: Inverse mode at  22     Hk =   7.489
 MRCHUE: Inverse mode at  23     Hk =   8.211
 MRCHUE: Inverse mode at  24     Hk =   8.964
 MRCHUE: Inverse mode at  25     Hk =   9.758
 MRCHUE: Inverse mode at  26     Hk =   8.742
 MRCHUE: Inverse mode at  27     Hk =   5.246
 MRCHUE: Inverse mode at  28     Hk =   3.273
 MRCHUE: Inverse mode at  78     Hk =   2.500
 MRCHUE: Inverse mode at  79     Hk =   2.500
 MRCHUE: Inverse mode at  80     Hk =   2.500
 MRCHUE: Inverse mode at  81     Hk =   2.500
 MRCHUE: Inverse mode at  82     Hk =   2.500
 MRCHUE: Inverse mode at  83     Hk =   2.500
 MRCHUE: Inverse mode at  84     Hk =   2.500
 MRCHUE: Inverse mode at  85     Hk =   2.500
 MRCHUE: Inverse mode at  86     Hk =   2.500

 Side 1  free  transition at x/c =  0.9384   71
 Side 2  free  transition at x/c =  0.0433   26

   1   rms: 0.7451E+00   max: -.7953E+01   T at   26  2   RLX: 0.063
       a = -4.000      CL = -0.1290
      Cm = -0.0676     CD =  0.00849   =>   CDf =  0.00712    CDp =  0.00137

 Side 1  free  transition at x/c =  0.9522   72
 Side 2  free  transition at x/c =  0.0496   27

   2   rms: 0.3279E+00   max: -.3361E+01   T at   27  2   RLX: 0.149
       a = -4.000      CL = -0.1381
      Cm = -0.0674     CD =  0.00770   =>   CDf =  0.00705    CDp =  0.00065

 Side 1  free  transition at x/c =  0.9460   72
 Side 2  free  transition at x/c =  0.0581   28

   3   rms: 0.4065E+00   max: -.5018E+01   T at   28  2   RLX: 0.100
       a = -4.000      CL = -0.1419
      Cm = -0.0660     CD =  0.00809   =>   CDf =  0.00716    CDp =  0.00093

 Side 1  free  transition at x/c =  0.9436   72
 Side 2  free  transition at x/c =  0.0678   30

   4   rms: 0.3943E+00   max: -.4848E+01   C at   30  2   RLX: 0.103
       a = -4.000      CL = -0.1436
      Cm = -0.0646     CD =  0.00836   =>   CDf =  0.00710    CDp =  0.00126

 Side 1  free  transition at x/c =  0.9417   72
 Side 2  free  transition at x/c =  0.0870   32

   5   rms: 0.4280E+00   max: -.6551E+01   C at   32  2   RLX: 0.076
       a = -4.000      CL = -0.1425
      Cm = -0.0635     CD =  0.00854   =>   CDf =  0.00698    CDp =  0.00156

 Side 1  free  transition at x/c =  0.9406   72
 Side 2  free  transition at x/c =  0.2125   40

   6   rms: 0.2026E+01   max: -.4589E+02   C at   40  2   RLX: 0.011
       a = -4.000      CL = -0.1454
      Cm = -0.0636     CD =  0.00793   =>   CDf =  0.00631    CDp =  0.00162

 Side 1  free  transition at x/c =  0.9404   72
 Side 2  free  transition at x/c =  0.2200   41

   7   rms: 0.1604E+01   max: -.3536E+02   C at   41  2   RLX: 0.014
       a = -4.000      CL = -0.1461
      Cm = -0.0635     CD =  0.00791   =>   CDf =  0.00627    CDp =  0.00164

 Side 1  free  transition at x/c =  0.9402   72
 Side 2  free  transition at x/c =  0.2375   42

   8   rms: 0.2348E+01   max: -.5198E+02   C at   42  2   RLX: 0.010
       a = -4.000      CL = -0.1473
      Cm = -0.0633     CD =  0.00784   =>   CDf =  0.00617    CDp =  0.00167

 Side 1  free  transition at x/c =  0.9400   72
 Side 2  free  transition at x/c =  0.2428   42

   9   rms: 0.1640E+01   max: -.3677E+02   C at   42  2   RLX: 0.014
       a = -4.000      CL = -0.1478
      Cm = -0.0632     CD =  0.00787   =>   CDf =  0.00615    CDp =  0.00173

 Side 1  free  transition at x/c =  0.9398   72
 Side 2  free  transition at x/c =  0.2557   43

  10   rms: 0.1320E+01   max: -.2860E+02   C at   43  2   RLX: 0.017
       a = -4.000      CL = -0.1490
      Cm = -0.0630     CD =  0.00785   =>   CDf =  0.00609    CDp =  0.00176

 Side 1  free  transition at x/c =  0.9395   71
 Side 2  free  transition at x/c =  0.2689   43
 idif Ue xi dudx           1  0.10377783      2.79414654E-03   37.141155    
 Uenew xinew           2  2.19607516E-03  5.91278076E-05

  11   rms: 0.6404E+01   max: 0.1301E+03   C at   43  2   RLX: 0.012
       a = -4.000      CL = -0.1728
      Cm = -0.0577     CD =  0.00819   =>   CDf =  0.00602    CDp =  0.00216

 Side 1  free  transition at x/c =  0.9310   70
 Side 2  free  transition at x/c =  0.2176   41

  12   rms: 0.1157E+01   max: -.2596E+02   C at   41  2   RLX: 0.019
       a = -4.000      CL = -0.1747
      Cm = -0.0569     CD =  0.00849   =>   CDf =  0.00627    CDp =  0.00223

 Side 1  free  transition at x/c =  0.9305   70
 Side 2  free  transition at x/c =  0.2275   42

  13   rms: 0.1219E+01   max: -.2754E+02   C at   42  2   RLX: 0.018
       a = -4.000      CL = -0.1763
      Cm = -0.0566     CD =  0.00848   =>   CDf =  0.00621    CDp =  0.00227

 Side 1  free  transition at x/c =  0.9301   70
 Side 2  free  transition at x/c =  0.2371   43

  14   rms: 0.1111E+01   max: -.2409E+02   C at   43  2   RLX: 0.021
       a = -4.000      CL = -0.1781
      Cm = -0.0563     CD =  0.00846   =>   CDf =  0.00616    CDp =  0.00230

 Side 1  free  transition at x/c =  0.9295   70
 Side 2  free  transition at x/c =  0.2525   43

  15   rms: 0.1968E+01   max: -.4206E+02   C at   43  2   RLX: 0.012
       a = -4.000      CL = -0.1792
      Cm = -0.0561     CD =  0.00844   =>   CDf =  0.00606    CDp =  0.00238

 Side 1  free  transition at x/c =  0.9293   70
 Side 2  free  transition at x/c =  0.2592   44

  16   rms: 0.1314E+01   max: -.2894E+02   C at   44  2   RLX: 0.017
       a = -4.000      CL = -0.1805
      Cm = -0.0558     CD =  0.00844   =>   CDf =  0.00603    CDp =  0.00241

 Side 1  free  transition at x/c =  0.9289   70
 Side 2  free  transition at x/c =  0.2723   45

  17   rms: 0.9297E+00   max: -.1992E+02   C at   45  2   RLX: 0.025
       a = -4.000      CL = -0.1823
      Cm = -0.0555     CD =  0.00843   =>   CDf =  0.00597    CDp =  0.00246

 Side 1  free  transition at x/c =  0.9284   70
 Side 2  free  transition at x/c =  0.2859   45

  18   rms: 0.4120E+00   max: -.8565E+01   C at   45  2   RLX: 0.058
       a = -4.000      CL = -0.1845
      Cm = -0.0550     CD =  0.00855   =>   CDf =  0.00592    CDp =  0.00263

 Side 1  free  transition at x/c =  0.9276   70
 Side 2  free  transition at x/c =  0.3214   47

  19   rms: 0.1639E+00   max: -.1518E+01   C at   47  2   RLX: 0.329
       a = -4.000      CL = -0.1952
      Cm = -0.0528     CD =  0.00921   =>   CDf =  0.00578    CDp =  0.00343

 Side 1  free  transition at x/c =  0.9244   70
 Side 2  free  transition at x/c =  0.4184   53

  20   rms: 0.1759E+00   max: -.3151E+01   C at   53  2   RLX: 0.159
       a = -4.000      CL = -0.2065
      Cm = -0.0513     CD =  0.00903   =>   CDf =  0.00537    CDp =  0.00366

 Side 1  free  transition at x/c =  0.9236   69
 Side 2  free  transition at x/c =  0.4308   53

  21   rms: 0.3924E+00   max: -.7683E+01   C at   53  2   RLX: 0.065
       a = -4.000      CL = -0.2000
      Cm = -0.0527     CD =  0.00900   =>   CDf =  0.00525    CDp =  0.00375

 Side 1  free  transition at x/c =  0.9264   70
 Side 2  free  transition at x/c =  0.4330   54

  22   rms: 0.1162E+00   max: -.1680E+01   C at   54  2   RLX: 0.298
       a = -4.000      CL = -0.2058
      Cm = -0.0520     CD =  0.00893   =>   CDf =  0.00531    CDp =  0.00362

 Side 1  free  transition at x/c =  0.9239   70
 Side 2  free  transition at x/c =  0.4500   55

  23   rms: 0.1003E+00   max: -.1670E+01   C at   55  2   RLX: 0.299
       a = -4.000      CL = -0.2105
      Cm = -0.0508     CD =  0.00929   =>   CDf =  0.00517    CDp =  0.00412

 Side 1  free  transition at x/c =  0.9227   69
 Side 2  free  transition at x/c =  0.4658   55

  24   rms: 0.4594E+00   max: -.7128E+01   C at   55  2   RLX: 0.070
       a = -4.000      CL = -0.1911
      Cm = -0.0552     CD =  0.00903   =>   CDf =  0.00505    CDp =  0.00399

 Side 1  free  transition at x/c =  0.9308   70
 Side 2  free  transition at x/c =  0.4777   56

  25   rms: 0.9672E-01   max: -.1076E+01   C at   56  2   RLX: 0.465
       a = -4.000      CL = -0.2003
      Cm = -0.0539     CD =  0.00876   =>   CDf =  0.00500    CDp =  0.00375

 Side 1  free  transition at x/c =  0.9255   70
 Side 2  free  transition at x/c =  0.4816   56

  26   rms: 0.5013E-01   max: -.3007E+00   C at   56  2
       a = -4.000      CL = -0.2178
      Cm = -0.0486     CD =  0.01008   =>   CDf =  0.00499    CDp =  0.00509

 Side 1  free  transition at x/c =  0.9200   69
 Side 2  free  transition at x/c =  0.4982   57

  27   rms: 0.4385E+00   max: 0.5749E+01   C at   57  2   RLX: 0.261
       a = -4.000      CL = -0.2918
      Cm = -0.0336     CD =  0.01057   =>   CDf =  0.00488    CDp =  0.00569

 Side 1  free  transition at x/c =  0.8960   68
 Side 2  free  transition at x/c =  0.4172   53

  28   rms: 0.8363E-01   max: -.9854E+00   C at   53  2   RLX: 0.507
       a = -4.000      CL = -0.2720
      Cm = -0.0368     CD =  0.01117   =>   CDf =  0.00526    CDp =  0.00591

 Side 1  free  transition at x/c =  0.9037   68
 Side 2  free  transition at x/c =  0.4315   54

  29   rms: 0.4109E-01   max: 0.3769E+00   T at   68  1
       a = -4.000      CL = -0.3041
      Cm = -0.0303     CD =  0.01108   =>   CDf =  0.00523    CDp =  0.00585

 Side 1  free  transition at x/c =  0.8907   67
 Side 2  free  transition at x/c =  0.4122   52
 idif Ue xi dudx           1  0.10163157      3.00097466E-03   33.866188    
 Uenew xinew           2  4.47721500E-03  1.32203102E-04

  30   rms: 0.8960E-01   max: 0.9682E+00   C at   52  2   RLX: 0.764
       a = -4.000      CL = -0.3530
      Cm = -0.0202     CD =  0.01200   =>   CDf =  0.00526    CDp =  0.00674

 Side 1  free  transition at x/c =  0.8729   65
 Side 2  free  transition at x/c =  0.3584   50

  31   rms: 0.2382E+00   max: 0.2358E+01   T at   65  1   RLX: 0.284
       a = -4.000      CL = -0.4052
      Cm = -0.0083     CD =  0.01416   =>   CDf =  0.00553    CDp =  0.00863

 Side 1  free  transition at x/c =  0.8543   64
 Side 2  free  transition at x/c =  0.3020   47

  32   rms: 0.1835E+01   max: 0.2164E+02   C at   47  2   RLX: 0.045
       a = -4.000      CL = -0.4651
      Cm =  0.0055     CD =  0.01696   =>   CDf =  0.00580    CDp =  0.01116

 Side 1  free  transition at x/c =  0.8337   63
 Side 2  free  transition at x/c =  0.2295   43

  33   rms: 0.5445E+00   max: -.8317E+01   C at   43  2   RLX: 0.060
       a = -4.000      CL = -0.4509
      Cm =  0.0052     CD =  0.01935   =>   CDf =  0.00616    CDp =  0.01319

 Side 1  free  transition at x/c =  0.8408   64
 Side 2  free  transition at x/c =  0.2499   44

  34   rms: 0.1585E+00   max: -.1728E+01   C at   44  2   RLX: 0.289
       a = -4.000      CL = -0.4260
      Cm = -0.0015     CD =  0.01701   =>   CDf =  0.00606    CDp =  0.01095

 Side 1  free  transition at x/c =  0.8454   64
 Side 2  free  transition at x/c =  0.2863   46

  35   rms: 0.1538E+00   max: -.1338E+01   C at   46  2   RLX: 0.374
       a = -4.000      CL = -0.3902
      Cm = -0.0099     CD =  0.01578   =>   CDf =  0.00587    CDp =  0.00991

 Side 1  free  transition at x/c =  0.8560   64
 Side 2  free  transition at x/c =  0.3359   49

  36   rms: 0.2353E+00   max: 0.2356E+01   T at   64  1   RLX: 0.263
       a = -4.000      CL = -0.4326
      Cm = -0.0022     CD =  0.01548   =>   CDf =  0.00566    CDp =  0.00982

 Side 1  free  transition at x/c =  0.8400   63
 Side 2  free  transition at x/c =  0.2700   45

  37   rms: 0.2819E+00   max: 0.2857E+01   T at   63  1   RLX: 0.229
       a = -4.000      CL = -0.4703
      Cm =  0.0058     CD =  0.01748   =>   CDf =  0.00596    CDp =  0.01152

 Side 1  free  transition at x/c =  0.8232   63
 Side 2  free  transition at x/c =  0.2218   43

  38   rms: 0.1871E+00   max: -.2123E+01   C at   43  2   RLX: 0.236
       a = -4.000      CL = -0.4594
      Cm =  0.0056     CD =  0.01927   =>   CDf =  0.00620    CDp =  0.01307

 Side 1  free  transition at x/c =  0.8268   63
 Side 2  free  transition at x/c =  0.2350   43

  39   rms: 0.1636E+00   max: -.1591E+01   C at   43  2   RLX: 0.314
       a = -4.000      CL = -0.4303
      Cm = -0.0014     CD =  0.01820   =>   CDf =  0.00614    CDp =  0.01206

 Side 1  free  transition at x/c =  0.8351   63
 Side 2  free  transition at x/c =  0.2735   46

  40   rms: 0.6625E+00   max: -.1066E+02   C at   46  2   RLX: 0.047
       a = -4.000      CL = -0.4190
      Cm = -0.0029     CD =  0.01849   =>   CDf =  0.00593    CDp =  0.01257

 Side 1  free  transition at x/c =  0.8410   64
 Side 2  free  transition at x/c =  0.2870   46

  41   rms: 0.2019E+00   max: -.3407E+01   C at   46  2   RLX: 0.147
       a = -4.000      CL = -0.4070
      Cm = -0.0060     CD =  0.01700   =>   CDf =  0.00584    CDp =  0.01116

 Side 1  free  transition at x/c =  0.8446   64
 Side 2  free  transition at x/c =  0.2959   47

  42   rms: 0.2493E+00   max: -.4205E+01   C at   47  2   RLX: 0.119
       a = -4.000      CL = -0.3943
      Cm = -0.0087     CD =  0.01665   =>   CDf =  0.00580    CDp =  0.01085

 Side 1  free  transition at x/c =  0.8499   64
 Side 2  free  transition at x/c =  0.3059   48

  43   rms: 0.5527E+00   max: -.7826E+01   C at   48  2   RLX: 0.064
       a = -4.000      CL = -0.3754
      Cm = -0.0123     CD =  0.01653   =>   CDf =  0.00576    CDp =  0.01077

 Side 1  free  transition at x/c =  0.8576   65
 Side 2  free  transition at x/c =  0.3224   48

  44   rms: 0.2094E+00   max: -.3713E+01   C at   48  2   RLX: 0.135
       a = -4.000      CL = -0.3639
      Cm = -0.0153     CD =  0.01491   =>   CDf =  0.00565    CDp =  0.00926

 Side 1  free  transition at x/c =  0.8619   65
 Side 2  free  transition at x/c =  0.3310   49

  45   rms: 0.2611E+00   max: -.4174E+01   C at   49  2   RLX: 0.120
       a = -4.000      CL = -0.3479
      Cm = -0.0187     CD =  0.01459   =>   CDf =  0.00564    CDp =  0.00895

 Side 1  free  transition at x/c =  0.8689   66
 Side 2  free  transition at x/c =  0.3439   49
 idif Ue xi dudx           1  0.11718100      3.48186493E-03   33.654667    
 Uenew xinew           2  2.06334535E-02  6.13093376E-04

  46   rms: 0.1062E+01   max: 0.1432E+02   T at    2  1   RLX: 0.078
       a = -4.000      CL = -0.3802
      Cm = -0.0122     CD =  0.01487   =>   CDf =  0.00556    CDp =  0.00931

 Side 1  free  transition at x/c =  0.8566   64
 Side 2  free  transition at x/c =  0.3169   48

  47   rms: 0.4323E+00   max: 0.4915E+01   C at   48  2   RLX: 0.182
       a = -4.000      CL = -0.4338
      Cm = -0.0019     CD =  0.01561   =>   CDf =  0.00570    CDp =  0.00991

 Side 1  free  transition at x/c =  0.8377   63
 Side 2  free  transition at x/c =  0.2635   45

  48   rms: 0.6327E+01   max: -.7760E+02   C at   45  2   RLX: 0.006
       a = -4.000      CL = -0.4144
      Cm = -0.0020     CD =  0.01851   =>   CDf =  0.00597    CDp =  0.01254

 Side 1  free  transition at x/c =  0.8509   64
 Side 2  free  transition at x/c =  0.2910   47

  49   rms: 0.1918E+00   max: -.3131E+01   C at   47  2   RLX: 0.160
       a = -4.000      CL = -0.3951
      Cm = -0.0096     CD =  0.01520   =>   CDf =  0.00583    CDp =  0.00937

 Side 1  free  transition at x/c =  0.8546   64
 Side 2  free  transition at x/c =  0.3044   47

  50   rms: 0.3324E+00   max: -.6294E+01   C at   47  2   RLX: 0.079
       a = -4.000      CL = -0.3852
      Cm = -0.0114     CD =  0.01508   =>   CDf =  0.00574    CDp =  0.00934

 Side 1  free  transition at x/c =  0.8574   65
 Side 2  free  transition at x/c =  0.3114   48

  51   rms: 0.1378E+00   max: -.1719E+01   C at   48  2   RLX: 0.291
       a = -4.000      CL = -0.3677
      Cm = -0.0151     CD =  0.01487   =>   CDf =  0.00573    CDp =  0.00915

 Side 1  free  transition at x/c =  0.8633   65
 Side 2  free  transition at x/c =  0.3237   49

  52   rms: 0.1866E+00   max: -.1885E+01   C at   49  2   RLX: 0.265
       a = -4.000      CL = -0.3399
      Cm = -0.0209     CD =  0.01427   =>   CDf =  0.00573    CDp =  0.00853

 Side 1  free  transition at x/c =  0.8741   66
 Side 2  free  transition at x/c =  0.3430   49
 idif Ue xi dudx           1  0.11345546      3.37135792E-03   33.652748    
 Uenew xinew           2  1.69134121E-02  5.02586365E-04

  53   rms: 0.1290E+00   max: 0.1047E+01   T at   66  1   RLX: 0.509
       a = -4.000      CL = -0.3720
      Cm = -0.0154     CD =  0.01341   =>   CDf =  0.00559    CDp =  0.00782

 Side 1  free  transition at x/c =  0.8623   65
 Side 2  free  transition at x/c =  0.3324   49

  54   rms: 0.1221E+00   max: -.1537E+01   C at   49  2   RLX: 0.325
       a = -4.000      CL = -0.3563
      Cm = -0.0182     CD =  0.01427   =>   CDf =  0.00564    CDp =  0.00863

 Side 1  free  transition at x/c =  0.8684   65
 Side 2  free  transition at x/c =  0.3486   50

  55   rms: 0.2505E+00   max: -.3769E+01   C at   50  2   RLX: 0.133
       a = -4.000      CL = -0.3389
      Cm = -0.0214     CD =  0.01414   =>   CDf =  0.00557    CDp =  0.00857

 Side 1  free  transition at x/c =  0.8752   67
 Side 2  free  transition at x/c =  0.3622   50

  56   rms: 0.1174E+00   max: -.1521E+01   C at   50  2   RLX: 0.329
       a = -4.000      CL = -0.3223
      Cm = -0.0254     CD =  0.01299   =>   CDf =  0.00550    CDp =  0.00749

 Side 1  free  transition at x/c =  0.8818   67
 Side 2  free  transition at x/c =  0.3769   50

  57   rms: 0.1805E+00   max: -.2049E+01   C at   50  2   RLX: 0.244
       a = -4.000      CL = -0.2912
      Cm = -0.0317     CD =  0.01263   =>   CDf =  0.00544    CDp =  0.00719

 Side 1  free  transition at x/c =  0.8944   68
 Side 2  free  transition at x/c =  0.4081   52

  58   rms: 0.4594E-01   max: -.4934E+00   C at   52  2
       a = -4.000      CL = -0.2638
      Cm = -0.0386     CD =  0.01090   =>   CDf =  0.00530    CDp =  0.00559

 Side 1  free  transition at x/c =  0.9041   68
 Side 2  free  transition at x/c =  0.4620   55

  59   rms: 0.6996E-01   max: 0.5469E+00   T at   68  1
       a = -4.000      CL = -0.3314
      Cm = -0.0248     CD =  0.01086   =>   CDf =  0.00510    CDp =  0.00577

 Side 1  free  transition at x/c =  0.8857   67
 Side 2  free  transition at x/c =  0.3755   50

  60   rms: 0.9220E+00   max: -.7857E+01   T at   67  1   RLX: 0.064
       a = -4.000      CL = -0.2840
      Cm = -0.0328     CD =  0.01256   =>   CDf =  0.00546    CDp =  0.00710

 Side 1  free  transition at x/c =  0.9067   68
 Side 2  free  transition at x/c =  0.4200   53

  61   rms: 0.3399E-01   max: -.4639E+00   C at   53  2
       a = -4.000      CL = -0.2861
      Cm = -0.0341     CD =  0.01092   =>   CDf =  0.00524    CDp =  0.00569

 Side 1  free  transition at x/c =  0.8972   68
 Side 2  free  transition at x/c =  0.4295   53

  62   rms: 0.3617E-01   max: -.3978E+00   C at   53  2
       a = -4.000      CL = -0.2655
      Cm = -0.0384     CD =  0.01074   =>   CDf =  0.00519    CDp =  0.00555

 Side 1  free  transition at x/c =  0.9039   68
 Side 2  free  transition at x/c =  0.4513   55

  63   rms: 0.1982E+00   max: 0.2842E+01   C at   55  2   RLX: 0.491
       a = -4.000      CL = -0.3289
      Cm = -0.0247     CD =  0.01158   =>   CDf =  0.00509    CDp =  0.00649

 Side 1  free  transition at x/c =  0.8847   67
 Side 2  free  transition at x/c =  0.3839   51

  64   rms: 0.3995E+00   max: -.5223E+01   C at   51  2   RLX: 0.096
       a = -4.000      CL = -0.3062
      Cm = -0.0280     CD =  0.01272   =>   CDf =  0.00541    CDp =  0.00732

 Side 1  free  transition at x/c =  0.8945   68
 Side 2  free  transition at x/c =  0.4029   52

  65   rms: 0.6566E-01   max: -.1093E+01   C at   52  2   RLX: 0.457
       a = -4.000      CL = -0.2912
      Cm = -0.0324     CD =  0.01127   =>   CDf =  0.00531    CDp =  0.00596

 Side 1  free  transition at x/c =  0.8971   68
 Side 2  free  transition at x/c =  0.4176   53

  66   rms: 0.5320E-01   max: -.8831E+00   C at   53  2   RLX: 0.566
       a = -4.000      CL = -0.2784
      Cm = -0.0354     CD =  0.01096   =>   CDf =  0.00524    CDp =  0.00573

 Side 1  free  transition at x/c =  0.9006   68
 Side 2  free  transition at x/c =  0.4309   54

  67   rms: 0.5135E-01   max: -.7456E+00   C at   54  2   RLX: 0.671
       a = -4.000      CL = -0.2609
      Cm = -0.0392     CD =  0.01067   =>   CDf =  0.00518    CDp =  0.00548

 Side 1  free  transition at x/c =  0.9061   68
 Side 2  free  transition at x/c =  0.4469   54

  68   rms: 0.2883E-01   max: 0.2490E+00   T at   68  1
       a = -4.000      CL = -0.2865
      Cm = -0.0340     CD =  0.01084   =>   CDf =  0.00512    CDp =  0.00572

 Side 1  free  transition at x/c =  0.8973   68
 Side 2  free  transition at x/c =  0.4289   53

  69   rms: 0.3665E-01   max: -.4195E+00   C at   53  2
       a = -4.000      CL = -0.2658
      Cm = -0.0383     CD =  0.01074   =>   CDf =  0.00519    CDp =  0.00554

 Side 1  free  transition at x/c =  0.9038   68
 Side 2  free  transition at x/c =  0.4505   55

  70   rms: 0.2541E+00   max: 0.3558E+01   C at   55  2   RLX: 0.377
       a = -4.000      CL = -0.3286
      Cm = -0.0247     CD =  0.01163   =>   CDf =  0.00510    CDp =  0.00653

 Side 1  free  transition at x/c =  0.8848   67
 Side 2  free  transition at x/c =  0.3843   51

  71   rms: 0.4157E+00   max: -.5423E+01   C at   51  2   RLX: 0.092
       a = -4.000      CL = -0.3057
      Cm = -0.0281     CD =  0.01272   =>   CDf =  0.00540    CDp =  0.00732

 Side 1  free  transition at x/c =  0.8947   68
 Side 2  free  transition at x/c =  0.4038   52

  72   rms: 0.6438E-01   max: -.1076E+01   C at   52  2   RLX: 0.465
       a = -4.000      CL = -0.2904
      Cm = -0.0326     CD =  0.01125   =>   CDf =  0.00530    CDp =  0.00595

 Side 1  free  transition at x/c =  0.8973   68
 Side 2  free  transition at x/c =  0.4191   53

  73   rms: 0.5244E-01   max: -.8819E+00   C at   53  2   RLX: 0.567
       a = -4.000      CL = -0.2776
      Cm = -0.0356     CD =  0.01095   =>   CDf =  0.00523    CDp =  0.00572

 Side 1  free  transition at x/c =  0.9008   68
 Side 2  free  transition at x/c =  0.4320   54

  74   rms: 0.5302E-01   max: -.7817E+00   C at   54  2   RLX: 0.640
       a = -4.000      CL = -0.2601
      Cm = -0.0394     CD =  0.01067   =>   CDf =  0.00518    CDp =  0.00549

 Side 1  free  transition at x/c =  0.9064   68
 Side 2  free  transition at x/c =  0.4474   54

  75   rms: 0.2652E-01   max: 0.2340E+00   T at   68  1
       a = -4.000      CL = -0.2838
      Cm = -0.0345     CD =  0.01081   =>   CDf =  0.00512    CDp =  0.00569

 Side 1  free  transition at x/c =  0.8982   68
 Side 2  free  transition at x/c =  0.4314   54

  76   rms: 0.3895E-01   max: -.4803E+00   C at   54  2
       a = -4.000      CL = -0.2642
      Cm = -0.0387     CD =  0.01062   =>   CDf =  0.00518    CDp =  0.00544

 Side 1  free  transition at x/c =  0.9047   68
 Side 2  free  transition at x/c =  0.4471   54

  77   rms: 0.5708E-01   max: 0.5932E+00   C at   54  2
       a = -4.000      CL = -0.3134
      Cm = -0.0283     CD =  0.01105   =>   CDf =  0.00512    CDp =  0.00593

 Side 1  free  transition at x/c =  0.8894   67
 Side 2  free  transition at x/c =  0.3983   52
 idif Ue xi dudx           1  0.10894809      3.22437286E-03   33.788925    
 Uenew xinew           2  1.20153865E-02  3.55601311E-04

  78   rms: 0.1338E+00   max: 0.1569E+01   C at   52  2   RLX: 0.574
       a = -4.000      CL = -0.3650
      Cm = -0.0173     CD =  0.01265   =>   CDf =  0.00533    CDp =  0.00732

 Side 1  free  transition at x/c =  0.8700   65
 Side 2  free  transition at x/c =  0.3468   50

  79   rms: 0.1685E+01   max: -.2358E+02   C at   50  2   RLX: 0.021
       a = -4.000      CL = -0.3479
      Cm = -0.0181     CD =  0.01456   =>   CDf =  0.00559    CDp =  0.00897

 Side 1  free  transition at x/c =  0.8797   67
 Side 2  free  transition at x/c =  0.3591   50

  80   rms: 0.1008E+00   max: -.1074E+01   C at   50  2   RLX: 0.465
       a = -4.000      CL = -0.3224
      Cm = -0.0256     CD =  0.01224   =>   CDf =  0.00557    CDp =  0.00668

 Side 1  free  transition at x/c =  0.8851   67
 Side 2  free  transition at x/c =  0.3799   51

  81   rms: 0.1589E+00   max: -.2387E+01   C at   51  2   RLX: 0.209
       a = -4.000      CL = -0.3064
      Cm = -0.0287     CD =  0.01209   =>   CDf =  0.00542    CDp =  0.00667

 Side 1  free  transition at x/c =  0.8906   67
 Side 2  free  transition at x/c =  0.3944   51
 idif Ue xi dudx           1  0.10577003      3.13282013E-03   33.761921    
 Uenew xinew           2  8.91478732E-03  2.64048576E-04

  82   rms: 0.1075E+00   max: 0.1487E+01   C at   51  2   RLX: 0.785
       a = -4.000      CL = -0.3591
      Cm = -0.0189     CD =  0.01219   =>   CDf =  0.00532    CDp =  0.00687

 Side 1  free  transition at x/c =  0.8710   65
 Side 2  free  transition at x/c =  0.3536   50

  83   rms: 0.1854E+01   max: 0.2299E+02   C at   50  2   RLX: 0.050
       a = -4.000      CL = -0.4273
      Cm = -0.0030     CD =  0.01514   =>   CDf =  0.00554    CDp =  0.00960

 Side 1  free  transition at x/c =  0.8489   64
 Side 2  free  transition at x/c =  0.2762   46

  84   rms: 0.3561E+00   max: -.5188E+01   C at   46  2   RLX: 0.096
       a = -4.000      CL = -0.4123
      Cm = -0.0040     CD =  0.01710   =>   CDf =  0.00592    CDp =  0.01118

 Side 1  free  transition at x/c =  0.8558   64
 Side 2  free  transition at x/c =  0.2883   47

  85   rms: 0.2730E+00   max: 0.2856E+01   T at   64  1   RLX: 0.219
       a = -4.000      CL = -0.4409
      Cm =  0.0007     CD =  0.01670   =>   CDf =  0.00590    CDp =  0.01080

 Side 1  free  transition at x/c =  0.8410   64
 Side 2  free  transition at x/c =  0.2601   45

  86   rms: 0.1735E+00   max: -.2059E+01   C at   45  2   RLX: 0.243
       a = -4.000      CL = -0.4256
      Cm = -0.0017     CD =  0.01743   =>   CDf =  0.00600    CDp =  0.01143

 Side 1  free  transition at x/c =  0.8452   64
 Side 2  free  transition at x/c =  0.2715   46

  87   rms: 0.1905E+00   max: -.1990E+01   C at   46  2   RLX: 0.251
       a = -4.000      CL = -0.4016
      Cm = -0.0072     CD =  0.01658   =>   CDf =  0.00597    CDp =  0.01061

 Side 1  free  transition at x/c =  0.8532   64
 Side 2  free  transition at x/c =  0.2888   47

  88   rms: 0.1271E+02   max: 0.1593E+03   C at   47  2   RLX: 0.008
       a = -4.000      CL = -0.4567
      Cm =  0.0040     CD =  0.01747   =>   CDf =  0.00586    CDp =  0.01161

 Side 1  free  transition at x/c =  0.8329   63
 Side 2  free  transition at x/c =  0.2374   44

  89   rms: 0.4205E+00   max: -.5812E+01   C at   44  2   RLX: 0.086
       a = -4.000      CL = -0.4421
      Cm =  0.0029     CD =  0.01930   =>   CDf =  0.00611    CDp =  0.01319

 Side 1  free  transition at x/c =  0.8399   63
 Side 2  free  transition at x/c =  0.2509   44

  90   rms: 0.2366E+00   max: 0.2330E+01   T at   63  1   RLX: 0.263
       a = -4.000      CL = -0.4639
      Cm =  0.0054     CD =  0.01789   =>   CDf =  0.00607    CDp =  0.01182

 Side 1  free  transition at x/c =  0.8276   63
 Side 2  free  transition at x/c =  0.2280   43

  91   rms: 0.1884E+00   max: -.2356E+01   C at   43  2   RLX: 0.212
       a = -4.000      CL = -0.4470
      Cm =  0.0025     CD =  0.01898   =>   CDf =  0.00615    CDp =  0.01283

 Side 1  free  transition at x/c =  0.8333   63
 Side 2  free  transition at x/c =  0.2480   44

  92   rms: 0.2554E+00   max: -.3181E+01   C at   44  2   RLX: 0.157
       a = -4.000      CL = -0.4231
      Cm = -0.0023     CD =  0.01855   =>   CDf =  0.00605    CDp =  0.01249

 Side 1  free  transition at x/c =  0.8424   64
 Side 2  free  transition at x/c =  0.2854   46

  93   rms: 0.2349E+00   max: -.4206E+01   C at   46  2   RLX: 0.119
       a = -4.000      CL = -0.4158
      Cm = -0.0045     CD =  0.01721   =>   CDf =  0.00584    CDp =  0.01137

 Side 1  free  transition at x/c =  0.8456   64
 Side 2  free  transition at x/c =  0.2955   47

  94   rms: 0.1968E+00   max: -.2620E+01   C at   47  2   RLX: 0.191
       a = -4.000      CL = -0.3950
      Cm = -0.0090     CD =  0.01657   =>   CDf =  0.00580    CDp =  0.01078

 Side 1  free  transition at x/c =  0.8533   64
 Side 2  free  transition at x/c =  0.3201   48

  95   rms: 0.1628E+01   max: 0.1545E+02   T at   64  1   RLX: 0.045
       a = -4.000      CL = -0.4494
      Cm =  0.0013     CD =  0.01642   =>   CDf =  0.00570    CDp =  0.01073

 Side 1  free  transition at x/c =  0.8348   63
 Side 2  free  transition at x/c =  0.2418   44

  96   rms: 0.4438E+00   max: -.6920E+01   C at   44  2   RLX: 0.072
       a = -4.000      CL = -0.4366
      Cm =  0.0008     CD =  0.01887   =>   CDf =  0.00609    CDp =  0.01277

 Side 1  free  transition at x/c =  0.8410   64
 Side 2  free  transition at x/c =  0.2530   45

  97   rms: 0.1600E+00   max: -.1613E+01   C at   45  2   RLX: 0.310
       a = -4.000      CL = -0.4144
      Cm = -0.0052     CD =  0.01680   =>   CDf =  0.00606    CDp =  0.01074

 Side 1  free  transition at x/c =  0.8461   64
 Side 2  free  transition at x/c =  0.2763   46

  98   rms: 0.2582E+00   max: -.4703E+01   C at   46  2   RLX: 0.106
       a = -4.000      CL = -0.4059
      Cm = -0.0066     CD =  0.01677   =>   CDf =  0.00589    CDp =  0.01088

 Side 1  free  transition at x/c =  0.8496   64
 Side 2  free  transition at x/c =  0.2888   47

  99   rms: 0.3671E+00   max: -.6572E+01   C at   47  2   RLX: 0.076
       a = -4.000      CL = -0.3956
      Cm = -0.0087     CD =  0.01652   =>   CDf =  0.00582    CDp =  0.01070

 Side 1  free  transition at x/c =  0.8536   64
 Side 2  free  transition at x/c =  0.3030   47

 100   rms: 0.5179E+01   max: -.9851E+02   C at   47  2   RLX: 0.005
       a = -4.000      CL = -0.3853
      Cm = -0.0105     CD =  0.01663   =>   CDf =  0.00574    CDp =  0.01089

 Side 1  free  transition at x/c =  0.8576   65
 Side 2  free  transition at x/c =  0.3154   48

 101   rms: 0.1467E+00   max: -.1934E+01   C at   48  2   RLX: 0.259
       a = -4.000      CL = -0.3656
      Cm = -0.0156     CD =  0.01488   =>   CDf =  0.00569    CDp =  0.00919

 Side 1  free  transition at x/c =  0.8642   65
 Side 2  free  transition at x/c =  0.3464   50

 102   rms: 0.2955E+00   max: -.4554E+01   C at   50  2   RLX: 0.110
       a = -4.000      CL = -0.3504
      Cm = -0.0186     CD =  0.01461   =>   CDf =  0.00555    CDp =  0.00906

 Side 1  free  transition at x/c =  0.8714   65
 Side 2  free  transition at x/c =  0.3595   51

 103   rms: 0.2502E+00   max: 0.2472E+01   C at   51  2   RLX: 0.285
       a = -4.000      CL = -0.3922
      Cm = -0.0108     CD =  0.01428   =>   CDf =  0.00552    CDp =  0.00876

 Side 1  free  transition at x/c =  0.8557   64
 Side 2  free  transition at x/c =  0.3087   48

 104   rms: 0.1004E+01   max: 0.1547E+02   C at   48  2   RLX: 0.097
       a = -4.000      CL = -0.4440
      Cm =  0.0005     CD =  0.01646   =>   CDf =  0.00574    CDp =  0.01071

 Side 1  free  transition at x/c =  0.8364   63
 Side 2  free  transition at x/c =  0.2501   44

 105   rms: 0.8202E+00   max: -.8647E+01   C at   44  2   RLX: 0.058
       a = -4.000      CL = -0.4172
      Cm = -0.0015     CD =  0.01885   =>   CDf =  0.00606    CDp =  0.01279

 Side 1  free  transition at x/c =  0.8528   64
 Side 2  free  transition at x/c =  0.2896   47

 106   rms: 0.2040E+00   max: -.3224E+01   C at   47  2   RLX: 0.155
       a = -4.000      CL = -0.3975
      Cm = -0.0091     CD =  0.01525   =>   CDf =  0.00585    CDp =  0.00939

 Side 1  free  transition at x/c =  0.8566   64
 Side 2  free  transition at x/c =  0.3045   47

 107   rms: 0.6259E+00   max: -.1229E+02   C at   47  2   RLX: 0.041
       a = -4.000      CL = -0.3906
      Cm = -0.0102     CD =  0.01521   =>   CDf =  0.00572    CDp =  0.00949

 Side 1  free  transition at x/c =  0.8590   65
 Side 2  free  transition at x/c =  0.3081   48

 108   rms: 0.1248E+00   max: -.1336E+01   C at   48  2   RLX: 0.374
       a = -4.000      CL = -0.3679
      Cm = -0.0154     CD =  0.01459   =>   CDf =  0.00575    CDp =  0.00884

 Side 1  free  transition at x/c =  0.8653   65
 Side 2  free  transition at x/c =  0.3230   48

 109   rms: 0.1462E+00   max: -.1041E+01   T at   65  1   RLX: 0.481
       a = -4.000      CL = -0.3122
      Cm = -0.0266     CD =  0.01397   =>   CDf =  0.00576    CDp =  0.00821

 Side 1  free  transition at x/c =  0.8870   67
 Side 2  free  transition at x/c =  0.3920   51
 idif Ue xi dudx           1  0.13321970      4.00507450E-03   33.262730    
 Uenew xinew           2  3.77965383E-02  1.13630295E-03

 110   rms: 0.7429E+00   max: 0.6326E+01   T at   67  1   RLX: 0.135
       a = -4.000      CL = -0.4084
      Cm = -0.0080     CD =  0.01313   =>   CDf =  0.00546    CDp =  0.00767

 Side 1  free  transition at x/c =  0.8597   65
 Side 2  free  transition at x/c =  0.2928   47

 111   rms: 0.1851E+00   max: -.2161E+01   C at   47  2   RLX: 0.231
       a = -4.000      CL = -0.3880
      Cm = -0.0105     CD =  0.01533   =>   CDf =  0.00586    CDp =  0.00947

 Side 1  free  transition at x/c =  0.8663   65
 Side 2  free  transition at x/c =  0.3054   47

 112   rms: 0.3931E+00   max: -.3451E+01   T at   65  1   RLX: 0.145
       a = -4.000      CL = -0.3387
      Cm = -0.0199     CD =  0.01521   =>   CDf =  0.00587    CDp =  0.00934

 Side 1  free  transition at x/c =  0.8869   67
 Side 2  free  transition at x/c =  0.3747   50

 113   rms: 0.2614E+00   max: -.5075E+01   C at   50  2   RLX: 0.099
       a = -4.000      CL = -0.3318
      Cm = -0.0237     CD =  0.01193   =>   CDf =  0.00541    CDp =  0.00652

 Side 1  free  transition at x/c =  0.8886   67
 Side 2  free  transition at x/c =  0.3783   51

 114   rms: 0.1800E+00   max: -.2725E+01   C at   51  2   RLX: 0.183
       a = -4.000      CL = -0.3126
      Cm = -0.0278     CD =  0.01164   =>   CDf =  0.00544    CDp =  0.00620

 Side 1  free  transition at x/c =  0.8937   68
 Side 2  free  transition at x/c =  0.3937   51

 115   rms: 0.5770E-01   max: -.8189E+00   C at   51  2   RLX: 0.611
       a = -4.000      CL = -0.2896
      Cm = -0.0329     CD =  0.01129   =>   CDf =  0.00538    CDp =  0.00591

 Side 1  free  transition at x/c =  0.8974   68
 Side 2  free  transition at x/c =  0.4290   53

 116   rms: 0.3295E-01   max: -.2544E+00   C at   53  2
       a = -4.000      CL = -0.2650
      Cm = -0.0384     CD =  0.01079   =>   CDf =  0.00521    CDp =  0.00557

 Side 1  free  transition at x/c =  0.9039   68
 Side 2  free  transition at x/c =  0.4571   55

 117   rms: 0.2262E+00   max: 0.3506E+01   C at   55  2   RLX: 0.428
       a = -4.000      CL = -0.3267
      Cm = -0.0252     CD =  0.01146   =>   CDf =  0.00506    CDp =  0.00640

 Side 1  free  transition at x/c =  0.8856   67
 Side 2  free  transition at x/c =  0.3868   51

 118   rms: 0.8056E+00   max: -.1011E+02   C at   51  2   RLX: 0.049
       a = -4.000      CL = -0.3010
      Cm = -0.0290     CD =  0.01270   =>   CDf =  0.00540    CDp =  0.00730

 Side 1  free  transition at x/c =  0.8972   68
 Side 2  free  transition at x/c =  0.4095   52

 119   rms: 0.5400E-01   max: -.9208E+00   C at   52  2   RLX: 0.543
       a = -4.000      CL = -0.2826
      Cm = -0.0344     CD =  0.01101   =>   CDf =  0.00529    CDp =  0.00573

 Side 1  free  transition at x/c =  0.9000   68
 Side 2  free  transition at x/c =  0.4303   53

 120   rms: 0.3790E-01   max: -.5421E+00   C at   53  2   RLX: 0.922
       a = -4.000      CL = -0.2593
      Cm = -0.0396     CD =  0.01067   =>   CDf =  0.00519    CDp =  0.00548

 Side 1  free  transition at x/c =  0.9061   68
 Side 2  free  transition at x/c =  0.4580   55

 121   rms: 0.4352E-01   max: 0.6857E+00   C at   55  2
       a = -4.000      CL = -0.2869
      Cm = -0.0339     CD =  0.01086   =>   CDf =  0.00505    CDp =  0.00581

 Side 1  free  transition at x/c =  0.8970   68
 Side 2  free  transition at x/c =  0.4279   53

 122   rms: 0.3732E-01   max: -.4328E+00   C at   53  2
       a = -4.000      CL = -0.2667
      Cm = -0.0381     CD =  0.01075   =>   CDf =  0.00520    CDp =  0.00555

 Side 1  free  transition at x/c =  0.9035   68
 Side 2  free  transition at x/c =  0.4498   55

 123   rms: 0.9064E+00   max: 0.1238E+02   C at   55  2   RLX: 0.106
       a = -4.000      CL = -0.3294
      Cm = -0.0244     CD =  0.01174   =>   CDf =  0.00510    CDp =  0.00664

 Side 1  free  transition at x/c =  0.8845   67
 Side 2  free  transition at x/c =  0.3837   51

 124   rms: 0.3625E+00   max: -.4740E+01   C at   51  2   RLX: 0.105
       a = -4.000      CL = -0.3067
      Cm = -0.0279     CD =  0.01273   =>   CDf =  0.00541    CDp =  0.00733

 Side 1  free  transition at x/c =  0.8941   68
 Side 2  free  transition at x/c =  0.4026   52

 125   rms: 0.6651E-01   max: -.1086E+01   C at   52  2   RLX: 0.460
       a = -4.000      CL = -0.2918
      Cm = -0.0322     CD =  0.01131   =>   CDf =  0.00531    CDp =  0.00600

 Side 1  free  transition at x/c =  0.8968   68
 Side 2  free  transition at x/c =  0.4172   53

 126   rms: 0.5361E-01   max: -.8746E+00   C at   53  2   RLX: 0.572
       a = -4.000      CL = -0.2788
      Cm = -0.0353     CD =  0.01099   =>   CDf =  0.00524    CDp =  0.00575

 Side 1  free  transition at x/c =  0.9003   68
 Side 2  free  transition at x/c =  0.4309   53

 127   rms: 0.4768E-01   max: -.7180E+00   C at   53  2   RLX: 0.696
       a = -4.000      CL = -0.2593
      Cm = -0.0395     CD =  0.01074   =>   CDf =  0.00518    CDp =  0.00556

 Side 1  free  transition at x/c =  0.9063   68
 Side 2  free  transition at x/c =  0.4527   55

 128   rms: 0.3497E-01   max: 0.4668E+00   C at   55  2
       a = -4.000      CL = -0.2842
      Cm = -0.0344     CD =  0.01087   =>   CDf =  0.00508    CDp =  0.00578

 Side 1  free  transition at x/c =  0.8978   68
 Side 2  free  transition at x/c =  0.4316   54

 129   rms: 0.3828E-01   max: -.4584E+00   C at   54  2
       a = -4.000      CL = -0.2656
      Cm = -0.0384     CD =  0.01064   =>   CDf =  0.00518    CDp =  0.00546

 Side 1  free  transition at x/c =  0.9043   68
 Side 2  free  transition at x/c =  0.4462   54

 130   rms: 0.9134E-01   max: 0.1061E+01   C at   54  2
       a = -4.000      CL = -0.3406
      Cm = -0.0226     CD =  0.01129   =>   CDf =  0.00512    CDp =  0.00617

 Side 1  free  transition at x/c =  0.8825   67
 Side 2  free  transition at x/c =  0.3689   50

 131   rms: 0.2120E+00   max: -.2601E+01   C at   50  2   RLX: 0.192
       a = -4.000      CL = -0.3156
      Cm = -0.0264     CD =  0.01284   =>   CDf =  0.00548    CDp =  0.00736

 Side 1  free  transition at x/c =  0.8918   68
 Side 2  free  transition at x/c =  0.3922   51

 132   rms: 0.6985E-01   max: -.9894E+00   C at   51  2   RLX: 0.505
       a = -4.000      CL = -0.2973
      Cm = -0.0310     CD =  0.01156   =>   CDf =  0.00537    CDp =  0.00619

 Side 1  free  transition at x/c =  0.8949   68
 Side 2  free  transition at x/c =  0.4159   53

 133   rms: 0.5390E-01   max: -.7747E+00   C at   53  2   RLX: 0.645
       a = -4.000      CL = -0.2820
      Cm = -0.0346     CD =  0.01103   =>   CDf =  0.00524    CDp =  0.00579

 Side 1  free  transition at x/c =  0.8991   68
 Side 2  free  transition at x/c =  0.4297   53

 134   rms: 0.4275E-01   max: -.5848E+00   C at   53  2   RLX: 0.855
       a = -4.000      CL = -0.2604
      Cm = -0.0393     CD =  0.01072   =>   CDf =  0.00519    CDp =  0.00553

 Side 1  free  transition at x/c =  0.9058   68
 Side 2  free  transition at x/c =  0.4546   55

 135   rms: 0.4279E-01   max: 0.6406E+00   C at   55  2
       a = -4.000      CL = -0.2886
      Cm = -0.0335     CD =  0.01090   =>   CDf =  0.00507    CDp =  0.00583

 Side 1  free  transition at x/c =  0.8963   68
 Side 2  free  transition at x/c =  0.4270   53

 136   rms: 0.3839E-01   max: -.4341E+00   C at   53  2
       a = -4.000      CL = -0.2687
      Cm = -0.0377     CD =  0.01076   =>   CDf =  0.00520    CDp =  0.00556

 Side 1  free  transition at x/c =  0.9028   68
 Side 2  free  transition at x/c =  0.4474   54

 137   rms: 0.2085E+00   max: -.2140E+01   C at   54  2   RLX: 0.234
       a = -4.000      CL = -0.2295
      Cm = -0.0456     CD =  0.01066   =>   CDf =  0.00511    CDp =  0.00554

 Side 1  free  transition at x/c =  0.9183   69
 Side 2  free  transition at x/c =  0.4923   57

 138   rms: 0.6424E-01   max: 0.5893E+00   C at   57  2
       a = -4.000      CL = -0.2476
      Cm = -0.0422     CD =  0.01039   =>   CDf =  0.00491    CDp =  0.00547

 Side 1  free  transition at x/c =  0.9095   69
 Side 2  free  transition at x/c =  0.4641   55

 139   rms: 0.5188E-02   max: -.6650E-01   C at   55  2
       a = -4.000      CL = -0.2487
      Cm = -0.0419     CD =  0.01047   =>   CDf =  0.00504    CDp =  0.00543

 Side 1  free  transition at x/c =  0.9095   69
 Side 2  free  transition at x/c =  0.4655   55

 140   rms: 0.1475E-03   max: 0.2750E-02   C at   55  2
       a = -4.000      CL = -0.2487
      Cm = -0.0419     CD =  0.01047   =>   CDf =  0.00503    CDp =  0.00544

 Side 1  free  transition at x/c =  0.9095   69
 Side 2  free  transition at x/c =  0.4654   55

 141   rms: 0.1805E-05   max: 0.1879E-04   C at   55  2
       a = -4.000      CL = -0.2487
      Cm = -0.0419     CD =  0.01047   =>   CDf =  0.00503    CDp =  0.00544
 plradd ia,ip,cpol            1           0  3.98587482E-03

 Point added to stored polar  1
 Point written to save file  mh95_Re400k.base.pol                            
 Dump file unspecified or not available
 Calculating wake trajectory ...
 Calculating source influence matrix ...

 Solving BL system ...

 Side 1  free  transition at x/c =  0.9095   69
 Side 2  free  transition at x/c =  0.4654   55

   1   rms: 0.1724E+00   max: -.2905E+01   C at   55  2   RLX: 0.172
       a = -3.500      CL = -0.2365
      Cm = -0.0425     CD =  0.01028   =>   CDf =  0.00503    CDp =  0.00525

 Side 1  free  transition at x/c =  0.9089   69
 Side 2  free  transition at x/c =  0.4927   57

   2   rms: 0.1625E+00   max: -.2811E+01   C at   57  2   RLX: 0.178
       a = -3.500      CL = -0.2271
      Cm = -0.0427     CD =  0.01003   =>   CDf =  0.00491    CDp =  0.00512

 Side 1  free  transition at x/c =  0.9083   69
 Side 2  free  transition at x/c =  0.5126   58

   3   rms: 0.1155E+00   max: -.1860E+01   C at   58  2   RLX: 0.269
       a = -3.500      CL = -0.2141
      Cm = -0.0433     CD =  0.00984   =>   CDf =  0.00485    CDp =  0.00499

 Side 1  free  transition at x/c =  0.9077   70
 Side 2  free  transition at x/c =  0.5436   59

   4   rms: 0.1004E+00   max: -.1546E+01   C at   59  2   RLX: 0.323
       a = -3.500      CL = -0.2042
      Cm = -0.0435     CD =  0.00960   =>   CDf =  0.00470    CDp =  0.00491

 Side 1  free  transition at x/c =  0.9072   69
 Side 2  free  transition at x/c =  0.5667   60

   5   rms: 0.9220E-01   max: -.9978E+00   C at   60  2   RLX: 0.501
       a = -3.500      CL = -0.1730
      Cm = -0.0480     CD =  0.00930   =>   CDf =  0.00461    CDp =  0.00469

 Side 1  free  transition at x/c =  0.9151   70
 Side 2  free  transition at x/c =  0.6213   63

   6   rms: 0.5542E-01   max: 0.3517E+00   D at   71  1
       a = -3.500      CL = -0.1770
      Cm = -0.0451     CD =  0.00911   =>   CDf =  0.00441    CDp =  0.00470

 Side 1  free  transition at x/c =  0.9066   69
 Side 2  free  transition at x/c =  0.6192   63

   7   rms: 0.7546E-01   max: -.5214E+00   T at   69  1   RLX: 0.959
       a = -3.500      CL = -0.1238
      Cm = -0.0561     CD =  0.00892   =>   CDf =  0.00440    CDp =  0.00452

 MRCHDU: Convergence failed at  71  side 1    Res =  0.1287E+02
 MRCHDU: Convergence failed at  72  side 1    Res =  0.8471E+01
 MRCHDU: Convergence failed at  73  side 1    Res =  0.5760E+01
 MRCHDU: Convergence failed at  74  side 1    Res =  0.6169E+01
 MRCHDU: Convergence failed at  75  side 1    Res =  0.7332E+01
 MRCHDU: Convergence failed at  76  side 1    Res =  0.1149E+02
 Side 1  free  transition at x/c =  0.9334   71
 Side 2  free  transition at x/c =  0.6437   64

   8   rms: 0.2417E+00   max: 0.1655E+01   C at   71  1   RLX: 0.882
       a = -3.500      CL = -0.2104
      Cm = -0.0399     CD =  0.00719   =>   CDf =  0.00435    CDp =  0.00284

 Side 1  free  transition at x/c =  0.8910   69
 Side 2  free  transition at x/c =  0.5717   60

   9   rms: 0.5928E-01   max: -.5908E+00   D at   70  1   RLX: 0.846
       a = -3.500      CL = -0.2095
      Cm = -0.0386     CD =  0.00991   =>   CDf =  0.00463    CDp =  0.00527

 Side 1  free  transition at x/c =  0.8955   69
 Side 2  free  transition at x/c =  0.5940   62

  10   rms: 0.1887E-01   max: -.1768E+00   D at   70  1
       a = -3.500      CL = -0.2009
      Cm = -0.0402     CD =  0.00949   =>   CDf =  0.00450    CDp =  0.00499

 Side 1  free  transition at x/c =  0.8981   69
 Side 2  free  transition at x/c =  0.5987   62

  11   rms: 0.3497E-02   max: 0.2212E-01   C at   62  2
       a = -3.500      CL = -0.2035
      Cm = -0.0396     CD =  0.00949   =>   CDf =  0.00448    CDp =  0.00501

 Side 1  free  transition at x/c =  0.8976   69
 Side 2  free  transition at x/c =  0.5967   62

  12   rms: 0.1090E-03   max: -.1588E-02   C at   62  2
       a = -3.500      CL = -0.2035
      Cm = -0.0396     CD =  0.00949   =>   CDf =  0.00449    CDp =  0.00500

 Side 1  free  transition at x/c =  0.8976   69
 Side 2  free  transition at x/c =  0.5968   62

  13   rms: 0.1848E-05   max: 0.1116E-04   D at   65  2
       a = -3.500      CL = -0.2035
      Cm = -0.0396     CD =  0.00949   =>   CDf =  0.00449    CDp =  0.00500
 plradd ia,ip,cpol            2           0  3.98587482E-03

 Point added to stored polar  1
 Point written to save file  mh95_Re400k.base.pol                            
 Dump file unspecified or not available
 Calculating wake trajectory ...
 Calculating source influence matrix ...

 Solving BL system ...

 Side 1  free  transition at x/c =  0.8976   69
 Side 2  free  transition at x/c =  0.5968   62

   1   rms: 0.1681E+00   max: -.2366E+01   C at   62  2   RLX: 0.211
       a = -3.000      CL = -0.1910
      Cm = -0.0396     CD =  0.00931   =>   CDf =  0.00449    CDp =  0.00482

 Side 1  free  transition at x/c =  0.8960   69
 Side 2  free  transition at x/c =  0.6191   63

   2   rms: 0.9933E-01   max: -.5503E+00   C at   63  2   RLX: 0.909
       a = -3.000      CL = -0.1407
      Cm = -0.0413     CD =  0.00898   =>   CDf =  0.00443    CDp =  0.00454

 MRCHDU: Convergence failed at  66  side 2    Res =  0.6361E+01
 MRCHDU: Convergence failed at  67  side 2    Res =  0.1578E+01
 MRCHDU: Convergence failed at  68  side 2    Res =  0.1415E+01
 MRCHDU: Convergence failed at  69  side 2    Res =  0.2082E+01
 MRCHDU: Convergence failed at  70  side 2    Res =  0.2634E+01
 MRCHDU: Convergence failed at  71  side 2    Res =  0.2891E+01
 MRCHDU: Convergence failed at  72  side 2    Res =  0.3156E+01
 MRCHDU: Convergence failed at  73  side 2    Res =  0.3318E+01
 MRCHDU: Convergence failed at  74  side 2    Res =  0.3407E+01
 MRCHDU: Convergence failed at  75  side 2    Res =  0.3443E+01
 MRCHDU: Convergence failed at  76  side 2    Res =  0.3443E+01
 MRCHDU: Convergence failed at  77  side 2    Res =  0.3414E+01
 MRCHDU: Convergence failed at  78  side 2    Res =  0.4000E+01
 MRCHDU: Convergence failed at  79  side 2    Res =  0.4859E+01
 MRCHDU: Convergence failed at  80  side 2    Res =  0.6026E+01
 MRCHDU: Convergence failed at  81  side 2    Res =  0.7069E+01
 MRCHDU: Convergence failed at  82  side 2    Res =  0.8520E+01
 MRCHDU: Convergence failed at  83  side 2    Res =  0.9458E+01
 MRCHDU: Convergence failed at  84  side 2    Res =  0.9655E+01
 MRCHDU: Convergence failed at  85  side 2    Res =  0.1590E+02
 Side 1  free  transition at x/c =  0.8913   70
 Side 2  free  transition at x/c =  0.7518   70

   3   rms: 0.2604E+00   max: 0.1345E+01   C at   70  2
       a = -3.000      CL = -0.1168
      Cm = -0.0441     CD =  0.00743   =>   CDf =  0.00376    CDp =  0.00367

 Side 1  free  transition at x/c =  0.8939   70
 Side 2  free  transition at x/c =  0.7189   68

   4   rms: 0.9862E-01   max: -.7569E+00   D at   72  2   RLX: 0.661
       a = -3.000      CL = -0.1316
      Cm = -0.0417     CD =  0.00881   =>   CDf =  0.00404    CDp =  0.00477

 Side 1  free  transition at x/c =  0.8924   70
 Side 2  free  transition at x/c =  0.7036   67

   5   rms: 0.3418E-01   max: -.3060E+00   D at   72  2
       a = -3.000      CL = -0.1328
      Cm = -0.0419     CD =  0.00892   =>   CDf =  0.00414    CDp =  0.00478

 Side 1  free  transition at x/c =  0.8919   70
 Side 2  free  transition at x/c =  0.6873   66

   6   rms: 0.7572E-02   max: -.1265E+00   D at   66  2
       a = -3.000      CL = -0.1325
      Cm = -0.0418     CD =  0.00902   =>   CDf =  0.00427    CDp =  0.00475

 Side 1  free  transition at x/c =  0.8919   70
 Side 2  free  transition at x/c =  0.6870   66

   7   rms: 0.5103E-03   max: 0.6676E-02   C at   66  2
       a = -3.000      CL = -0.1326
      Cm = -0.0418     CD =  0.00903   =>   CDf =  0.00424    CDp =  0.00478

 Side 1  free  transition at x/c =  0.8919   70
 Side 2  free  transition at x/c =  0.6868   66

   8   rms: 0.3801E-05   max: -.5496E-04   D at   68  2
       a = -3.000      CL = -0.1326
      Cm = -0.0418     CD =  0.00903   =>   CDf =  0.00424    CDp =  0.00478
 plradd ia,ip,cpol            3           0  5.71001973E-03

 Point added to stored polar  1
 Point written to save file  mh95_Re400k.base.pol                            
 Dump file unspecified or not available
 Calculating wake trajectory ...
 Calculating source influence matrix ...

 Solving BL system ...

 Side 1  free  transition at x/c =  0.8919   70
 Side 2  free  transition at x/c =  0.6868   66

   1   rms: 0.1223E+00   max: 0.6966E+00   D at   67  2   RLX: 0.986
       a = -2.500      CL = -0.0571
      Cm = -0.0449     CD =  0.00882   =>   CDf =  0.00425    CDp =  0.00457

 Side 1  free  transition at x/c =  0.8868   70
 Side 2  free  transition at x/c =  0.6981   66
 idif Ue xi dudx           1  0.11119884      2.73096561E-03   40.717773    
 Uenew xinew           2  1.06204133E-02  2.60829926E-04

   2   rms: 0.1791E+00   max: -.1368E+01   T at   66  2   RLX: 0.366
       a = -2.500      CL = -0.0733
      Cm = -0.0439     CD =  0.00896   =>   CDf =  0.00456    CDp =  0.00440

 Side 1  free  transition at x/c =  0.8784   69
 Side 2  free  transition at x/c =  0.7056   67

   3   rms: 0.8483E-01   max: -.6733E+00   D at   67  2   RLX: 0.743
       a = -2.500      CL = -0.0786
      Cm = -0.0414     CD =  0.00902   =>   CDf =  0.00443    CDp =  0.00459

 Side 1  free  transition at x/c =  0.8778   69
 Side 2  free  transition at x/c =  0.7223   68

   4   rms: 0.1023E-01   max: 0.1376E+00   D at   68  2
       a = -2.500      CL = -0.0765
      Cm = -0.0411     CD =  0.00887   =>   CDf =  0.00425    CDp =  0.00462

 Side 1  free  transition at x/c =  0.8782   69
 Side 2  free  transition at x/c =  0.7204   68

   5   rms: 0.2745E-02   max: 0.3186E-01   D at   68  2
       a = -2.500      CL = -0.0766
      Cm = -0.0410     CD =  0.00887   =>   CDf =  0.00424    CDp =  0.00463

 Side 1  free  transition at x/c =  0.8781   69
 Side 2  free  transition at x/c =  0.7195   68

   6   rms: 0.8668E-04   max: -.1342E-02   D at   70  2
       a = -2.500      CL = -0.0766
      Cm = -0.0410     CD =  0.00887   =>   CDf =  0.00425    CDp =  0.00462
 plradd ia,ip,cpol            4           0  5.71001973E-03

 Point added to stored polar  1
 Point written to save file  mh95_Re400k.base.pol                            
 Dump file unspecified or not available
 Calculating wake trajectory ...
 Calculating source influence matrix ...

 Solving BL system ...

 Side 1  free  transition at x/c =  0.8781   69
 Side 2  free  transition at x/c =  0.7195   68

   1   rms: 0.9782E-01   max: 0.3526E+00   D at   69  2
       a = -2.000      CL = -0.0012
      Cm = -0.0441     CD =  0.00861   =>   CDf =  0.00425    CDp =  0.00436

 Side 1  free  transition at x/c =  0.8691   69
 Side 2  free  transition at x/c =  0.7318   67

   2   rms: 0.4177E-01   max: -.3869E+00   D at   68  2
       a = -2.000      CL = -0.0275
      Cm = -0.0392     CD =  0.00885   =>   CDf =  0.00445    CDp =  0.00440

 MRCHDU: Convergence failed at  68  side 2    Res =  0.3419E+01
 MRCHDU: Convergence failed at  69  side 2    Res =  0.7861E+01
 MRCHDU: Convergence failed at  70  side 2    Res =  0.2588E+01
 MRCHDU: Convergence failed at  71  side 2    Res =  0.3682E+01
 MRCHDU: Convergence failed at  72  side 2    Res =  0.6069E+01
 MRCHDU: Convergence failed at  73  side 2    Res =  0.9045E+01
 MRCHDU: Convergence failed at  74  side 2    Res =  0.1153E+02
 MRCHDU: Convergence failed at  75  side 2    Res =  0.1248E+02
 MRCHDU: Convergence failed at  76  side 2    Res =  0.1226E+02
 MRCHDU: Convergence failed at  77  side 2    Res =  0.1128E+02
 MRCHDU: Convergence failed at  78  side 2    Res =  0.1034E+02
 MRCHDU: Convergence failed at  79  side 2    Res =  0.9652E+01
 MRCHDU: Convergence failed at  80  side 2    Res =  0.9104E+01
 MRCHDU: Convergence failed at  81  side 2    Res =  0.8764E+01
 MRCHDU: Convergence failed at  82  side 2    Res =  0.6977E+01
 MRCHDU: Convergence failed at  83  side 2    Res =  0.8800E+01
 MRCHDU: Convergence failed at  84  side 2    Res =  0.8109E+01
 Side 1  free  transition at x/c =  0.8587   69
 Side 2  free  transition at x/c =  0.7451   68

   3   rms: 0.2891E+00   max: 0.1411E+01   T at   84  2
       a = -2.000      CL =  0.0740
      Cm = -0.0576     CD =  0.00750   =>   CDf =  0.00384    CDp =  0.00366

 Side 1  free  transition at x/c =  0.8710   70
 Side 2  free  transition at x/c =  0.7205   66
 idif Ue xi dudx           1  0.11744653      2.57778168E-03   45.561085    
 Uenew xinew           2  1.09060593E-02  2.39372253E-04

   4   rms: 0.9758E-01   max: -.5696E+00   D at   68  2   RLX: 0.878
       a = -2.000      CL =  0.0067
      Cm = -0.0460     CD =  0.00886   =>   CDf =  0.00447    CDp =  0.00438

 Side 1  free  transition at x/c =  0.8658   69
 Side 2  free  transition at x/c =  0.7422   68

   5   rms: 0.2053E-01   max: 0.1107E+00   D at   68  2
       a = -2.000      CL = -0.0167
      Cm = -0.0411     CD =  0.00868   =>   CDf =  0.00427    CDp =  0.00442

 Side 1  free  transition at x/c =  0.8630   69
 Side 2  free  transition at x/c =  0.7389   68

   6   rms: 0.2087E-02   max: -.1680E-01   D at   71  2
       a = -2.000      CL = -0.0156
      Cm = -0.0413     CD =  0.00870   =>   CDf =  0.00430    CDp =  0.00440

 Side 1  free  transition at x/c =  0.8634   69
 Side 2  free  transition at x/c =  0.7385   68

   7   rms: 0.3794E-04   max: -.2813E-03   D at   68  2
       a = -2.000      CL = -0.0156
      Cm = -0.0413     CD =  0.00870   =>   CDf =  0.00430    CDp =  0.00440
 plradd ia,ip,cpol            5           0  5.71001973E-03

 Point added to stored polar  1
 Point written to save file  mh95_Re400k.base.pol                            
 Dump file unspecified or not available
 Calculating wake trajectory ...
 Calculating source influence matrix ...

 Solving BL system ...

 Side 1  free  transition at x/c =  0.8634   69
 Side 2  free  transition at x/c =  0.7385   68

   1   rms: 0.9024E-01   max: -.3208E+00   T at   68  2
       a = -1.500      CL =  0.0521
      Cm = -0.0429     CD =  0.00852   =>   CDf =  0.00430    CDp =  0.00423

 Side 1  free  transition at x/c =  0.8474   69
 Side 2  free  transition at x/c =  0.7500   67

   2   rms: 0.2975E-01   max: -.2825E+00   D at   68  2
       a = -1.500      CL =  0.0438
      Cm = -0.0416     CD =  0.00861   =>   CDf =  0.00448    CDp =  0.00413

 Side 1  free  transition at x/c =  0.8445   69
 Side 2  free  transition at x/c =  0.7594   68

   3   rms: 0.1941E-01   max: 0.2742E+00   D at   68  2
       a = -1.500      CL =  0.0453
      Cm = -0.0417     CD =  0.00851   =>   CDf =  0.00432    CDp =  0.00419

 Side 1  free  transition at x/c =  0.8453   69
 Side 2  free  transition at x/c =  0.7557   68

   4   rms: 0.3433E-02   max: -.3696E-01   D at   70  2
       a = -1.500      CL =  0.0454
      Cm = -0.0417     CD =  0.00856   =>   CDf =  0.00437    CDp =  0.00420

 Side 1  free  transition at x/c =  0.8453   69
 Side 2  free  transition at x/c =  0.7546   68

   5   rms: 0.1834E-03   max: -.2636E-02   D at   70  2
       a = -1.500      CL =  0.0454
      Cm = -0.0417     CD =  0.00856   =>   CDf =  0.00438    CDp =  0.00418

 Side 1  free  transition at x/c =  0.8453   69
 Side 2  free  transition at x/c =  0.7546   68

   6   rms: 0.1026E-05   max: -.1075E-04   D at   70  2
       a = -1.500      CL =  0.0454
      Cm = -0.0417     CD =  0.00856   =>   CDf =  0.00439    CDp =  0.00418
 plradd ia,ip,cpol            6           0  0.17366846    

 Point added to stored polar  1
 Point written to save file  mh95_Re400k.base.pol                            
 Dump file unspecified or not available
 Calculating wake trajectory ...
 Calculating source influence matrix ...

 Solving BL system ...

 Side 1  free  transition at x/c =  0.8453   69
 Side 2  free  transition at x/c =  0.7546   68

   1   rms: 0.9006E-01   max: -.3221E+00   T at   68  2
       a = -1.000      CL =  0.1123
      Cm = -0.0431     CD =  0.00844   =>   CDf =  0.00438    CDp =  0.00406

 Side 1  free  transition at x/c =  0.8261   69
 Side 2  free  transition at x/c =  0.7655   67

   2   rms: 0.2673E-01   max: -.2304E+00   D at   67  2
       a = -1.000      CL =  0.1050
      Cm = -0.0419     CD =  0.00852   =>   CDf =  0.00450    CDp =  0.00401

 Side 1  free  transition at x/c =  0.8235   69
 Side 2  free  transition at x/c =  0.7701   68

   3   rms: 0.3102E-02   max: 0.2482E-01   D at   68  2
       a = -1.000      CL =  0.1070
      Cm = -0.0422     CD =  0.00852   =>   CDf =  0.00452    CDp =  0.00400

 Side 1  free  transition at x/c =  0.8240   69
 Side 2  free  transition at x/c =  0.7696   67

   4   rms: 0.1122E-02   max: 0.1756E-01   D at   68  2
       a = -1.000      CL =  0.1070
      Cm = -0.0422     CD =  0.00852   =>   CDf =  0.00450    CDp =  0.00401

 Side 1  free  transition at x/c =  0.8241   69
 Side 2  free  transition at x/c =  0.7694   67

   5   rms: 0.3307E-04   max: 0.4451E-03   D at   68  2
       a = -1.000      CL =  0.1070
      Cm = -0.0422     CD =  0.00852   =>   CDf =  0.00450    CDp =  0.00402
 plradd ia,ip,cpol            7           0  0.15872593    

 Point added to stored polar  1
 Point written to save file  mh95_Re400k.base.pol                            
 Dump file unspecified or not available
 Calculating wake trajectory ...
 Calculating source influence matrix ...

 Solving BL system ...

 Side 1  free  transition at x/c =  0.8241   69
 Side 2  free  transition at x/c =  0.7694   67

   1   rms: 0.9731E-01   max: 0.4214E+00   C at   67  2
       a = -0.500      CL =  0.1797
      Cm = -0.0454     CD =  0.00846   =>   CDf =  0.00449    CDp =  0.00397

 MRCHDU: Convergence failed at  68  side 2    Res =  0.4440E+01
 MRCHDU: Convergence failed at  69  side 2    Res =  0.4926E+01
 MRCHDU: Convergence failed at  70  side 2    Res =  0.5237E+01
 MRCHDU: Convergence failed at  71  side 2    Res =  0.8982E+01
 MRCHDU: Convergence failed at  72  side 2    Res =  0.1299E+02
 MRCHDU: Convergence failed at  73  side 2    Res =  0.1567E+02
 MRCHDU: Convergence failed at  74  side 2    Res =  0.1642E+02
 MRCHDU: Convergence failed at  75  side 2    Res =  0.1602E+02
 MRCHDU: Convergence failed at  76  side 2    Res =  0.1515E+02
 MRCHDU: Convergence failed at  77  side 2    Res =  0.1431E+02
 MRCHDU: Convergence failed at  78  side 2    Res =  0.1362E+02
 MRCHDU: Convergence failed at  79  side 2    Res =  0.1321E+02
 MRCHDU: Convergence failed at  80  side 2    Res =  0.1335E+02
 MRCHDU: Convergence failed at  81  side 2    Res =  0.1172E+02
 Side 1  free  transition at x/c =  0.8036   68
 Side 2  free  transition at x/c =  0.7884   68

   2   rms: 0.3036E+00   max: 0.1471E+01   T at   71  2
       a = -0.500      CL =  0.3015
      Cm = -0.0687     CD =  0.00736   =>   CDf =  0.00417    CDp =  0.00319

 Side 1  free  transition at x/c =  0.8073   70
 Side 2  free  transition at x/c =  0.7627   65
 idif Ue xi dudx           1  0.17726280      3.27289104E-03   54.160923    
 Uenew xinew           2  6.49264157E-02  1.19876862E-03

   3   rms: 0.2149E+00   max: -.9479E+00   D at   70  2   RLX: 0.527
       a = -0.500      CL =  0.2018
      Cm = -0.0494     CD =  0.00996   =>   CDf =  0.00452    CDp =  0.00545

 Side 1  free  transition at x/c =  0.8028   68
 Side 2  free  transition at x/c =  0.7827   67
 idif Ue xi dudx           1  0.17061079      3.20994854E-03   53.150631    
 Uenew xinew           2  5.74172772E-02  1.08027458E-03

   4   rms: 0.2085E+00   max: -.9181E+00   D at   81  2   RLX: 0.545
       a = -0.500      CL =  0.0611
      Cm = -0.0181     CD =  0.00900   =>   CDf =  0.00457    CDp =  0.00443

 Side 1  free  transition at x/c =  0.7948   67
 Side 2  free  transition at x/c =  0.7862   68

   5   rms: 0.3984E-01   max: -.6502E+00   D at   82  2   RLX: 0.769
       a = -0.500      CL =  0.0621
      Cm = -0.0189     CD =  0.00841   =>   CDf =  0.00456    CDp =  0.00385

 Side 1  free  transition at x/c =  0.7938   67
 Side 2  free  transition at x/c =  0.7846   68

   6   rms: 0.6850E-01   max: -.3517E+00   D at   82  2
       a = -0.500      CL =  0.1424
      Cm = -0.0370     CD =  0.00849   =>   CDf =  0.00453    CDp =  0.00396

 Side 1  free  transition at x/c =  0.7972   68
 Side 2  free  transition at x/c =  0.7824   67

   7   rms: 0.1657E-01   max: -.7193E-01   D at   80  1
       a = -0.500      CL =  0.1618
      Cm = -0.0413     CD =  0.00858   =>   CDf =  0.00454    CDp =  0.00404

 Side 1  free  transition at x/c =  0.7973   68
 Side 2  free  transition at x/c =  0.7817   67

   8   rms: 0.3765E-03   max: -.3470E-02   D at   80  1
       a = -0.500      CL =  0.1618
      Cm = -0.0413     CD =  0.00858   =>   CDf =  0.00454    CDp =  0.00404

 Side 1  free  transition at x/c =  0.7973   68
 Side 2  free  transition at x/c =  0.7817   67

   9   rms: 0.1098E-05   max: -.7005E-05   D at   80  1
       a = -0.500      CL =  0.1618
      Cm = -0.0413     CD =  0.00858   =>   CDf =  0.00454    CDp =  0.00404
 plradd ia,ip,cpol            8           0  0.14434712    

 Point added to stored polar  1
 Point written to save file  mh95_Re400k.base.pol                            
 Dump file unspecified or not available
 Calculating wake trajectory ...
 Calculating source influence matrix ...

 Solving BL system ...

 Side 1  free  transition at x/c =  0.7973   68
 Side 2  free  transition at x/c =  0.7817   67

   1   rms: 0.7844E-01   max: -.2812E+00   T at   67  2
       a =  0.000      CL =  0.2153
      Cm = -0.0403     CD =  0.00865   =>   CDf =  0.00454    CDp =  0.00410

 Side 1  free  transition at x/c =  0.7659   66
 Side 2  free  transition at x/c =  0.7929   68

   2   rms: 0.1885E-01   max: -.3343E+00   D at   67  1
       a =  0.000      CL =  0.2185
      Cm = -0.0409     CD =  0.00864   =>   CDf =  0.00468    CDp =  0.00395

 Side 1  free  transition at x/c =  0.7703   67
 Side 2  free  transition at x/c =  0.7929   67

   3   rms: 0.3734E-02   max: 0.4615E-01   D at   68  1
       a =  0.000      CL =  0.2185
      Cm = -0.0409     CD =  0.00866   =>   CDf =  0.00467    CDp =  0.00399

 Side 1  free  transition at x/c =  0.7672   67
 Side 2  free  transition at x/c =  0.7929   67

   4   rms: 0.3415E-02   max: -.5059E-01   C at   67  1
       a =  0.000      CL =  0.2176
      Cm = -0.0407     CD =  0.00865   =>   CDf =  0.00469    CDp =  0.00396

 Side 1  free  transition at x/c =  0.7686   67
 Side 2  free  transition at x/c =  0.7930   67

   5   rms: 0.1031E-03   max: -.1003E-02   D at   69  1
       a =  0.000      CL =  0.2175
      Cm = -0.0407     CD =  0.00866   =>   CDf =  0.00467    CDp =  0.00398

 Side 1  free  transition at x/c =  0.7685   67
 Side 2  free  transition at x/c =  0.7930   67

   6   rms: 0.1019E-04   max: -.1277E-03   D at    4  1
       a =  0.000      CL =  0.2175
      Cm = -0.0407     CD =  0.00866   =>   CDf =  0.00467    CDp =  0.00398
 plradd ia,ip,cpol            9           0  0.13059781    

 Point added to stored polar  1
 Point written to save file  mh95_Re400k.base.pol                            
 Dump file unspecified or not available
 Calculating wake trajectory ...
 Calculating source influence matrix ...

 Solving BL system ...

 Side 1  free  transition at x/c =  0.7685   67
 Side 2  free  transition at x/c =  0.7930   67

   1   rms: 0.7302E-01   max: -.2662E+00   T at   67  2
       a =  0.500      CL =  0.2608
      Cm = -0.0375     CD =  0.00877   =>   CDf =  0.00468    CDp =  0.00409

 Side 1  free  transition at x/c =  0.7290   65
 Side 2  free  transition at x/c =  0.8016   67

   2   rms: 0.2887E-01   max: -.3806E+00   D at   66  1
       a =  0.500      CL =  0.2713
      Cm = -0.0398     CD =  0.00881   =>   CDf =  0.00488    CDp =  0.00393

 Side 1  free  transition at x/c =  0.7375   66
 Side 2  free  transition at x/c =  0.8041   67

   3   rms: 0.3360E-02   max: 0.3197E-01   D at   66  1
       a =  0.500      CL =  0.2694
      Cm = -0.0394     CD =  0.00881   =>   CDf =  0.00481    CDp =  0.00400

 Side 1  free  transition at x/c =  0.7357   66
 Side 2  free  transition at x/c =  0.8040   67

   4   rms: 0.2025E-03   max: 0.2618E-02   C at   66  1
       a =  0.500      CL =  0.2693
      Cm = -0.0394     CD =  0.00881   =>   CDf =  0.00481    CDp =  0.00399

 Side 1  free  transition at x/c =  0.7356   66
 Side 2  free  transition at x/c =  0.8040   67

   5   rms: 0.9571E-06   max: 0.7302E-05   C at   66  1
       a =  0.500      CL =  0.2693
      Cm = -0.0394     CD =  0.00881   =>   CDf =  0.00481    CDp =  0.00399
 plradd ia,ip,cpol           10           0  0.11754645    

 Point added to stored polar  1
 Point written to save file  mh95_Re400k.base.pol                            
 Dump file unspecified or not available
 Calculating wake trajectory ...
 Calculating source influence matrix ...

 Solving BL system ...

 Side 1  free  transition at x/c =  0.7356   66
 Side 2  free  transition at x/c =  0.8040   67

   1   rms: 0.8696E-01   max: 0.4904E+00   C at   66  1
       a =  1.000      CL =  0.3270
      Cm = -0.0396     CD =  0.00901   =>   CDf =  0.00479    CDp =  0.00423

 Side 1  free  transition at x/c =  0.7000   65
 Side 2  free  transition at x/c =  0.8184   67

   2   rms: 0.3479E-01   max: 0.3700E+00   D at   67  2
       a =  1.000      CL =  0.3176
      Cm = -0.0375     CD =  0.00893   =>   CDf =  0.00492    CDp =  0.00401

 Side 1  free  transition at x/c =  0.7011   65
 Side 2  free  transition at x/c =  0.8154   67

   3   rms: 0.6138E-02   max: 0.7056E-01   D at   68  2
       a =  1.000      CL =  0.3184
      Cm = -0.0375     CD =  0.00899   =>   CDf =  0.00491    CDp =  0.00409

 Side 1  free  transition at x/c =  0.7001   65
 Side 2  free  transition at x/c =  0.8135   67

   4   rms: 0.4180E-03   max: -.4289E-02   D at   67  2
       a =  1.000      CL =  0.3184
      Cm = -0.0375     CD =  0.00899   =>   CDf =  0.00493    CDp =  0.00406

 Side 1  free  transition at x/c =  0.7001   65
 Side 2  free  transition at x/c =  0.8135   67

   5   rms: 0.1145E-05   max: 0.9223E-05   D at   68  2
       a =  1.000      CL =  0.3184
      Cm = -0.0375     CD =  0.00899   =>   CDf =  0.00493    CDp =  0.00406
 plradd ia,ip,cpol           11           0  6.53185919E-02

 Point added to stored polar  1
 Point written to save file  mh95_Re400k.base.pol                            
 Dump file unspecified or not available
 Calculating wake trajectory ...
 Calculating source influence matrix ...

 Solving BL system ...

 Side 1  free  transition at x/c =  0.7001   65
 Side 2  free  transition at x/c =  0.8135   67

   1   rms: 0.8595E-01   max: 0.5743E+00   C at   65  1
       a =  1.500      CL =  0.3707
      Cm = -0.0362     CD =  0.00935   =>   CDf =  0.00490    CDp =  0.00445

 Side 1  free  transition at x/c =  0.6607   63
 Side 2  free  transition at x/c =  0.8214   66

   2   rms: 0.2852E-01   max: 0.2769E+00   D at   65  1
       a =  1.500      CL =  0.3649
      Cm = -0.0353     CD =  0.00926   =>   CDf =  0.00511    CDp =  0.00415

 Side 1  free  transition at x/c =  0.6627   63
 Side 2  free  transition at x/c =  0.8250   66

   3   rms: 0.2075E-02   max: 0.2971E-01   C at   63  1
       a =  1.500      CL =  0.3652
      Cm = -0.0354     CD =  0.00922   =>   CDf =  0.00510    CDp =  0.00412

 Side 1  free  transition at x/c =  0.6616   63
 Side 2  free  transition at x/c =  0.8248   66

   4   rms: 0.2661E-04   max: -.5106E-03   D at   65  1
       a =  1.500      CL =  0.3652
      Cm = -0.0354     CD =  0.00922   =>   CDf =  0.00511    CDp =  0.00411
 plradd ia,ip,cpol           12           0  5.76553792E-02

 Point added to stored polar  1
 Point written to save file  mh95_Re400k.base.pol                            
 Dump file unspecified or not available
 Calculating wake trajectory ...
 Calculating source influence matrix ...

 Solving BL system ...

 Side 1  free  transition at x/c =  0.6616   63
 Side 2  free  transition at x/c =  0.8248   66

   1   rms: 0.7756E-01   max: -.4001E+00   T at   66  2
       a =  2.000      CL =  0.4108
      Cm = -0.0334     CD =  0.00933   =>   CDf =  0.00511    CDp =  0.00422

 MRCHDU: Convergence failed at  68  side 2    Res =  0.7129E+01
 MRCHDU: Convergence failed at  69  side 2    Res =  0.1217E+02
 MRCHDU: Convergence failed at  70  side 2    Res =  0.1884E+02
 MRCHDU: Convergence failed at  71  side 2    Res =  0.1542E+02
 MRCHDU: Convergence failed at  72  side 2    Res =  0.1994E+02
 MRCHDU: Convergence failed at  73  side 2    Res =  0.3138E+02
 MRCHDU: Convergence failed at  74  side 2    Res =  0.6268E+02
 MRCHDU: Convergence failed at  75  side 2    Res =  0.4889E+03
 MRCHDU: Convergence failed at  76  side 2    Res =  0.1705E+03
 MRCHDU: Convergence failed at  77  side 2    Res =  0.1773E+03
 MRCHDU: Convergence failed at  78  side 2    Res =  0.3233E+02
 Side 1  free  transition at x/c =  0.6126   61
 Side 2  free  transition at x/c =  0.8406   67

   2   rms: 0.2987E+00   max: 0.2463E+01   T at   67  2   RLX: 0.350
       a =  2.000      CL =  0.4439
      Cm = -0.0243     CD =  0.00775   =>   CDf =  0.00508    CDp =  0.00267

 Side 1  free  transition at x/c =  0.6046   61
 Side 2  free  transition at x/c =  0.8144   65
 idif Ue xi dudx           1  0.14289521      2.18188763E-03   65.491554    
 Uenew xinew           2  4.35641874E-03  6.65187836E-05

   3   rms: 0.1599E+00   max: -.9265E+00   D at   76  2   RLX: 0.540
       a =  2.000      CL =  0.4139
      Cm = -0.0323     CD =  0.01313   =>   CDf =  0.00516    CDp =  0.00798

 Side 1  free  transition at x/c =  0.6149   61
 Side 2  free  transition at x/c =  0.8274   67

   4   rms: 0.1814E+00   max: -.1065E+01   D at   78  2   RLX: 0.469
       a =  2.000      CL =  0.3548
      Cm = -0.0213     CD =  0.01125   =>   CDf =  0.00506    CDp =  0.00619

 Side 1  free  transition at x/c =  0.6239   61
 Side 2  free  transition at x/c =  0.8345   67

   5   rms: 0.1497E+00   max: -.1109E+01   D at   78  2   RLX: 0.451
       a =  2.000      CL =  0.3539
      Cm = -0.0222     CD =  0.01014   =>   CDf =  0.00502    CDp =  0.00512

 Side 1  free  transition at x/c =  0.6259   61
 Side 2  free  transition at x/c =  0.8421   67

   6   rms: 0.8353E-01   max: -.5530E+00   D at   72  2   RLX: 0.904
       a =  2.000      CL =  0.3961
      Cm = -0.0302     CD =  0.00926   =>   CDf =  0.00507    CDp =  0.00418

 Side 1  free  transition at x/c =  0.6217   61
 Side 2  free  transition at x/c =  0.8372   67

   7   rms: 0.1811E-01   max: -.1739E+00   D at   72  2
       a =  2.000      CL =  0.4092
      Cm = -0.0325     CD =  0.00945   =>   CDf =  0.00517    CDp =  0.00428

 Side 1  free  transition at x/c =  0.6200   61
 Side 2  free  transition at x/c =  0.8329   67

   8   rms: 0.2352E-02   max: -.2646E-01   D at   72  2
       a =  2.000      CL =  0.4093
      Cm = -0.0325     CD =  0.00946   =>   CDf =  0.00521    CDp =  0.00425

 Side 1  free  transition at x/c =  0.6200   61
 Side 2  free  transition at x/c =  0.8330   67

   9   rms: 0.3025E-04   max: 0.4323E-03   D at   68  2
       a =  2.000      CL =  0.4092
      Cm = -0.0325     CD =  0.00946   =>   CDf =  0.00522    CDp =  0.00424
 plradd ia,ip,cpol           13           0  5.76553792E-02

 Point added to stored polar  1
 Point written to save file  mh95_Re400k.base.pol                            
 Dump file unspecified or not available
 Calculating wake trajectory ...
 Calculating source influence matrix ...

 Solving BL system ...

 Side 1  free  transition at x/c =  0.6200   61
 Side 2  free  transition at x/c =  0.8330   67

   1   rms: 0.7850E-01   max: 0.5888E+00   C at   61  1
       a =  2.500      CL =  0.4523
      Cm = -0.0296     CD =  0.00971   =>   CDf =  0.00517    CDp =  0.00455

 Side 1  free  transition at x/c =  0.5652   59
 Side 2  free  transition at x/c =  0.8410   66

   2   rms: 0.2521E-01   max: 0.2565E+00   D at   61  1
       a =  2.500      CL =  0.4502
      Cm = -0.0294     CD =  0.00976   =>   CDf =  0.00550    CDp =  0.00425

 Side 1  free  transition at x/c =  0.5733   60
 Side 2  free  transition at x/c =  0.8435   66

   3   rms: 0.3854E-02   max: -.3629E-01   D at   59  1
       a =  2.500      CL =  0.4508
      Cm = -0.0295     CD =  0.00977   =>   CDf =  0.00547    CDp =  0.00429

 Side 1  free  transition at x/c =  0.5725   59
 Side 2  free  transition at x/c =  0.8434   66

   4   rms: 0.2472E-03   max: -.3091E-02   D at   61  1
       a =  2.500      CL =  0.4509
      Cm = -0.0296     CD =  0.00976   =>   CDf =  0.00545    CDp =  0.00431

 Side 1  free  transition at x/c =  0.5723   59
 Side 2  free  transition at x/c =  0.8434   66

   5   rms: 0.1224E-05   max: -.1497E-04   C at   59  1
       a =  2.500      CL =  0.4509
      Cm = -0.0296     CD =  0.00976   =>   CDf =  0.00545    CDp =  0.00431
 plradd ia,ip,cpol           14           0  5.08107170E-02

 Point added to stored polar  1
 Point written to save file  mh95_Re400k.base.pol                            
 Dump file unspecified or not available
 Calculating wake trajectory ...
 Calculating source influence matrix ...

 Solving BL system ...

 Side 1  free  transition at x/c =  0.5723   59
 Side 2  free  transition at x/c =  0.8434   66

   1   rms: 0.8072E-01   max: 0.4192E+00   C at   59  1
       a =  3.000      CL =  0.4961
      Cm = -0.0277     CD =  0.00992   =>   CDf =  0.00539    CDp =  0.00453

 MRCHDU: Convergence failed at  67  side 2    Res =  0.8672E+01
 MRCHDU: Convergence failed at  68  side 2    Res =  0.9689E+01
 MRCHDU: Convergence failed at  69  side 2    Res =  0.2923E+02
 MRCHDU: Convergence failed at  70  side 2    Res =  0.1913E+02
 MRCHDU: Convergence failed at  71  side 2    Res =  0.2299E+02
 MRCHDU: Convergence failed at  72  side 2    Res =  0.3244E+02
 MRCHDU: Convergence failed at  73  side 2    Res =  0.5131E+02
 MRCHDU: Convergence failed at  74  side 2    Res =  0.8191E+02
 MRCHDU: Convergence failed at  75  side 2    Res =  0.6211E+02
 MRCHDU: Convergence failed at  76  side 2    Res =  0.5008E+02
 Side 1  free  transition at x/c =  0.5076   57
 Side 2  free  transition at x/c =  0.8581   66

   2   rms: 0.2610E+00   max: 0.2246E+01   T at   66  2   RLX: 0.403
       a =  3.000      CL =  0.5399
      Cm = -0.0245     CD =  0.00888   =>   CDf =  0.00554    CDp =  0.00334

 Side 1  free  transition at x/c =  0.4941   56
 Side 2  free  transition at x/c =  0.8312   65

   3   rms: 0.1763E+00   max: -.9654E+00   D at   75  2   RLX: 0.518
       a =  3.000      CL =  0.4881
      Cm = -0.0248     CD =  0.01370   =>   CDf =  0.00562    CDp =  0.00808

 Side 1  free  transition at x/c =  0.5135   57
 Side 2  free  transition at x/c =  0.8446   66
 idif Ue xi dudx           1  0.17117116      2.55835056E-03   66.906845    
 Uenew xinew           2  2.64959987E-02  3.96013260E-04

   4   rms: 0.1962E+00   max: -.1080E+01   D at   76  2   RLX: 0.463
[...]

 Side 1  free  transition at x/c =  0.0970   43
 Side 2 forced transition at x/c =  1.0000   65

   2   rms: 0.8825E-02   max: 0.2647E-01   T at   43  1
       a = 12.750      CL =  1.1855
      Cm =  0.0242     CD =  0.02721   =>   CDf =  0.00669    CDp =  0.02052

 Side 1  free  transition at x/c =  0.0966   43
 Side 2 forced transition at x/c =  1.0000   65

   3   rms: 0.3119E-03   max: 0.1818E-02   D at   75  2
       a = 12.750      CL =  1.1852
      Cm =  0.0242     CD =  0.02720   =>   CDf =  0.00669    CDp =  0.02051

 Side 1  free  transition at x/c =  0.0966   43
 Side 2 forced transition at x/c =  1.0000   65

   4   rms: 0.4239E-05   max: -.4452E-04   C at   65  2
       a = 12.750      CL =  1.1852
      Cm =  0.0242     CD =  0.02720   =>   CDf =  0.00669    CDp =  0.02051
 plradd ia,ip,cpol           41           0  1.91395376E-02

 Point added to stored polar  1
 Point written to save file  mh95_Re400k.base.pol                            
 Dump file unspecified or not available
 Calculating wake trajectory ...
 Calculating source influence matrix ...

 Solving BL system ...

 Side 1  free  transition at x/c =  0.0966   43
 Side 2 forced transition at x/c =  1.0000   65

   1   rms: 0.3281E-01   max: 0.1007E+00   T at   43  1   RLX: 0.707
       a = 13.000      CL =  1.1941
      Cm =  0.0250     CD =  0.02796   =>   CDf =  0.00669    CDp =  0.02127

 Side 1  free  transition at x/c =  0.0954   43
 Side 2 forced transition at x/c =  1.0000   65

   2   rms: 0.1007E-01   max: 0.3519E-01   T at   43  1
       a = 13.000      CL =  1.1967
      Cm =  0.0254     CD =  0.02835   =>   CDf =  0.00670    CDp =  0.02166

 Side 1  free  transition at x/c =  0.0947   43
 Side 2 forced transition at x/c =  1.0000   65

   3   rms: 0.5280E-03   max: 0.3065E-02   D at   75  2
       a = 13.000      CL =  1.1963
      Cm =  0.0255     CD =  0.02836   =>   CDf =  0.00671    CDp =  0.02165

 Side 1  free  transition at x/c =  0.0947   43
 Side 2 forced transition at x/c =  1.0000   65

   4   rms: 0.2739E-04   max: 0.1227E-03   D at   84  1
       a = 13.000      CL =  1.1963
      Cm =  0.0255     CD =  0.02836   =>   CDf =  0.00671    CDp =  0.02165
 plradd ia,ip,cpol           42           0  1.62617899E-02

 Point added to stored polar  1
 Point written to save file  mh95_Re400k.base.pol                            
 Dump file unspecified or not available
 Calculating wake trajectory ...
 Calculating source influence matrix ...

 Solving BL system ...

 Side 1  free  transition at x/c =  0.0947   43
 Side 2 forced transition at x/c =  1.0000   65

   1   rms: 0.3751E-01   max: 0.1233E+00   T at   43  1   RLX: 0.689
       a = 13.250      CL =  1.2054
      Cm =  0.0261     CD =  0.02930   =>   CDf =  0.00644    CDp =  0.02286

 Side 1  free  transition at x/c =  0.0934   43
 Side 2 forced transition at x/c =  1.0000   64

   2   rms: 0.1705E-01   max: 0.2274E+00   D at    2  1
       a = 13.250      CL =  1.2085
      Cm =  0.0265     CD =  0.02944   =>   CDf =  0.00669    CDp =  0.02275

 Side 1  free  transition at x/c =  0.0933   43
 Side 2 forced transition at x/c =  1.0000   64

   3   rms: 0.1048E-02   max: 0.1055E-01   D at    4  1
       a = 13.250      CL =  1.2090
      Cm =  0.0265     CD =  0.02940   =>   CDf =  0.00665    CDp =  0.02276

 Side 1  free  transition at x/c =  0.0932   43
 Side 2 forced transition at x/c =  1.0000   64

   4   rms: 0.1710E-04   max: 0.6365E-04   D at   81  1
       a = 13.250      CL =  1.2090
      Cm =  0.0265     CD =  0.02940   =>   CDf =  0.00665    CDp =  0.02276
 plradd ia,ip,cpol           43           0  1.62617899E-02

 Point added to stored polar  1
 Point written to save file  mh95_Re400k.base.pol                            
 Dump file unspecified or not available
 Calculating wake trajectory ...
 Calculating source influence matrix ...

 Solving BL system ...

 Side 1  free  transition at x/c =  0.0932   43
 Side 2 forced transition at x/c =  1.0000   64

   1   rms: 0.3097E-01   max: 0.9296E-01   T at   43  1   RLX: 0.674
       a = 13.500      CL =  1.2183
      Cm =  0.0271     CD =  0.03003   =>   CDf =  0.00665    CDp =  0.02338

 Side 1  free  transition at x/c =  0.0926   43
 Side 2 forced transition at x/c =  1.0000   64

   2   rms: 0.1003E-01   max: -.2967E-01   D at    4  2
       a = 13.500      CL =  1.2221
      Cm =  0.0274     CD =  0.03035   =>   CDf =  0.00658    CDp =  0.02377

 Side 1  free  transition at x/c =  0.0922   43
 Side 2 forced transition at x/c =  1.0000   64

   3   rms: 0.4004E-03   max: 0.2427E-02   D at   84  1
       a = 13.500      CL =  1.2217
      Cm =  0.0275     CD =  0.03034   =>   CDf =  0.00655    CDp =  0.02379

 Side 1  free  transition at x/c =  0.0922   43
 Side 2 forced transition at x/c =  1.0000   64

   4   rms: 0.4479E-05   max: 0.4905E-04   D at   75  2
       a = 13.500      CL =  1.2217
      Cm =  0.0275     CD =  0.03034   =>   CDf =  0.00655    CDp =  0.02378
 plradd ia,ip,cpol           44           0  1.36933792E-02

 Point added to stored polar  1
 Point written to save file  mh95_Re400k.base.pol                            
 Dump file unspecified or not available
 Calculating wake trajectory ...
 Calculating source influence matrix ...

 Solving BL system ...

 Side 1  free  transition at x/c =  0.0922   43
 Side 2 forced transition at x/c =  1.0000   64

   1   rms: 0.3183E-01   max: 0.1055E+00   D at    4  2   RLX: 0.658
       a = 13.750      CL =  1.2302
      Cm =  0.0280     CD =  0.03102   =>   CDf =  0.00656    CDp =  0.02446

 Side 1  free  transition at x/c =  0.0914   43
 Side 2 forced transition at x/c =  1.0000   64

   2   rms: 0.1091E-01   max: 0.4019E-01   D at    4  2
       a = 13.750      CL =  1.2342
      Cm =  0.0284     CD =  0.03137   =>   CDf =  0.00650    CDp =  0.02487

 Side 1  free  transition at x/c =  0.0910   43
 Side 2 forced transition at x/c =  1.0000   64

   3   rms: 0.4392E-03   max: 0.2528E-02   D at   75  2
       a = 13.750      CL =  1.2338
      Cm =  0.0284     CD =  0.03136   =>   CDf =  0.00647    CDp =  0.02488

 Side 1  free  transition at x/c =  0.0910   43
 Side 2 forced transition at x/c =  1.0000   64

   4   rms: 0.1048E-04   max: 0.8253E-04   D at   75  2
       a = 13.750      CL =  1.2338
      Cm =  0.0284     CD =  0.03135   =>   CDf =  0.00647    CDp =  0.02488
 plradd ia,ip,cpol           45           0  1.36933792E-02

 Point added to stored polar  1
 Point written to save file  mh95_Re400k.base.pol                            
 Dump file unspecified or not available
 Calculating wake trajectory ...
 Calculating source influence matrix ...

 Solving BL system ...

 Side 1  free  transition at x/c =  0.0910   43
 Side 2 forced transition at x/c =  1.0000   64

   1   rms: 0.3129E-01   max: 0.8604E-01   T at   43  1   RLX: 0.643
       a = 14.000      CL =  1.2420
      Cm =  0.0289     CD =  0.03206   =>   CDf =  0.00647    CDp =  0.02559

 Side 1  free  transition at x/c =  0.0901   43
 Side 2 forced transition at x/c =  1.0000   64

   2   rms: 0.1093E-01   max: 0.2887E-01   D at   83  1
       a = 14.000      CL =  1.2456
      Cm =  0.0293     CD =  0.03246   =>   CDf =  0.00643    CDp =  0.02603

 Side 1  free  transition at x/c =  0.0897   43
 Side 2 forced transition at x/c =  1.0000   64

   3   rms: 0.4537E-03   max: 0.3439E-02   D at   75  2
       a = 14.000      CL =  1.2452
      Cm =  0.0293     CD =  0.03243   =>   CDf =  0.00640    CDp =  0.02603

 Side 1  free  transition at x/c =  0.0897   43
 Side 2 forced transition at x/c =  1.0000   64

   4   rms: 0.1530E-04   max: -.5510E-04   D at   81  1
       a = 14.000      CL =  1.2452
      Cm =  0.0293     CD =  0.03243   =>   CDf =  0.00640    CDp =  0.02603
 plradd ia,ip,cpol           46           0  1.36933792E-02

 Point added to stored polar  1
 Point written to save file  mh95_Re400k.base.pol                            
 Dump file unspecified or not available
 Calculating wake trajectory ...
 Calculating source influence matrix ...

 Solving BL system ...

 Side 1  free  transition at x/c =  0.0897   43
 Side 2 forced transition at x/c =  1.0000   64

   1   rms: 0.3063E-01   max: 0.8452E-01   T at   43  1   RLX: 0.627
       a = 14.250      CL =  1.2528
      Cm =  0.0298     CD =  0.03316   =>   CDf =  0.00640    CDp =  0.02676

 Side 1  free  transition at x/c =  0.0889   43
 Side 2 forced transition at x/c =  1.0000   64

   2   rms: 0.1113E-01   max: 0.2986E-01   T at   43  1
       a = 14.250      CL =  1.2567
      Cm =  0.0301     CD =  0.03357   =>   CDf =  0.00607    CDp =  0.02751

 Side 1  free  transition at x/c =  0.0884   44
 Side 2 forced transition at x/c =  1.0000   63

   3   rms: 0.4374E-02   max: -.7571E-01   T at    2  1
       a = 14.250      CL =  1.2563
      Cm =  0.0302     CD =  0.03356   =>   CDf =  0.00634    CDp =  0.02722

 Side 1  free  transition at x/c =  0.0884   44
 Side 2 forced transition at x/c =  1.0000   63

   4   rms: 0.8677E-03   max: -.1176E-01   D at    4  1
       a = 14.250      CL =  1.2563
      Cm =  0.0302     CD =  0.03355   =>   CDf =  0.00634    CDp =  0.02722

 Side 1  free  transition at x/c =  0.0884   44
 Side 2 forced transition at x/c =  1.0000   63

   5   rms: 0.6784E-05   max: 0.7255E-04   D at    4  1
       a = 14.250      CL =  1.2563
      Cm =  0.0302     CD =  0.03355   =>   CDf =  0.00634    CDp =  0.02722
 plradd ia,ip,cpol           47           0  1.36933792E-02

 Point added to stored polar  1
 Point written to save file  mh95_Re400k.base.pol                            
 Dump file unspecified or not available
 Calculating wake trajectory ...
 Calculating source influence matrix ...

 Solving BL system ...

 Side 1  free  transition at x/c =  0.0884   44
 Side 2 forced transition at x/c =  1.0000   63

   1   rms: 0.3057E-01   max: 0.9605E-01   T at   44  1   RLX: 0.612
       a = 14.500      CL =  1.2631
      Cm =  0.0306     CD =  0.03431   =>   CDf =  0.00634    CDp =  0.02797

 Side 1  free  transition at x/c =  0.0876   44
 Side 2 forced transition at x/c =  1.0000   63

   2   rms: 0.1148E-01   max: 0.3523E-01   T at   44  1
       a = 14.500      CL =  1.2667
      Cm =  0.0310     CD =  0.03478   =>   CDf =  0.00631    CDp =  0.02847

 Side 1  free  transition at x/c =  0.0871   44
 Side 2 forced transition at x/c =  1.0000   63

   3   rms: 0.4201E-03   max: -.2741E-02   D at   44  1
       a = 14.500      CL =  1.2664
      Cm =  0.0310     CD =  0.03475   =>   CDf =  0.00629    CDp =  0.02846

 Side 1  free  transition at x/c =  0.0871   44
 Side 2 forced transition at x/c =  1.0000   63

   4   rms: 0.2858E-04   max: -.1005E-03   D at   80  1
       a = 14.500      CL =  1.2664
      Cm =  0.0310     CD =  0.03475   =>   CDf =  0.00629    CDp =  0.02845
 plradd ia,ip,cpol           48           0  1.36933792E-02

 Point added to stored polar  1
 Point written to save file  mh95_Re400k.base.pol                            
 Dump file unspecified or not available
 Calculating wake trajectory ...
 Calculating source influence matrix ...

 Solving BL system ...

 Side 1  free  transition at x/c =  0.0871   44
 Side 2 forced transition at x/c =  1.0000   63

   1   rms: 0.3103E-01   max: 0.9793E-01   T at   44  1   RLX: 0.598
       a = 14.750      CL =  1.2731
      Cm =  0.0314     CD =  0.03552   =>   CDf =  0.00630    CDp =  0.02923

 Side 1  free  transition at x/c =  0.0864   44
 Side 2 forced transition at x/c =  1.0000   63

   2   rms: 0.1220E-01   max: 0.3833E-01   T at   44  1
       a = 14.750      CL =  1.2768
      Cm =  0.0317     CD =  0.03604   =>   CDf =  0.00628    CDp =  0.02977

 Side 1  free  transition at x/c =  0.0859   44
 Side 2 forced transition at x/c =  1.0000   63

   3   rms: 0.4627E-03   max: 0.3274E-02   D at   75  2
       a = 14.750      CL =  1.2764
      Cm =  0.0317     CD =  0.03602   =>   CDf =  0.00626    CDp =  0.02976

 Side 1  free  transition at x/c =  0.0859   44
 Side 2 forced transition at x/c =  1.0000   63

   4   rms: 0.5704E-05   max: 0.3378E-04   D at   75  2
       a = 14.750      CL =  1.2764
      Cm =  0.0317     CD =  0.03602   =>   CDf =  0.00626    CDp =  0.02976
 plradd ia,ip,cpol           49           0  1.14107691E-02

 Point added to stored polar  1
 Point written to save file  mh95_Re400k.base.pol                            
 Dump file unspecified or not available
 Calculating wake trajectory ...
 Calculating source influence matrix ...

 Solving BL system ...

 Side 1  free  transition at x/c =  0.0859   44
 Side 2 forced transition at x/c =  1.0000   63

   1   rms: 0.3111E-01   max: 0.1156E+00   T at   44  1   RLX: 0.584
       a = 15.000      CL =  1.2825
      Cm =  0.0321     CD =  0.03685   =>   CDf =  0.00626    CDp =  0.03058

 Side 1  free  transition at x/c =  0.0852   44
 Side 2 forced transition at x/c =  1.0000   63

   2   rms: 0.1393E-01   max: 0.5785E-01   T at   44  1
       a = 15.000      CL =  1.2876
      Cm =  0.0324     CD =  0.03737   =>   CDf =  0.00626    CDp =  0.03111

 Side 1  free  transition at x/c =  0.0845   44
 Side 2 forced transition at x/c =  1.0000   63

   3   rms: 0.8635E-03   max: 0.5827E-02   T at   44  1
       a = 15.000      CL =  1.2875
      Cm =  0.0324     CD =  0.03735   =>   CDf =  0.00627    CDp =  0.03108

 Side 1  free  transition at x/c =  0.0844   44
 Side 2 forced transition at x/c =  1.0000   63

   4   rms: 0.5175E-04   max: 0.2577E-03   D at   82  1
       a = 15.000      CL =  1.2875
      Cm =  0.0324     CD =  0.03735   =>   CDf =  0.00627    CDp =  0.03108
 plradd ia,ip,cpol           50           0  9.38810315E-03

 Point added to stored polar  1
 Point written to save file  mh95_Re400k.base.pol                            
 Dump file unspecified or not available
 Calculating wake trajectory ...
 Calculating source influence matrix ...

 Solving BL system ...

 Side 1  free  transition at x/c =  0.0844   44
 Side 2 forced transition at x/c =  1.0000   63

   1   rms: 0.3596E-01   max: 0.1310E+00   T at   44  1   RLX: 0.575
       a = 15.250      CL =  1.2967
      Cm =  0.0327     CD =  0.03811   =>   CDf =  0.00628    CDp =  0.03183

 Side 1  free  transition at x/c =  0.0834   44
 Side 2 forced transition at x/c =  1.0000   63

   2   rms: 0.3187E-01   max: 0.1142E+00   T at   44  1
       a = 15.250      CL =  1.3099
      Cm =  0.0328     CD =  0.03879   =>   CDf =  0.00628    CDp =  0.03251

 Side 1  free  transition at x/c =  0.0822   43
 Side 2 forced transition at x/c =  1.0000   63

   3   rms: 0.2458E-01   max: -.1970E+00   D at   43  1
       a = 15.250      CL =  1.2971
      Cm =  0.0332     CD =  0.03894   =>   CDf =  0.00622    CDp =  0.03273

 Side 1  free  transition at x/c =  0.0831   43
 Side 2 forced transition at x/c =  1.0000   63

   4   rms: 0.1928E-02   max: 0.2361E-01   D at   82  1
       a = 15.250      CL =  1.2987
      Cm =  0.0331     CD =  0.03876   =>   CDf =  0.00622    CDp =  0.03254

 Side 1  free  transition at x/c =  0.0830   43
 Side 2 forced transition at x/c =  1.0000   63

   5   rms: 0.4583E-04   max: -.4099E-03   D at   82  1
       a = 15.250      CL =  1.2988
      Cm =  0.0331     CD =  0.03876   =>   CDf =  0.00622    CDp =  0.03254
 plradd ia,ip,cpol           51           0  1.14107691E-02

 Point added to stored polar  1
 Point written to save file  mh95_Re400k.base.pol                            
 Dump file unspecified or not available
 Calculating wake trajectory ...
 Calculating source influence matrix ...

 Solving BL system ...

 Side 1  free  transition at x/c =  0.0830   43
 Side 2 forced transition at x/c =  1.0000   63

   1   rms: 0.2924E-01   max: 0.9196E-01   T at   43  1   RLX: 0.559
       a = 15.500      CL =  1.3036
      Cm =  0.0334     CD =  0.03961   =>   CDf =  0.00622    CDp =  0.03338

 Side 1  free  transition at x/c =  0.0826   43
 Side 2 forced transition at x/c =  1.0000   63

   2   rms: 0.1376E-01   max: -.9631E-01   D at    3  2
       a = 15.500      CL =  1.3068
      Cm =  0.0337     CD =  0.04026   =>   CDf =  0.00583    CDp =  0.03443

 Side 1  free  transition at x/c =  0.0823   44
 Side 2 forced transition at x/c =  1.0000   62

   3   rms: 0.1300E-02   max: -.1151E-01   D at    2  1
       a = 15.500      CL =  1.3063
      Cm =  0.0337     CD =  0.04023   =>   CDf =  0.00610    CDp =  0.03413

 Side 1  free  transition at x/c =  0.0823   44
 Side 2 forced transition at x/c =  1.0000   62

   4   rms: 0.5782E-03   max: -.7202E-02   D at    4  1
       a = 15.500      CL =  1.3062
      Cm =  0.0337     CD =  0.04022   =>   CDf =  0.00610    CDp =  0.03412

 Side 1  free  transition at x/c =  0.0823   44
 Side 2 forced transition at x/c =  1.0000   62

   5   rms: 0.1083E-05   max: -.8089E-05   C at   62  2
       a = 15.500      CL =  1.3062
      Cm =  0.0337     CD =  0.04022   =>   CDf =  0.00610    CDp =  0.03412
 plradd ia,ip,cpol           52           0  1.14107691E-02

 Point added to stored polar  1
 Point written to save file  mh95_Re400k.base.pol                            
 Dump file unspecified or not available
 Calculating wake trajectory ...
 Calculating source influence matrix ...

 Solving BL system ...

 Side 1  free  transition at x/c =  0.0823   44
 Side 2 forced transition at x/c =  1.0000   62

   1   rms: 0.2931E-01   max: 0.9865E-01   T at   44  1   RLX: 0.545
       a = 15.750      CL =  1.3104
      Cm =  0.0340     CD =  0.04114   =>   CDf =  0.00610    CDp =  0.03503

 Side 1  free  transition at x/c =  0.0818   44
 Side 2 forced transition at x/c =  1.0000   62

   2   rms: 0.1349E-01   max: 0.4378E-01   D at   81  1
       a = 15.750      CL =  1.3133
      Cm =  0.0342     CD =  0.04189   =>   CDf =  0.00603    CDp =  0.03586

 Side 1  free  transition at x/c =  0.0813   44
 Side 2 forced transition at x/c =  1.0000   62

   3   rms: 0.7840E-03   max: 0.4968E-02   D at   75  2
       a = 15.750      CL =  1.3126
      Cm =  0.0343     CD =  0.04184   =>   CDf =  0.00598    CDp =  0.03586

 Side 1  free  transition at x/c =  0.0813   44
 Side 2 forced transition at x/c =  1.0000   62

   4   rms: 0.1618E-04   max: 0.9882E-04   D at   75  2
       a = 15.750      CL =  1.3126
      Cm =  0.0343     CD =  0.04184   =>   CDf =  0.00598    CDp =  0.03586
 plradd ia,ip,cpol           53           0  1.14107691E-02

 Point added to stored polar  1
 Point written to save file  mh95_Re400k.base.pol                            
 Dump file unspecified or not available
 Calculating wake trajectory ...
 Calculating source influence matrix ...

 Solving BL system ...

 Side 1  free  transition at x/c =  0.0813   44
 Side 2 forced transition at x/c =  1.0000   62

   1   rms: 0.2942E-01   max: 0.8263E-01   T at   44  1   RLX: 0.531
       a = 16.000      CL =  1.3170
      Cm =  0.0345     CD =  0.04277   =>   CDf =  0.00598    CDp =  0.03678

 Side 1  free  transition at x/c =  0.0807   44
 Side 2 forced transition at x/c =  1.0000   62

   2   rms: 0.1366E-01   max: 0.4122E-01   D at   80  1
       a = 16.000      CL =  1.3197
      Cm =  0.0347     CD =  0.04357   =>   CDf =  0.00593    CDp =  0.03765

 Side 1  free  transition at x/c =  0.0802   44
 Side 2 forced transition at x/c =  1.0000   62

   3   rms: 0.8431E-03   max: 0.5689E-02   D at   75  2
       a = 16.000      CL =  1.3191
      Cm =  0.0347     CD =  0.04351   =>   CDf =  0.00588    CDp =  0.03764

 Side 1  free  transition at x/c =  0.0802   44
 Side 2 forced transition at x/c =  1.0000   62

   4   rms: 0.2789E-04   max: 0.2801E-03   D at   75  2
       a = 16.000      CL =  1.3191
      Cm =  0.0347     CD =  0.04351   =>   CDf =  0.00588    CDp =  0.03763
 plradd ia,ip,cpol           54           0  9.38810315E-03

 Point added to stored polar  1
 Point written to save file  mh95_Re400k.base.pol                            
 Dump file unspecified or not available

.OPERva   c>  
 Polar accumulation disabled

.OPERv   c>  
 XFOIL   c>  
 XFOIL   c>  