  
       XFOIL         Version 6.99
  
 Calculated polar for: MI-VAWT1                                        
  
 1 1 Reynolds number fixed          Mach number fixed         
  
 xtrf =   1.000 (top)        1.000 (bottom)  
 Mach =   0.000     Re =     0.200 e 6     Ncrit =   9.000
  
   alpha    CL        CD       CDp       CM     Top_Xtr  Bot_Xtr
  ------ -------- --------- --------- -------- -------- --------
-4.000  -0.4136   0.01672   0.01015  -0.0101   0.7736   0.5052
-3.500  -0.3531   0.01676   0.01025  -0.0107   0.7627   0.5467
-3.000  -0.2954   0.01695   0.01053  -0.0101   0.7507   0.5777
-2.500  -0.2351   0.01714   0.01075  -0.0103   0.7377   0.6040
-2.000  -0.1772   0.01740   0.01095  -0.0097   0.7274   0.6255
-1.500  -0.1152   0.01754   0.01110  -0.0105   0.7143   0.6451
-1.000  -0.0582   0.01775   0.01126  -0.0094   0.7041   0.6604
-0.500   0.0029   0.01778   0.01136  -0.0100   0.6893   0.6747
0.000   0.0617   0.01783   0.01129  -0.0096   0.6778   0.6891
0.500   0.1215   0.01772   0.01127  -0.0097   0.6615   0.7008
1.000   0.1815   0.01764   0.01115  -0.0098   0.6453   0.7135
1.500   0.2405   0.01736   0.01076  -0.0095   0.6284   0.7240
2.000   0.2993   0.01722   0.01065  -0.0091   0.6060   0.7360
2.500   0.3602   0.01697   0.01031  -0.0097   0.5798   0.7477
3.000   0.4174   0.01691   0.01031  -0.0091   0.5446   0.7594
3.500   0.4798   0.01686   0.01005  -0.0104   0.5005   0.7709
4.000   0.5356   0.01705   0.00999  -0.0102   0.4530   0.7787
4.500   0.5943   0.01752   0.01023  -0.0111   0.4134   0.7880
5.000   0.6537   0.01805   0.01056  -0.0125   0.3832   0.7970
5.500   0.7086   0.01857   0.01101  -0.0126   0.3580   0.8049
6.000   0.7661   0.01920   0.01155  -0.0136   0.3358   0.8156
6.500   0.8201   0.01978   0.01209  -0.0138   0.3160   0.8243
7.000   0.8733   0.02045   0.01273  -0.0139   0.2968   0.8347
7.500   0.9247   0.02116   0.01341  -0.0138   0.2785   0.8459
8.000   0.9739   0.02196   0.01419  -0.0134   0.2610   0.8580
8.500   1.0193   0.02279   0.01501  -0.0124   0.2445   0.8700
9.000   1.0627   0.02374   0.01596  -0.0112   0.2293   0.8844
9.500   1.0999   0.02473   0.01694  -0.0090   0.2158   0.9015
10.000   1.1307   0.02570   0.01794  -0.0057   0.2043   0.9212
10.250   1.1448   0.02625   0.01857  -0.0039   0.1992   0.9335
10.500   1.1551   0.02672   0.01911  -0.0016   0.1947   0.9494
11.000   1.1881   0.02811   0.02053  -0.0003   0.1860   1.0000
11.250   1.2086   0.02910   0.02154  -0.0010   0.1813   1.0000
11.500   1.2332   0.03002   0.02231  -0.0018   0.1771   1.0000
11.750   1.2494   0.03121   0.02363  -0.0021   0.1732   1.0000
12.000   1.2669   0.03231   0.02476  -0.0023   0.1692   1.0000
12.250   1.2876   0.03328   0.02560  -0.0026   0.1656   1.0000
12.500   1.3010   0.03462   0.02705  -0.0024   0.1621   1.0000
12.750   1.3145   0.03591   0.02839  -0.0023   0.1586   1.0000
13.000   1.3305   0.03705   0.02949  -0.0022   0.1555   1.0000
13.250   1.3460   0.03831   0.03074  -0.0020   0.1524   1.0000
13.500   1.3550   0.03993   0.03248  -0.0017   0.1494   1.0000
13.750   1.3674   0.04130   0.03388  -0.0014   0.1465   1.0000
14.000   1.3852   0.04235   0.03482  -0.0012   0.1438   1.0000
14.250   1.3924   0.04420   0.03680  -0.0009   0.1412   1.0000
14.500   1.3987   0.04609   0.03881  -0.0006   0.1385   1.0000
14.750   1.4092   0.04764   0.04037  -0.0004   0.1359   1.0000
15.000   1.4278   0.04861   0.04120  -0.0002   0.1333   1.0000
15.250   1.4248   0.05134   0.04417  -0.0000   0.1309   1.0000
15.500   1.4280   0.05358   0.04652   0.0000   0.1283   1.0000
15.750   1.4374   0.05526   0.04818   0.0001   0.1259   1.0000
16.000   1.4485   0.05686   0.04974   0.0003   0.1235   1.0000
16.250   1.4421   0.06014   0.05324   0.0000   0.1212   1.0000
16.500   1.4439   0.06270   0.05588  -0.0002   0.1187   1.0000
16.750   1.4557   0.06422   0.05732  -0.0002   0.1164   1.0000
17.000   1.4559   0.06710   0.06031  -0.0006   0.1142   1.0000
17.250   1.4480   0.07104   0.06444  -0.0015   0.1119   1.0000
17.500   1.4506   0.07375   0.06718  -0.0021   0.1096   1.0000
17.750   1.4709   0.07423   0.06748  -0.0016   0.1073   1.0000
18.000   1.4492   0.08015   0.07374  -0.0036   0.1053   1.0000
18.250   1.4405   0.08456   0.07829  -0.0052   0.1030   1.0000
18.750   1.4495   0.08978   0.08351  -0.0066   0.0988   1.0000
19.250   1.4207   0.10086   0.09495  -0.0115   0.0945   1.0000
19.750   1.4085   0.10974   0.10400  -0.0156   0.0907   1.0000
20.250   1.3923   0.11961   0.11407  -0.0208   0.0868   1.0000
20.750   1.3370   0.13680   0.13169  -0.0310   0.0833   1.0000
21.250   1.3262   0.14653   0.14154  -0.0372   0.0801   1.0000
21.750   0.5680   0.22387   0.22047  -0.0558   0.0863   1.0000
22.250   0.5690   0.23056   0.22718  -0.0596   0.0833   1.0000
