
 ===================================================
  XFOIL Version 6.99
  Copyright (C) 2000   Mark Drela, Harold Youngren

  This software comes with ABSOLUTELY NO WARRANTY,
    subject to the GNU General Public License.

  Caveat computor
 ===================================================

 File  xfoil.def  not found

   QUIT    Exit program

  .OPER    Direct operating point(s)
  .MDES    Complex mapping design routine
  .QDES    Surface speed design routine
  .GDES    Geometry design routine

   SAVE f  Write airfoil to labeled coordinate file
   PSAV f  Write airfoil to plain coordinate file
   ISAV f  Write airfoil to ISES coordinate file
   MSAV f  Write airfoil to MSES coordinate file
   REVE    Reverse written-airfoil node ordering

   LOAD f  Read buffer airfoil from coordinate file
   NACA i  Set NACA 4,5-digit airfoil and buffer airfoil
   INTE    Set buffer airfoil by interpolating two airfoils
   NORM    Buffer airfoil normalization toggle
   XYCM rr Change CM reference location, currently  0.25000 0.00000

   BEND    Display structural properties of current airfoil

   PCOP    Set current-airfoil panel nodes directly from buffer airfoil points
   PANE    Set current-airfoil panel nodes ( 160 ) based on curvature
  .PPAR    Show/change paneling

  .PLOP    Plotting options

   WDEF f  Write  current-settings file
   RDEF f  Reread current-settings file
   NAME s  Specify new airfoil name
   NINC    Increment name version number

   Z       Zoom    | (available in all menus)
   U       Unzoom  | 

 XFOIL   c>  
 Labeled airfoil file.  Name:  MI-VAWT1                                        

 Number of input coordinate points: 260
 Counterclockwise ordering
 Max thickness =     0.210000  at x =   0.308
 Max camber    =     0.003391  at x =   0.258

  LE  x,y  =  -0.00000   0.00087  |   Chord =   0.99999
  TE  x,y  =   0.99999  -0.00029  |

 Current airfoil nodes set from buffer airfoil nodes ( 260 )

 XFOIL   c>  
 XFOIL   c>  
 Blunt trailing edge.  Gap =  0.01976

 Paneling parameters used...
   Number of panel nodes       160
   Panel bunching parameter    1.000
   TE/LE panel density ratio   0.150
   Refined-area/LE panel density ratio    0.200
   Top    side refined area x/c limits  1.000 1.000
   Bottom side refined area x/c limits  1.000 1.000

 XFOIL   c>  
.OPERi   c>  
 Xtr/c     =  1.0000    top    side
 Xtr/c     =  1.0000    bottom side
 Ncrit     =    9.00   ( 0.070 % turb. level )
 Vacc      =  0.0100

 Klag  =  5.6000     Uxwt  =    1.00
 A     =  6.7000     B     =  0.7500       KCt = 0.01485
 CtiniK=  1.8000     CtiniX=  3.3000

..VPAR   c>  
..VPAR   c>  
.OPERi   c>  
 M  =    0.0000
 Re =    500000

.OPERv   c>  
.OPERv   c>  
.OPERv   c>  
 Polar  1 newly created for accumulation
 Airfoil archived with polar: MI-VAWT1                                        

Enter  polar save filename  OR  <return> for no file   s>  
 New polar save file available

Enter  polar dump filename  OR  <return> for no file   s>  
 Polar dump file will NOT be written

 Polar accumulation enabled

.OPERva   c>   Calculating unit vorticity distributions ...
 Calculating wake trajectory ...
 Calculating source influence matrix ...

 Solving BL system ...

 Initializing BL ...
    side            1  ...
 MRCHUE: Inverse mode at  32     Hk =   3.850
 MRCHUE: Inverse mode at  39     Hk =   3.833
 MRCHUE: Inverse mode at  40     Hk =   4.755
 MRCHUE: Inverse mode at  41     Hk =   5.643
 MRCHUE: Inverse mode at  42     Hk =   6.513
 MRCHUE: Inverse mode at  43     Hk =   7.372
 MRCHUE: Inverse mode at  44     Hk =   8.227
 MRCHUE: Inverse mode at  45     Hk =   8.697
 MRCHUE: Inverse mode at  46     Hk =   4.598
 MRCHUE: Inverse mode at  47     Hk =   2.665
 MRCHUE: Inverse mode at  87     Hk =   2.500
 MRCHUE: Inverse mode at  88     Hk =   2.500
 MRCHUE: Inverse mode at  89     Hk =   2.500
 MRCHUE: Inverse mode at  90     Hk =   2.500
 MRCHUE: Inverse mode at  91     Hk =   2.500
 MRCHUE: Inverse mode at  92     Hk =   2.500
 MRCHUE: Inverse mode at  93     Hk =   2.500
 MRCHUE: Inverse mode at  94     Hk =   2.500
 MRCHUE: Inverse mode at  95     Hk =   2.500
 MRCHUE: Inverse mode at  96     Hk =   2.500
 MRCHUE: Convergence failed at  97  side 1    Res =  0.5065E+01
 MRCHUE: Inverse mode at  98     Hk =   2.500
 MRCHUE: Inverse mode at  99     Hk =   2.500
 MRCHUE: Inverse mode at 100     Hk =   2.500
 MRCHUE: Inverse mode at 101     Hk =   2.500
 MRCHUE: Inverse mode at 102     Hk =   2.500
 MRCHUE: Inverse mode at 103     Hk =   2.500
 MRCHUE: Inverse mode at 104     Hk =   2.500
 MRCHUE: Inverse mode at 105     Hk =   2.500
 MRCHUE: Convergence failed at 106  side 1    Res =  0.4685E+01
    side            2  ...
 MRCHUE: Inverse mode at  42     Hk =   3.962
 MRCHUE: Inverse mode at  43     Hk =   4.896
 MRCHUE: Inverse mode at  44     Hk =   5.759
 MRCHUE: Inverse mode at  45     Hk =   6.554
 MRCHUE: Inverse mode at  46     Hk =   7.276
 MRCHUE: Inverse mode at  47     Hk =   7.932
 MRCHUE: Inverse mode at  48     Hk =   8.535
 MRCHUE: Inverse mode at  49     Hk =   9.090
 MRCHUE: Inverse mode at  50     Hk =   6.975
 MRCHUE: Inverse mode at  51     Hk =   5.473
 MRCHUE: Inverse mode at  52     Hk =   4.483
 MRCHUE: Inverse mode at  53     Hk =   3.757
 MRCHUE: Inverse mode at  54     Hk =   3.196
 MRCHUE: Inverse mode at  58     Hk =   2.328
 MRCHUE: Inverse mode at  59     Hk =   2.292
 MRCHUE: Inverse mode at  60     Hk =   2.254

 MRCHDU: Convergence failed at  97  side 1    Res =  0.1316E+01
 MRCHDU: Convergence failed at  98  side 1    Res =  0.1405E+01
 MRCHDU: Convergence failed at  99  side 1    Res =  0.1559E+01
 MRCHDU: Convergence failed at 100  side 1    Res =  0.1632E+01
 MRCHDU: Convergence failed at 101  side 1    Res =  0.1704E+01
 MRCHDU: Convergence failed at 102  side 1    Res =  0.1774E+01
 MRCHDU: Convergence failed at 103  side 1    Res =  0.1839E+01
 MRCHDU: Convergence failed at 104  side 1    Res =  0.1900E+01
 MRCHDU: Convergence failed at 105  side 1    Res =  0.1958E+01
 MRCHDU: Convergence failed at 106  side 1    Res =  0.5233E+01
 Side 1  free  transition at x/c =  0.0394   45
 Side 2  free  transition at x/c =  0.9183   50
 idif Ue xi dudx           1  6.29838929E-02  7.71605968E-03   8.1627016    
 Uenew xinew           2  1.18247448E-02  1.44863129E-03

   1   rms: 0.5650E+00   max: -.2868E+01   T at   50  2   RLX: 0.174
       a = 16.250      CL =  2.2069
      Cm = -0.1353     CD =  0.01623   =>   CDf =  0.00815    CDp =  0.00809

 MRCHDU: Convergence failed at  45  side 1    Res =  0.1435E+02
 MRCHDU: Convergence failed at  46  side 1    Res =  0.4333E+02
 Side 1  free  transition at x/c =  0.0418   45
 Side 2  free  transition at x/c =  0.9308   51

   2   rms: 0.4266E+00   max: -.2995E+01   T at   51  2   RLX: 0.167
       a = 16.250      CL =  2.2007
      Cm = -0.1209     CD =  0.01527   =>   CDf =  0.00750    CDp =  0.00777

 Side 1  free  transition at x/c =  0.0436   45
 Side 2  free  transition at x/c =  0.9463   53

   3   rms: 0.5926E+00   max: -.4128E+01   T at   53  2   RLX: 0.121
       a = 16.250      CL =  2.1380
      Cm = -0.1126     CD =  0.01973   =>   CDf =  0.00869    CDp =  0.01103

 Side 1  free  transition at x/c =  0.0459   46
 Side 2  free  transition at x/c =  0.9579   53

   4   rms: 0.3281E+00   max: -.2549E+01   T at   53  2   RLX: 0.196
       a = 16.250      CL =  2.0999
      Cm = -0.0974     CD =  0.01905   =>   CDf =  0.00761    CDp =  0.01144

 Side 1  free  transition at x/c =  0.0488   47
 Side 2  free  transition at x/c =  0.9848   56

   5   rms: 0.1341E+01   max: -.2679E+02   C at   56  2   RLX: 0.019
       a = 16.250      CL =  2.0960
      Cm = -0.0960     CD =  0.01871   =>   CDf =  0.00734    CDp =  0.01137

 Side 1  free  transition at x/c =  0.0492   47
 Side 2  free  transition at x/c =  0.9919   56

   6   rms: 0.1059E+02   max: -.2061E+03   C at   56  2   RLX: 0.002
       a = 16.250      CL =  2.0954
      Cm = -0.0959     CD =  0.01871   =>   CDf =  0.00731    CDp =  0.01141

 Side 1  free  transition at x/c =  0.0492   47
 Side 2  free  transition at x/c =  0.9926   56

   7   rms: 0.1261E+02   max: -.2445E+03   C at   56  2   RLX: 0.002
       a = 16.250      CL =  2.0949
      Cm = -0.0957     CD =  0.01873   =>   CDf =  0.00730    CDp =  0.01143

 Side 1  free  transition at x/c =  0.0493   47
 Side 2  free  transition at x/c =  0.9931   56

   8   rms: 0.1480E+02   max: -.2862E+03   C at   56  2   RLX: 0.002
       a = 16.250      CL =  2.0945
      Cm = -0.0956     CD =  0.01874   =>   CDf =  0.00730    CDp =  0.01144

 Side 1  free  transition at x/c =  0.0493   47
 Side 2  free  transition at x/c =  0.9971   57

   9   rms: 0.1745E+02   max: -.4734E+03   C at   57  2   RLX: 0.001
       a = 16.250      CL =  2.0946
      Cm = -0.0957     CD =  0.01875   =>   CDf =  0.00729    CDp =  0.01146

 Side 1  free  transition at x/c =  0.0493   47
 Side 2  free  transition at x/c =  0.9985   57

  10   rms: 0.1231E+02   max: -.3339E+03   C at   57  2   RLX: 0.001
       a = 16.250      CL =  2.0945
      Cm = -0.0956     CD =  0.01876   =>   CDf =  0.00728    CDp =  0.01148

 Side 1  free  transition at x/c =  0.0493   47
 Side 2  free  transition at x/c =  0.9997   57

  11   rms: 0.9966E+01   max: -.2702E+03   C at   57  2   RLX: 0.002
       a = 16.250      CL =  2.0944
      Cm = -0.0956     CD =  0.01878   =>   CDf =  0.00728    CDp =  0.01150

 Side 1  free  transition at x/c =  0.0494   47
 Side 2 forced transition at x/c =  1.0000   57

  12   rms: 0.2895E+00   max: -.2156E+01   C at   47  1   RLX: 0.232
       a = 16.250      CL =  2.0532
      Cm = -0.0827     CD =  0.02075   =>   CDf =  0.00728    CDp =  0.01347

 Side 1  free  transition at x/c =  0.0536   48
 Side 2 forced transition at x/c =  1.0000   57
 idif Ue xi dudx           1  5.63879721E-02  6.56485558E-03   8.5893698    
 Uenew xinew           2  5.37052704E-03  6.25252724E-04

  13   rms: 0.2905E+00   max: -.1895E+01   C at   48  1   RLX: 0.264
       a = 16.250      CL =  1.9996
      Cm = -0.0727     CD =  0.02341   =>   CDf =  0.00746    CDp =  0.01595

 Side 1  free  transition at x/c =  0.0598   48
 Side 2 forced transition at x/c =  1.0000   58

  14   rms: 0.4780E+00   max: -.3163E+01   C at   48  1   RLX: 0.158
       a = 16.250      CL =  1.9407
      Cm = -0.0675     CD =  0.02623   =>   CDf =  0.00684    CDp =  0.01938

 Side 1  free  transition at x/c =  0.0632   49
 Side 2 forced transition at x/c =  1.0000   58

  15   rms: 0.2697E+00   max: -.1676E+01   C at   49  1   RLX: 0.298
       a = 16.250      CL =  1.8704
      Cm = -0.0560     CD =  0.03034   =>   CDf =  0.00675    CDp =  0.02359

 Side 1  free  transition at x/c =  0.0713   50
 Side 2 forced transition at x/c =  1.0000   58
 idif Ue xi dudx           1  6.31530955E-02  6.85667992E-03   9.2104483    
 Uenew xinew           2  1.12937298E-02  1.22618675E-03

  16   rms: 0.3011E+00   max: -.2212E+01   C at   50  1   RLX: 0.226
       a = 16.250      CL =  1.8115
      Cm = -0.0509     CD =  0.03498   =>   CDf =  0.00682    CDp =  0.02817

 Side 1  free  transition at x/c =  0.0746   50
 Side 2 forced transition at x/c =  1.0000   59

  17   rms: 0.2077E+00   max: 0.9244E+00   D at   51  1   RLX: 0.551
       a = 16.250      CL =  1.6917
      Cm = -0.0335     CD =  0.04233   =>   CDf =  0.00637    CDp =  0.03596

 Side 1  free  transition at x/c =  0.0808   51
 Side 2 forced transition at x/c =  1.0000   59
 idif Ue xi dudx           1  6.77557513E-02  6.84332848E-03   9.9009933    
 Uenew xinew           2  1.47689739E-02  1.49166584E-03

  18   rms: 0.1502E+00   max: -.9955E+00   T at   51  1   RLX: 0.502
       a = 16.250      CL =  1.6349
      Cm = -0.0316     CD =  0.04755   =>   CDf =  0.00671    CDp =  0.04084

 Side 1  free  transition at x/c =  0.0861   51
 Side 2 forced transition at x/c =  1.0000   60

  19   rms: 0.1019E+00   max: -.5290E+00   T at   51  1   RLX: 0.945
       a = 16.250      CL =  1.5376
      Cm = -0.0170     CD =  0.05436   =>   CDf =  0.00615    CDp =  0.04821

 Side 1  free  transition at x/c =  0.0985   52
 Side 2 forced transition at x/c =  1.0000   60
 idif Ue xi dudx           1  5.52097633E-02  5.21290302E-03   10.590982    
 Uenew xinew           2  1.29663211E-03  1.22427940E-04

  20   rms: 0.3066E-01   max: -.1501E+00   D at   81  1
       a = 16.250      CL =  1.5111
      Cm = -0.0127     CD =  0.05512   =>   CDf =  0.00599    CDp =  0.04913

 Side 1  free  transition at x/c =  0.0948   51
 Side 2 forced transition at x/c =  1.0000   61

  21   rms: 0.5983E-02   max: -.6462E-01   T at    2  2
       a = 16.250      CL =  1.5081
      Cm = -0.0126     CD =  0.05563   =>   CDf =  0.00570    CDp =  0.04993

 Side 1  free  transition at x/c =  0.0952   51
 Side 2 forced transition at x/c =  1.0000   61

  22   rms: 0.2998E-03   max: -.2094E-02   D at   52  1
       a = 16.250      CL =  1.5083
      Cm = -0.0126     CD =  0.05561   =>   CDf =  0.00568    CDp =  0.04993

 Side 1  free  transition at x/c =  0.0951   51
 Side 2 forced transition at x/c =  1.0000   61

  23   rms: 0.2023E-04   max: -.1320E-03   D at   75  2
       a = 16.250      CL =  1.5083
      Cm = -0.0126     CD =  0.05562   =>   CDf =  0.00568    CDp =  0.04994
 plradd ia,ip,cpol            1           0  1.38463350E-02

 Point added to stored polar  1
 Point written to save file  mi-vawt1_Re500k.ext.pol                         
 Dump file unspecified or not available
 Calculating wake trajectory ...
 Calculating source influence matrix ...

 Solving BL system ...

 Side 1  free  transition at x/c =  0.0951   51
 Side 2 forced transition at x/c =  1.0000   61

   1   rms: 0.2776E-01   max: 0.1012E+00   D at   78  1   RLX: 0.771
       a = 16.500      CL =  1.5137
      Cm = -0.0130     CD =  0.05768   =>   CDf =  0.00539    CDp =  0.05228

 Side 1  free  transition at x/c =  0.0935   52
 Side 2 forced transition at x/c =  1.0000   60

   2   rms: 0.8463E-02   max: 0.5203E-01   D at   80  1
       a = 16.500      CL =  1.5108
      Cm = -0.0130     CD =  0.05857   =>   CDf =  0.00567    CDp =  0.05289

 Side 1  free  transition at x/c =  0.0933   52
 Side 2 forced transition at x/c =  1.0000   60

   3   rms: 0.6447E-03   max: 0.4338E-02   D at   74  2
       a = 16.500      CL =  1.5103
      Cm = -0.0129     CD =  0.05845   =>   CDf =  0.00566    CDp =  0.05280

 Side 1  free  transition at x/c =  0.0933   52
 Side 2 forced transition at x/c =  1.0000   60

   4   rms: 0.1294E-04   max: 0.9472E-04   D at   74  2
       a = 16.500      CL =  1.5102
      Cm = -0.0129     CD =  0.05845   =>   CDf =  0.00565    CDp =  0.05279
 plradd ia,ip,cpol            2           0  1.38463350E-02

 Point added to stored polar  1
 Point written to save file  mi-vawt1_Re500k.ext.pol                         
 Dump file unspecified or not available
 Calculating wake trajectory ...
 Calculating source influence matrix ...

 Solving BL system ...

 Side 1  free  transition at x/c =  0.0933   52
 Side 2 forced transition at x/c =  1.0000   60

   1   rms: 0.2900E-01   max: 0.1204E+00   D at   78  1   RLX: 0.733
       a = 16.750      CL =  1.5123
      Cm = -0.0133     CD =  0.06084   =>   CDf =  0.00566    CDp =  0.05518

 Side 1  free  transition at x/c =  0.0921   51
 Side 2 forced transition at x/c =  1.0000   60

   2   rms: 0.7539E-02   max: -.6352E-01   C at   51  1
       a = 16.750      CL =  1.5150
      Cm = -0.0133     CD =  0.06108   =>   CDf =  0.00564    CDp =  0.05544

 Side 1  free  transition at x/c =  0.0914   51
 Side 2 forced transition at x/c =  1.0000   60

   3   rms: 0.8547E-03   max: 0.5327E-02   D at   79  1
       a = 16.750      CL =  1.5142
      Cm = -0.0133     CD =  0.06110   =>   CDf =  0.00560    CDp =  0.05550

 Side 1  free  transition at x/c =  0.0915   51
 Side 2 forced transition at x/c =  1.0000   60

   4   rms: 0.6140E-04   max: 0.3311E-03   D at   74  2
       a = 16.750      CL =  1.5141
      Cm = -0.0133     CD =  0.06109   =>   CDf =  0.00560    CDp =  0.05549
 plradd ia,ip,cpol            3           0  1.38463350E-02

 Point added to stored polar  1
 Point written to save file  mi-vawt1_Re500k.ext.pol                         
 Dump file unspecified or not available
 Calculating wake trajectory ...
 Calculating source influence matrix ...

 Solving BL system ...

 Side 1  free  transition at x/c =  0.0915   51
 Side 2 forced transition at x/c =  1.0000   60

   1   rms: 0.2679E-01   max: 0.1047E+00   T at   51  1   RLX: 0.712
       a = 17.000      CL =  1.5208
      Cm = -0.0137     CD =  0.06291   =>   CDf =  0.00560    CDp =  0.05731

 Side 1  free  transition at x/c =  0.0897   51
 Side 2 forced transition at x/c =  1.0000   60

   2   rms: 0.8037E-02   max: 0.3800E-01   D at   79  1
       a = 17.000      CL =  1.5204
      Cm = -0.0138     CD =  0.06375   =>   CDf =  0.00554    CDp =  0.05821

 Side 1  free  transition at x/c =  0.0892   51
 Side 2 forced transition at x/c =  1.0000   60

   3   rms: 0.5979E-03   max: 0.3659E-02   D at   75  2
       a = 17.000      CL =  1.5197
      Cm = -0.0138     CD =  0.06365   =>   CDf =  0.00551    CDp =  0.05814

 Side 1  free  transition at x/c =  0.0892   51
 Side 2 forced transition at x/c =  1.0000   60

   4   rms: 0.2207E-04   max: 0.1473E-03   D at   75  2
       a = 17.000      CL =  1.5197
      Cm = -0.0138     CD =  0.06365   =>   CDf =  0.00551    CDp =  0.05814
 plradd ia,ip,cpol            4           0  1.38463350E-02

 Point added to stored polar  1
 Point written to save file  mi-vawt1_Re500k.ext.pol                         
 Dump file unspecified or not available
 Calculating wake trajectory ...
 Calculating source influence matrix ...

 Solving BL system ...

 Side 1  free  transition at x/c =  0.0892   51
 Side 2 forced transition at x/c =  1.0000   60

   1   rms: 0.2677E-01   max: 0.1012E+00   D at   77  1   RLX: 0.685
       a = 17.250      CL =  1.5243
      Cm = -0.0142     CD =  0.06566   =>   CDf =  0.00551    CDp =  0.06014

 Side 1  free  transition at x/c =  0.0876   51
 Side 2 forced transition at x/c =  1.0000   60

   2   rms: 0.8944E-02   max: 0.4587E-01   D at   78  1
       a = 17.250      CL =  1.5233
      Cm = -0.0144     CD =  0.06664   =>   CDf =  0.00549    CDp =  0.06115

 Side 1  free  transition at x/c =  0.0872   51
 Side 2 forced transition at x/c =  1.0000   60

   3   rms: 0.1747E-02   max: 0.1338E-01   D at   78  1
       a = 17.250      CL =  1.5218
      Cm = -0.0144     CD =  0.06665   =>   CDf =  0.00547    CDp =  0.06118

 Side 1  free  transition at x/c =  0.0872   51
 Side 2 forced transition at x/c =  1.0000   60

   4   rms: 0.1529E-03   max: 0.8329E-03   D at   75  2
       a = 17.250      CL =  1.5217
      Cm = -0.0143     CD =  0.06664   =>   CDf =  0.00546    CDp =  0.06117

 Side 1  free  transition at x/c =  0.0872   51
 Side 2 forced transition at x/c =  1.0000   60

   5   rms: 0.8715E-05   max: 0.5721E-04   D at   75  2
       a = 17.250      CL =  1.5217
      Cm = -0.0143     CD =  0.06664   =>   CDf =  0.00546    CDp =  0.06117
 plradd ia,ip,cpol            5           0  1.38463350E-02

 Point added to stored polar  1
 Point written to save file  mi-vawt1_Re500k.ext.pol                         
 Dump file unspecified or not available
 Calculating wake trajectory ...
 Calculating source influence matrix ...

 Solving BL system ...

 Side 1  free  transition at x/c =  0.0872   51
 Side 2 forced transition at x/c =  1.0000   60

   1   rms: 0.2940E-01   max: 0.1343E+00   D at   77  1   RLX: 0.654
       a = 17.500      CL =  1.5223
      Cm = -0.0150     CD =  0.06915   =>   CDf =  0.00547    CDp =  0.06368

 Side 1  free  transition at x/c =  0.0859   51
 Side 2 forced transition at x/c =  1.0000   60

   2   rms: 0.1090E-01   max: 0.5818E-01   D at   77  1
       a = 17.500      CL =  1.5197
      Cm = -0.0152     CD =  0.07043   =>   CDf =  0.00546    CDp =  0.06497

 Side 1  free  transition at x/c =  0.0854   50
 Side 2 forced transition at x/c =  1.0000   60

   3   rms: 0.1237E-02   max: -.1771E-01   C at   50  1
       a = 17.500      CL =  1.5200
      Cm = -0.0151     CD =  0.07008   =>   CDf =  0.00544    CDp =  0.06464

 Side 1  free  transition at x/c =  0.0853   50
 Side 2 forced transition at x/c =  1.0000   60

   4   rms: 0.8990E-04   max: -.3691E-03   D at   77  1
       a = 17.500      CL =  1.5201
      Cm = -0.0151     CD =  0.07008   =>   CDf =  0.00543    CDp =  0.06465
 plradd ia,ip,cpol            6           0  1.38463350E-02

 Point added to stored polar  1
 Point written to save file  mi-vawt1_Re500k.ext.pol                         
 Dump file unspecified or not available
 Calculating wake trajectory ...
 Calculating source influence matrix ...

 Solving BL system ...

 Side 1  free  transition at x/c =  0.0853   50
 Side 2 forced transition at x/c =  1.0000   60

   1   rms: 0.2656E-01   max: -.1456E+00   C at   50  1   RLX: 0.635
       a = 17.750      CL =  1.5263
      Cm = -0.0155     CD =  0.07171   =>   CDf =  0.00513    CDp =  0.06658

 Side 1  free  transition at x/c =  0.0836   51
 Side 2 forced transition at x/c =  1.0000   59

   2   rms: 0.1072E-01   max: 0.6043E-01   D at   78  1
       a = 17.750      CL =  1.5251
      Cm = -0.0158     CD =  0.07310   =>   CDf =  0.00537    CDp =  0.06773

 Side 1  free  transition at x/c =  0.0829   51
 Side 2 forced transition at x/c =  1.0000   59

   3   rms: 0.1398E-02   max: 0.7284E-02   D at   74  2
       a = 17.750      CL =  1.5238
      Cm = -0.0158     CD =  0.07299   =>   CDf =  0.00533    CDp =  0.06767

 Side 1  free  transition at x/c =  0.0830   51
 Side 2 forced transition at x/c =  1.0000   59

   4   rms: 0.8456E-04   max: 0.5512E-03   D at   74  2
       a = 17.750      CL =  1.5237
      Cm = -0.0158     CD =  0.07298   =>   CDf =  0.00532    CDp =  0.06765
 plradd ia,ip,cpol            7           0  1.38463350E-02

 Point added to stored polar  1
 Point written to save file  mi-vawt1_Re500k.ext.pol                         
 Dump file unspecified or not available
 Calculating wake trajectory ...
 Calculating source influence matrix ...

 Solving BL system ...

 Side 1  free  transition at x/c =  0.0830   51
 Side 2 forced transition at x/c =  1.0000   59

   1   rms: 0.2675E-01   max: 0.1144E+00   D at   77  1   RLX: 0.610
       a = 18.000      CL =  1.5261
      Cm = -0.0164     CD =  0.07512   =>   CDf =  0.00533    CDp =  0.06979

 Side 1  free  transition at x/c =  0.0814   51
 Side 2 forced transition at x/c =  1.0000   59

   2   rms: 0.1102E-01   max: 0.5789E-01   D at   77  1
       a = 18.000      CL =  1.5248
      Cm = -0.0167     CD =  0.07651   =>   CDf =  0.00530    CDp =  0.07121

 Side 1  free  transition at x/c =  0.0807   51
 Side 2 forced transition at x/c =  1.0000   59

   3   rms: 0.2149E-02   max: 0.1489E-01   D at   77  1
       a = 18.000      CL =  1.5229
      Cm = -0.0166     CD =  0.07648   =>   CDf =  0.00528    CDp =  0.07120

 Side 1  free  transition at x/c =  0.0808   51
 Side 2 forced transition at x/c =  1.0000   59

   4   rms: 0.1744E-03   max: 0.9420E-03   D at   74  2
       a = 18.000      CL =  1.5227
      Cm = -0.0166     CD =  0.07645   =>   CDf =  0.00527    CDp =  0.07118

 Side 1  free  transition at x/c =  0.0808   51
 Side 2 forced transition at x/c =  1.0000   59

   5   rms: 0.1013E-04   max: 0.6399E-04   D at   74  2
       a = 18.000      CL =  1.5227
      Cm = -0.0166     CD =  0.07645   =>   CDf =  0.00527    CDp =  0.07118
 plradd ia,ip,cpol            8           0  1.38463350E-02

 Point added to stored polar  1
 Point written to save file  mi-vawt1_Re500k.ext.pol                         
 Dump file unspecified or not available

.OPERva   c>   Calculating wake trajectory ...
 Calculating source influence matrix ...

 Solving BL system ...

 Side 1  free  transition at x/c =  0.0808   51
 Side 2 forced transition at x/c =  1.0000   59

   1   rms: 0.3000E-01   max: 0.1501E+00   D at   76  1   RLX: 0.583
       a = 18.250      CL =  1.5217
      Cm = -0.0175     CD =  0.07910   =>   CDf =  0.00527    CDp =  0.07383

 Side 1  free  transition at x/c =  0.0796   51
 Side 2 forced transition at x/c =  1.0000   59

   2   rms: 0.1344E-01   max: 0.7468E-01   D at   76  1
       a = 18.250      CL =  1.5181
      Cm = -0.0179     CD =  0.08090   =>   CDf =  0.00526    CDp =  0.07564

 Side 1  free  transition at x/c =  0.0790   50
 Side 2 forced transition at x/c =  1.0000   59

   3   rms: 0.1458E-02   max: -.1878E-01   C at   50  1
       a = 18.250      CL =  1.5183
      Cm = -0.0177     CD =  0.08040   =>   CDf =  0.00523    CDp =  0.07517

 Side 1  free  transition at x/c =  0.0789   50
 Side 2 forced transition at x/c =  1.0000   59

   4   rms: 0.9273E-04   max: -.4142E-03   D at   76  2
       a = 18.250      CL =  1.5184
      Cm = -0.0177     CD =  0.08040   =>   CDf =  0.00522    CDp =  0.07518
 plradd ia,ip,cpol            9           0  1.38463350E-02

 Point added to stored polar  1
 Point written to save file  mi-vawt1_Re500k.ext.pol                         
 Dump file unspecified or not available
 Calculating wake trajectory ...
 Calculating source influence matrix ...

 Solving BL system ...

 Side 1  free  transition at x/c =  0.0789   50
 Side 2 forced transition at x/c =  1.0000   59

   1   rms: 0.5095E-01   max: 0.1940E+00   D at   75  1   RLX: 0.551
       a = 18.750      CL =  1.5252
      Cm = -0.0188     CD =  0.08398   =>   CDf =  0.00523    CDp =  0.07875

 Side 1  free  transition at x/c =  0.0756   50
 Side 2 forced transition at x/c =  1.0000   59

   2   rms: 0.3101E-01   max: 0.1978E+00   D at   76  1
       a = 18.750      CL =  1.5150
      Cm = -0.0204     CD =  0.08904   =>   CDf =  0.00517    CDp =  0.08387

 Side 1  free  transition at x/c =  0.0742   50
 Side 2 forced transition at x/c =  1.0000   59

   3   rms: 0.5262E-02   max: 0.5540E-01   D at   75  1
       a = 18.750      CL =  1.5107
      Cm = -0.0202     CD =  0.08855   =>   CDf =  0.00509    CDp =  0.08346

 Side 1  free  transition at x/c =  0.0744   50
 Side 2 forced transition at x/c =  1.0000   59

   4   rms: 0.3388E-03   max: 0.5423E-02   D at   75  2
       a = 18.750      CL =  1.5105
      Cm = -0.0201     CD =  0.08843   =>   CDf =  0.00507    CDp =  0.08336

 Side 1  free  transition at x/c =  0.0744   50
 Side 2 forced transition at x/c =  1.0000   59

   5   rms: 0.7756E-05   max: 0.1596E-03   D at   75  2
       a = 18.750      CL =  1.5105
      Cm = -0.0201     CD =  0.08843   =>   CDf =  0.00507    CDp =  0.08336
 plradd ia,ip,cpol           10           0  1.38463350E-02

 Point added to stored polar  1
 Point written to save file  mi-vawt1_Re500k.ext.pol                         
 Dump file unspecified or not available
 Calculating wake trajectory ...
 Calculating source influence matrix ...

 Solving BL system ...

 Side 1  free  transition at x/c =  0.0744   50
 Side 2 forced transition at x/c =  1.0000   59

   1   rms: 0.6243E-01   max: 0.3354E+00   D at   74  1   RLX: 0.500
       a = 19.250      CL =  1.5049
      Cm = -0.0220     CD =  0.09389   =>   CDf =  0.00508    CDp =  0.08881

 Side 1  free  transition at x/c =  0.0726   49
 Side 2 forced transition at x/c =  1.0000   59

   2   rms: 0.2729E-01   max: 0.1574E+00   D at   74  1
       a = 19.250      CL =  1.5040
      Cm = -0.0231     CD =  0.09742   =>   CDf =  0.00471    CDp =  0.09270

 Side 1  free  transition at x/c =  0.0696   50
 Side 2 forced transition at x/c =  1.0000   58

   3   rms: 0.7831E-02   max: -.4723E-01   C at   50  1
       a = 19.250      CL =  1.4977
      Cm = -0.0231     CD =  0.09742   =>   CDf =  0.00496    CDp =  0.09246

 Side 1  free  transition at x/c =  0.0702   50
 Side 2 forced transition at x/c =  1.0000   58

   4   rms: 0.8933E-03   max: -.4777E-02   D at    4  1
       a = 19.250      CL =  1.4969
      Cm = -0.0231     CD =  0.09733   =>   CDf =  0.00492    CDp =  0.09241

 Side 1  free  transition at x/c =  0.0702   50
 Side 2 forced transition at x/c =  1.0000   58

   5   rms: 0.6099E-04   max: 0.3647E-03   D at   74  2
       a = 19.250      CL =  1.4969
      Cm = -0.0231     CD =  0.09732   =>   CDf =  0.00492    CDp =  0.09240
 plradd ia,ip,cpol           11           0  1.38463350E-02

 Point added to stored polar  1
 Point written to save file  mi-vawt1_Re500k.ext.pol                         
 Dump file unspecified or not available
 Calculating wake trajectory ...
 Calculating source influence matrix ...

 Solving BL system ...

 Side 1  free  transition at x/c =  0.0702   50
 Side 2 forced transition at x/c =  1.0000   58

   1   rms: 0.6066E-01   max: 0.3364E+00   D at   73  1   RLX: 0.465
       a = 19.750      CL =  1.4911
      Cm = -0.0250     CD =  0.10265   =>   CDf =  0.00493    CDp =  0.09772

 Side 1  free  transition at x/c =  0.0682   50
 Side 2 forced transition at x/c =  1.0000   58

   2   rms: 0.3839E-01   max: 0.2385E+00   D at   73  1
       a = 19.750      CL =  1.4761
      Cm = -0.0275     CD =  0.10935   =>   CDf =  0.00490    CDp =  0.10445

 Side 1  free  transition at x/c =  0.0667   49
 Side 2 forced transition at x/c =  1.0000   58

   3   rms: 0.4919E-02   max: 0.5476E-01   D at   73  1
       a = 19.750      CL =  1.4745
      Cm = -0.0271     CD =  0.10785   =>   CDf =  0.00480    CDp =  0.10306

 Side 1  free  transition at x/c =  0.0664   49
 Side 2 forced transition at x/c =  1.0000   58

   4   rms: 0.3413E-03   max: -.3946E-02   D at   73  1
       a = 19.750      CL =  1.4745
      Cm = -0.0270     CD =  0.10768   =>   CDf =  0.00478    CDp =  0.10290

 Side 1  free  transition at x/c =  0.0664   49
 Side 2 forced transition at x/c =  1.0000   58

   5   rms: 0.3154E-04   max: -.1282E-03   D at   77  2
       a = 19.750      CL =  1.4745
      Cm = -0.0270     CD =  0.10769   =>   CDf =  0.00478    CDp =  0.10291
 plradd ia,ip,cpol           12           0  1.38463350E-02

 Point added to stored polar  1
 Point written to save file  mi-vawt1_Re500k.ext.pol                         
 Dump file unspecified or not available
 Calculating wake trajectory ...
 Calculating source influence matrix ...

 Solving BL system ...

 Side 1  free  transition at x/c =  0.0664   49
 Side 2 forced transition at x/c =  1.0000   58

   1   rms: 0.5460E-01   max: 0.2960E+00   D at   72  1   RLX: 0.434
       a = 20.250      CL =  1.4710
      Cm = -0.0288     CD =  0.11241   =>   CDf =  0.00479    CDp =  0.10762

 Side 1  free  transition at x/c =  0.0644   49
 Side 2 forced transition at x/c =  1.0000   58

   2   rms: 0.4308E-01   max: 0.2808E+00   D at   72  1
       a = 20.250      CL =  1.4533
      Cm = -0.0321     CD =  0.12054   =>   CDf =  0.00475    CDp =  0.11579

 Side 1  free  transition at x/c =  0.0626   49
 Side 2 forced transition at x/c =  1.0000   58

   3   rms: 0.5754E-02   max: 0.6726E-01   D at   71  1
       a = 20.250      CL =  1.4495
      Cm = -0.0317     CD =  0.11885   =>   CDf =  0.00469    CDp =  0.11417

 Side 1  free  transition at x/c =  0.0628   49
 Side 2 forced transition at x/c =  1.0000   58

   4   rms: 0.1263E-02   max: 0.1129E-01   D at   71  1
       a = 20.250      CL =  1.4486
      Cm = -0.0317     CD =  0.11880   =>   CDf =  0.00467    CDp =  0.11413

 Side 1  free  transition at x/c =  0.0628   49
 Side 2 forced transition at x/c =  1.0000   58

   5   rms: 0.1005E-03   max: 0.5330E-03   D at   75  2
       a = 20.250      CL =  1.4485
      Cm = -0.0317     CD =  0.11876   =>   CDf =  0.00466    CDp =  0.11410

 Side 1  free  transition at x/c =  0.0628   49
 Side 2 forced transition at x/c =  1.0000   58

   6   rms: 0.4857E-05   max: 0.4342E-04   D at   75  2
       a = 20.250      CL =  1.4485
      Cm = -0.0317     CD =  0.11876   =>   CDf =  0.00466    CDp =  0.11409
 plradd ia,ip,cpol           13           0  1.38463350E-02

 Point added to stored polar  1
 Point written to save file  mi-vawt1_Re500k.ext.pol                         
 Dump file unspecified or not available
 Calculating wake trajectory ...
 Calculating source influence matrix ...

 Solving BL system ...

 Side 1  free  transition at x/c =  0.0628   49
 Side 2 forced transition at x/c =  1.0000   58

   1   rms: 0.7099E-01   max: 0.4175E+00   D at   70  1   RLX: 0.398
       a = 20.750      CL =  1.4381
      Cm = -0.0342     CD =  0.12480   =>   CDf =  0.00468    CDp =  0.12012

 Side 1  free  transition at x/c =  0.0617   48
 Side 2 forced transition at x/c =  1.0000   58

   2   rms: 0.2988E-01   max: 0.1535E+00   D at   70  1
       a = 20.750      CL =  1.4394
      Cm = -0.0361     CD =  0.12912   =>   CDf =  0.00461    CDp =  0.12451

 Side 1  free  transition at x/c =  0.0587   48
 Side 2 forced transition at x/c =  1.0000   58

   3   rms: 0.1325E-01   max: 0.8356E-01   D at   70  1
       a = 20.750      CL =  1.4295
      Cm = -0.0366     CD =  0.12957   =>   CDf =  0.00457    CDp =  0.12499

 Side 1  free  transition at x/c =  0.0593   48
 Side 2 forced transition at x/c =  1.0000   58

   4   rms: 0.1029E-02   max: -.1016E-01   D at   70  1
       a = 20.750      CL =  1.4293
      Cm = -0.0365     CD =  0.12905   =>   CDf =  0.00451    CDp =  0.12454

 Side 1  free  transition at x/c =  0.0593   48
 Side 2 forced transition at x/c =  1.0000   58

   5   rms: 0.8098E-04   max: -.3178E-03   D at   70  1
       a = 20.750      CL =  1.4293
      Cm = -0.0365     CD =  0.12903   =>   CDf =  0.00451    CDp =  0.12452
 plradd ia,ip,cpol           14           0  1.38463350E-02

 Point added to stored polar  1
 Point written to save file  mi-vawt1_Re500k.ext.pol                         
 Dump file unspecified or not available
 Calculating wake trajectory ...
 Calculating source influence matrix ...

 Solving BL system ...

 Side 1  free  transition at x/c =  0.0593   48
 Side 2 forced transition at x/c =  1.0000   58

   1   rms: 0.5743E-01   max: 0.3247E+00   D at   69  1   RLX: 0.378
       a = 21.250      CL =  1.4245
      Cm = -0.0386     CD =  0.13388   =>   CDf =  0.00452    CDp =  0.12936

 Side 1  free  transition at x/c =  0.0580   48
 Side 2 forced transition at x/c =  1.0000   58

   2   rms: 0.4348E-01   max: 0.2717E+00   D at   69  1
       a = 21.250      CL =  1.4093
      Cm = -0.0427     CD =  0.14277   =>   CDf =  0.00451    CDp =  0.13826

 Side 1  free  transition at x/c =  0.0567   47
 Side 2 forced transition at x/c =  1.0000   58

   3   rms: 0.5946E-02   max: -.4573E-01   C at   47  1
       a = 21.250      CL =  1.4103
      Cm = -0.0418     CD =  0.13949   =>   CDf =  0.00443    CDp =  0.13506

 Side 1  free  transition at x/c =  0.0565   47
 Side 2 forced transition at x/c =  1.0000   58

   4   rms: 0.4099E-03   max: -.2208E-02   D at   69  1
       a = 21.250      CL =  1.4105
      Cm = -0.0418     CD =  0.13933   =>   CDf =  0.00442    CDp =  0.13490

 Side 1  free  transition at x/c =  0.0565   47
 Side 2 forced transition at x/c =  1.0000   58

   5   rms: 0.5561E-04   max: -.3202E-03   D at   75  2
       a = 21.250      CL =  1.4106
      Cm = -0.0418     CD =  0.13935   =>   CDf =  0.00443    CDp =  0.13492
 plradd ia,ip,cpol           15           0  1.15201883E-02

 Point added to stored polar  1
 Point written to save file  mi-vawt1_Re500k.ext.pol                         
 Dump file unspecified or not available
 Calculating wake trajectory ...
 Calculating source influence matrix ...

 Solving BL system ...

 Side 1  free  transition at x/c =  0.0565   47
 Side 2 forced transition at x/c =  1.0000   58

   1   rms: 0.5079E-01   max: 0.2802E+00   D at   67  1   RLX: 0.359
       a = 21.750      CL =  1.4087
      Cm = -0.0437     CD =  0.14349   =>   CDf =  0.00415    CDp =  0.13934

 Side 1  free  transition at x/c =  0.0553   48
 Side 2 forced transition at x/c =  1.0000   57

   2   rms: 0.5102E-01   max: 0.6098E+00   D at    2  1
       a = 21.750      CL =  1.4008
      Cm = -0.0475     CD =  0.15140   =>   CDf =  0.00439    CDp =  0.14701

 Side 1  free  transition at x/c =  0.0537   48
 Side 2 forced transition at x/c =  1.0000   57

   3   rms: 0.5222E-02   max: 0.3210E-01   D at    4  1
       a = 21.750      CL =  1.3986
      Cm = -0.0471     CD =  0.14902   =>   CDf =  0.00433    CDp =  0.14469

 Side 1  free  transition at x/c =  0.0539   48
 Side 2 forced transition at x/c =  1.0000   57

   4   rms: 0.4572E-03   max: 0.4785E-02   D at   68  1
       a = 21.750      CL =  1.3983
      Cm = -0.0471     CD =  0.14886   =>   CDf =  0.00432    CDp =  0.14454

 Side 1  free  transition at x/c =  0.0539   48
 Side 2 forced transition at x/c =  1.0000   57

   5   rms: 0.3197E-04   max: 0.1393E-03   D at   77  2
       a = 21.750      CL =  1.3983
      Cm = -0.0471     CD =  0.14885   =>   CDf =  0.00432    CDp =  0.14454
 plradd ia,ip,cpol           16           0  1.15201883E-02

 Point added to stored polar  1
 Point written to save file  mi-vawt1_Re500k.ext.pol                         
 Dump file unspecified or not available
 Calculating wake trajectory ...
 Calculating source influence matrix ...

 Solving BL system ...

 Side 1  free  transition at x/c =  0.0539   48
 Side 2 forced transition at x/c =  1.0000   57

   1   rms: 0.5447E-01   max: 0.3121E+00   D at   67  1   RLX: 0.340
       a = 22.250      CL =  1.3950
      Cm = -0.0492     CD =  0.15327   =>   CDf =  0.00433    CDp =  0.14894

 Side 1  free  transition at x/c =  0.0531   48
 Side 2 forced transition at x/c =  1.0000   57

   2   rms: 0.3188E-01   max: 0.1610E+00   D at   67  1
       a = 22.250      CL =  1.3939
      Cm = -0.0526     CD =  0.15959   =>   CDf =  0.00432    CDp =  0.15526

 Side 1  free  transition at x/c =  0.0519   47
 Side 2 forced transition at x/c =  1.0000   57

   3   rms: 0.5490E-02   max: -.5113E-01   C at   47  1
       a = 22.250      CL =  1.3918
      Cm = -0.0524     CD =  0.15777   =>   CDf =  0.00429    CDp =  0.15348

 Side 1  free  transition at x/c =  0.0518   47
 Side 2 forced transition at x/c =  1.0000   57

   4   rms: 0.6043E-03   max: -.4381E-02   D at   68  1
       a = 22.250      CL =  1.3920
      Cm = -0.0523     CD =  0.15738   =>   CDf =  0.00426    CDp =  0.15312

 Side 1  free  transition at x/c =  0.0518   47
 Side 2 forced transition at x/c =  1.0000   57

   5   rms: 0.5301E-04   max: -.2613E-03   D at   77  2
       a = 22.250      CL =  1.3920
      Cm = -0.0523     CD =  0.15739   =>   CDf =  0.00426    CDp =  0.15313
 plradd ia,ip,cpol           17           0  1.15201883E-02

 Point added to stored polar  1
 Point written to save file  mi-vawt1_Re500k.ext.pol                         
 Dump file unspecified or not available

.OPERva   c>  
 Polar accumulation disabled

.OPERv   c>  
 XFOIL   c>  
 XFOIL   c>  