  
       XFOIL         Version 6.99
  
 Calculated polar for: NASA/LANGLEY MS(1)-0317 AIRFOIL                 
  
 1 1 Reynolds number fixed          Mach number fixed         
  
 xtrf =   1.000 (top)        1.000 (bottom)  
 Mach =   0.000     Re =     0.500 e 6     Ncrit =   9.000
  
   alpha    CL        CD       CDp       CM     Top_Xtr  Bot_Xtr
  ------ -------- --------- --------- -------- -------- --------
  16.250   1.6277   0.05369   0.04813  -0.0342   0.0765   0.9405
  16.750   1.6354   0.05796   0.05268  -0.0336   0.0749   1.0000
  17.000   1.6412   0.06031   0.05514  -0.0338   0.0738   1.0000
  17.250   1.6466   0.06271   0.05761  -0.0341   0.0728   1.0000
  17.500   1.6513   0.06520   0.06017  -0.0344   0.0717   1.0000
  17.750   1.6556   0.06776   0.06278  -0.0347   0.0708   1.0000
  18.000   1.6588   0.07042   0.06546  -0.0350   0.0698   1.0000
  18.250   1.6603   0.07315   0.06821  -0.0350   0.0685   1.0000
  18.750   1.6582   0.08012   0.07549  -0.0368   0.0667   1.0000
  19.250   1.6558   0.08724   0.08281  -0.0389   0.0646   1.0000
  19.750   1.6516   0.09471   0.09040  -0.0414   0.0628   1.0000
  20.250   1.6410   0.10303   0.09888  -0.0443   0.0609   1.0000
  20.750   1.6232   0.11314   0.10929  -0.0489   0.0591   1.0000
  21.250   1.6078   0.12308   0.11942  -0.0540   0.0573   1.0000
  21.750   1.5970   0.13207   0.12849  -0.0590   0.0556   1.0000
  22.250   1.5688   0.14456   0.14126  -0.0666   0.0539   1.0000
