
 ===================================================
  XFOIL Version 6.99
  Copyright (C) 2000   Mark Drela, Harold Youngren

  This software comes with ABSOLUTELY NO WARRANTY,
    subject to the GNU General Public License.

  Caveat computor
 ===================================================

 File  xfoil.def  not found

   QUIT    Exit program

  .OPER    Direct operating point(s)
  .MDES    Complex mapping design routine
  .QDES    Surface speed design routine
  .GDES    Geometry design routine

   SAVE f  Write airfoil to labeled coordinate file
   PSAV f  Write airfoil to plain coordinate file
   ISAV f  Write airfoil to ISES coordinate file
   MSAV f  Write airfoil to MSES coordinate file
   REVE    Reverse written-airfoil node ordering

   LOAD f  Read buffer airfoil from coordinate file
   NACA i  Set NACA 4,5-digit airfoil and buffer airfoil
   INTE    Set buffer airfoil by interpolating two airfoils
   NORM    Buffer airfoil normalization toggle
   XYCM rr Change CM reference location, currently  0.25000 0.00000

   BEND    Display structural properties of current airfoil

   PCOP    Set current-airfoil panel nodes directly from buffer airfoil points
   PANE    Set current-airfoil panel nodes ( 160 ) based on curvature
  .PPAR    Show/change paneling

  .PLOP    Plotting options

   WDEF f  Write  current-settings file
   RDEF f  Reread current-settings file
   NAME s  Specify new airfoil name
   NINC    Increment name version number

   Z       Zoom    | (available in all menus)
   U       Unzoom  | 

 XFOIL   c>  
 Labeled airfoil file.  Name:  MUE 139                                         

 Number of input coordinate points:  97
 Counterclockwise ordering
 Max thickness =     0.138951  at x =   0.222
 Max camber    =     0.047242  at x =   0.309

  LE  x,y  =  -0.00000   0.00016  |   Chord =   1.00000
  TE  x,y  =   1.00000   0.00000  |

 Current airfoil nodes set from buffer airfoil nodes (  97 )

 XFOIL   c>  
 XFOIL   c>  
 Sharp trailing edge

 Paneling parameters used...
   Number of panel nodes       160
   Panel bunching parameter    1.000
   TE/LE panel density ratio   0.150
   Refined-area/LE panel density ratio    0.200
   Top    side refined area x/c limits  1.000 1.000
   Bottom side refined area x/c limits  1.000 1.000

 XFOIL   c>  
.OPERi   c>  
 Xtr/c     =  1.0000    top    side
 Xtr/c     =  1.0000    bottom side
 Ncrit     =    9.00   ( 0.070 % turb. level )
 Vacc      =  0.0100

 Klag  =  5.6000     Uxwt  =    1.00
 A     =  6.7000     B     =  0.7500       KCt = 0.01485
 CtiniK=  1.8000     CtiniX=  3.3000

..VPAR   c>  
..VPAR   c>  
.OPERi   c>  
 M  =    0.0000
 Re =    600000

.OPERv   c>  
.OPERv   c>  
.OPERv   c>  
 Polar  1 newly created for accumulation
 Airfoil archived with polar: MUE 139                                         

Enter  polar save filename  OR  <return> for no file   s>  
 New polar save file available

Enter  polar dump filename  OR  <return> for no file   s>  
 Polar dump file will NOT be written

 Polar accumulation enabled

.OPERva   c>   Calculating unit vorticity distributions ...
 Calculating wake trajectory ...
 Calculating source influence matrix ...

 Solving BL system ...

 Initializing BL ...
    side            1  ...
 MRCHUE: Inverse mode at  39     Hk =   4.407
 MRCHUE: Inverse mode at  40     Hk =   5.517
 MRCHUE: Inverse mode at  41     Hk =   6.605
 MRCHUE: Inverse mode at  42     Hk =   7.677
 MRCHUE: Inverse mode at  43     Hk =   8.732
 MRCHUE: Inverse mode at  44     Hk =   4.037
 MRCHUE: Inverse mode at  45     Hk =   2.500
 MRCHUE: Inverse mode at  75     Hk =   2.500
    side            2  ...
 MRCHUE: Inverse mode at  26     Hk =   4.156
 MRCHUE: Inverse mode at  27     Hk =   5.136
 MRCHUE: Inverse mode at  28     Hk =   6.104
 MRCHUE: Inverse mode at  29     Hk =   7.084
 MRCHUE: Inverse mode at  30     Hk =   8.093
 MRCHUE: Inverse mode at  31     Hk =   9.150
 MRCHUE: Inverse mode at  32     Hk =   8.846
 MRCHUE: Inverse mode at  33     Hk =   3.825
 MRCHUE: Inverse mode at  34     Hk =   2.500
 MRCHUE: Inverse mode at  87     Hk =   2.500

 Side 1  free  transition at x/c =  0.4364   44
 Side 2  free  transition at x/c =  0.0578   32
 idif Ue xi dudx           1  9.20423716E-02  3.49485874E-03   26.336508    
 Uenew xinew           2  1.03197219E-02  3.91840935E-04

   1   rms: 0.2011E+00   max: -.1862E+01   T at   44  1   RLX: 0.269
       a = -4.000      CL = -0.0803
      Cm = -0.0597     CD =  0.01250   =>   CDf =  0.00772    CDp =  0.00478

 Side 1  free  transition at x/c =  0.4453   43
 Side 2  free  transition at x/c =  0.0572   33

   2   rms: 0.1119E+00   max: -.1040E+01   T at   43  1   RLX: 0.481
       a = -4.000      CL = -0.0782
      Cm = -0.0579     CD =  0.01315   =>   CDf =  0.00775    CDp =  0.00540

 MRCHDU: Convergence failed at  44  side 1    Res =  0.4199E+01
 Side 1  free  transition at x/c =  0.4657   44
 Side 2  free  transition at x/c =  0.0572   33

   3   rms: 0.6581E-01   max: -.4170E+00   T at   44  1
       a = -4.000      CL = -0.0298
      Cm = -0.0657     CD =  0.01279   =>   CDf =  0.00749    CDp =  0.00530

 Side 1  free  transition at x/c =  0.5952   52
 Side 2  free  transition at x/c =  0.0583   32

   4   rms: 0.4210E-01   max: 0.5473E+00   D at   45  1
       a = -4.000      CL = -0.0077
      Cm = -0.0702     CD =  0.01231   =>   CDf =  0.00699    CDp =  0.00533

 Side 1  free  transition at x/c =  0.5762   51
 Side 2  free  transition at x/c =  0.0586   32

   5   rms: 0.1638E-01   max: -.2157E+00   D at   51  1
       a = -4.000      CL = -0.0075
      Cm = -0.0702     CD =  0.01237   =>   CDf =  0.00708    CDp =  0.00529

 Side 1  free  transition at x/c =  0.5514   50
 Side 2  free  transition at x/c =  0.0586   32

   6   rms: 0.4107E-02   max: -.5515E-01   C at   50  1
       a = -4.000      CL = -0.0088
      Cm = -0.0700     CD =  0.01245   =>   CDf =  0.00715    CDp =  0.00530

 Side 1  free  transition at x/c =  0.5511   50
 Side 2  free  transition at x/c =  0.0586   32

   7   rms: 0.2914E-03   max: 0.5553E-02   C at   50  1
       a = -4.000      CL = -0.0088
      Cm = -0.0700     CD =  0.01245   =>   CDf =  0.00714    CDp =  0.00531

 Side 1  free  transition at x/c =  0.5509   50
 Side 2  free  transition at x/c =  0.0586   32

   8   rms: 0.1599E-05   max: -.2926E-04   C at   50  1
       a = -4.000      CL = -0.0088
      Cm = -0.0700     CD =  0.01245   =>   CDf =  0.00715    CDp =  0.00531
 plradd ia,ip,cpol            1           0  1.56406499E-02

 Point added to stored polar  1
 Point written to save file  mue139_Re600k.base.pol                          
 Dump file unspecified or not available
 Calculating wake trajectory ...
 Calculating source influence matrix ...

 Solving BL system ...

 Side 1  free  transition at x/c =  0.5509   50
 Side 2  free  transition at x/c =  0.0586   32

   1   rms: 0.8857E-01   max: 0.8859E+00   C at   50  1
       a = -3.500      CL =  0.0440
      Cm = -0.0686     CD =  0.01245   =>   CDf =  0.00720    CDp =  0.00525

 Side 1  free  transition at x/c =  0.5120   49
 Side 2  free  transition at x/c =  0.0624   32

   2   rms: 0.6107E-01   max: 0.7461E+00   D at   32  2
       a = -3.500      CL =  0.0423
      Cm = -0.0685     CD =  0.01199   =>   CDf =  0.00733    CDp =  0.00466

 Side 1  free  transition at x/c =  0.5139   49
 Side 2  free  transition at x/c =  0.0622   32

   3   rms: 0.1107E-01   max: 0.9515E-01   D at   32  2
       a = -3.500      CL =  0.0423
      Cm = -0.0685     CD =  0.01203   =>   CDf =  0.00727    CDp =  0.00476

 Side 1  free  transition at x/c =  0.5131   49
 Side 2  free  transition at x/c =  0.0619   32

   4   rms: 0.5068E-04   max: 0.5968E-03   T at   32  2
       a = -3.500      CL =  0.0422
      Cm = -0.0685     CD =  0.01203   =>   CDf =  0.00727    CDp =  0.00476
 plradd ia,ip,cpol            2           0  1.84493512E-02

 Point added to stored polar  1
 Point written to save file  mue139_Re600k.base.pol                          
 Dump file unspecified or not available
 Calculating wake trajectory ...
 Calculating source influence matrix ...

 Solving BL system ...

 Side 1  free  transition at x/c =  0.5131   49
 Side 2  free  transition at x/c =  0.0619   32

   1   rms: 0.8825E-01   max: 0.8710E+00   C at   49  1
       a = -3.000      CL =  0.0941
      Cm = -0.0670     CD =  0.01194   =>   CDf =  0.00727    CDp =  0.00467

 Side 1  free  transition at x/c =  0.4830   47
 Side 2  free  transition at x/c =  0.0649   32

   2   rms: 0.2812E-01   max: 0.1867E+00   D at   48  1
       a = -3.000      CL =  0.0950
      Cm = -0.0671     CD =  0.01190   =>   CDf =  0.00746    CDp =  0.00444

 Side 1  free  transition at x/c =  0.4837   47
 Side 2  free  transition at x/c =  0.0653   32

   3   rms: 0.1432E-02   max: 0.2189E-01   C at   47  1
       a = -3.000      CL =  0.0949
      Cm = -0.0671     CD =  0.01190   =>   CDf =  0.00747    CDp =  0.00443

 Side 1  free  transition at x/c =  0.4831   47
 Side 2  free  transition at x/c =  0.0652   32

   4   rms: 0.1011E-04   max: -.2084E-03   D at   48  1
       a = -3.000      CL =  0.0949
      Cm = -0.0671     CD =  0.01190   =>   CDf =  0.00747    CDp =  0.00443
 plradd ia,ip,cpol            3           0  1.84493512E-02

 Point added to stored polar  1
 Point written to save file  mue139_Re600k.base.pol                          
 Dump file unspecified or not available
 Calculating wake trajectory ...
 Calculating source influence matrix ...

 Solving BL system ...

 Side 1  free  transition at x/c =  0.4831   47
 Side 2  free  transition at x/c =  0.0652   32

   1   rms: 0.8190E-01   max: 0.6021E+00   C at   47  1
       a = -2.500      CL =  0.1488
      Cm = -0.0659     CD =  0.01183   =>   CDf =  0.00749    CDp =  0.00434

 Side 1  free  transition at x/c =  0.4584   47
 Side 2  free  transition at x/c =  0.0699   32

   2   rms: 0.4732E-01   max: 0.6361E+00   D at   32  2
       a = -2.500      CL =  0.1470
      Cm = -0.0657     CD =  0.01157   =>   CDf =  0.00759    CDp =  0.00398

 Side 1  free  transition at x/c =  0.4606   47
 Side 2  free  transition at x/c =  0.0694   32

   3   rms: 0.8071E-02   max: 0.7870E-01   D at   32  2
       a = -2.500      CL =  0.1470
      Cm = -0.0657     CD =  0.01160   =>   CDf =  0.00755    CDp =  0.00405

 Side 1  free  transition at x/c =  0.4604   47
 Side 2  free  transition at x/c =  0.0691   32

   4   rms: 0.2930E-04   max: 0.4465E-03   T at   32  2
       a = -2.500      CL =  0.1470
      Cm = -0.0657     CD =  0.01160   =>   CDf =  0.00755    CDp =  0.00405
 plradd ia,ip,cpol            4           0  1.84493512E-02

 Point added to stored polar  1
 Point written to save file  mue139_Re600k.base.pol                          
 Dump file unspecified or not available
 Calculating wake trajectory ...
 Calculating source influence matrix ...

 Solving BL system ...

 Side 1  free  transition at x/c =  0.4604   47
 Side 2  free  transition at x/c =  0.0691   32

   1   rms: 0.8116E-01   max: 0.4641E+00   C at   47  1
       a = -2.000      CL =  0.2001
      Cm = -0.0645     CD =  0.01156   =>   CDf =  0.00756    CDp =  0.00400

 Side 1  free  transition at x/c =  0.4417   47
 Side 2  free  transition at x/c =  0.0732   31

   2   rms: 0.2219E-01   max: -.1299E+00   D at   32  2
       a = -2.000      CL =  0.2009
      Cm = -0.0646     CD =  0.01157   =>   CDf =  0.00768    CDp =  0.00389

 Side 1  free  transition at x/c =  0.4421   47
 Side 2  free  transition at x/c =  0.0733   31

   3   rms: 0.5972E-03   max: 0.6836E-02   C at   47  1
       a = -2.000      CL =  0.2008
      Cm = -0.0646     CD =  0.01158   =>   CDf =  0.00767    CDp =  0.00391

 Side 1  free  transition at x/c =  0.4419   47
 Side 2  free  transition at x/c =  0.0733   31

   4   rms: 0.2811E-05   max: -.1795E-04   D at   48  1
       a = -2.000      CL =  0.2008
      Cm = -0.0646     CD =  0.01158   =>   CDf =  0.00768    CDp =  0.00391
 plradd ia,ip,cpol            5           0  1.84493512E-02

 Point added to stored polar  1
 Point written to save file  mue139_Re600k.base.pol                          
 Dump file unspecified or not available
 Calculating wake trajectory ...
 Calculating source influence matrix ...

 Solving BL system ...

 Side 1  free  transition at x/c =  0.4419   47
 Side 2  free  transition at x/c =  0.0733   31

   1   rms: 0.8062E-01   max: -.4857E+00   T at   31  2
       a = -1.500      CL =  0.2550
      Cm = -0.0635     CD =  0.01170   =>   CDf =  0.00768    CDp =  0.00402

 Side 1  free  transition at x/c =  0.4277   47
 Side 2  free  transition at x/c =  0.0788   31

   2   rms: 0.4561E-01   max: 0.6759E+00   D at   31  2
       a = -1.500      CL =  0.2534
      Cm = -0.0633     CD =  0.01129   =>   CDf =  0.00771    CDp =  0.00358

 Side 1  free  transition at x/c =  0.4274   47
 Side 2  free  transition at x/c =  0.0788   31

   3   rms: 0.9072E-02   max: 0.9651E-01   D at   31  2
       a = -1.500      CL =  0.2535
      Cm = -0.0633     CD =  0.01133   =>   CDf =  0.00769    CDp =  0.00364

 Side 1  free  transition at x/c =  0.4273   47
 Side 2  free  transition at x/c =  0.0784   31

   4   rms: 0.8625E-04   max: 0.9496E-03   T at   31  2
       a = -1.500      CL =  0.2535
      Cm = -0.0633     CD =  0.01133   =>   CDf =  0.00769    CDp =  0.00364
 plradd ia,ip,cpol            6           0  2.15319563E-02

 Point added to stored polar  1
 Point written to save file  mue139_Re600k.base.pol                          
 Dump file unspecified or not available
 Calculating wake trajectory ...
 Calculating source influence matrix ...

 Solving BL system ...

 Side 1  free  transition at x/c =  0.4273   47
 Side 2  free  transition at x/c =  0.0784   31

   1   rms: 0.7827E-01   max: -.3992E+00   T at   31  2
       a = -1.000      CL =  0.3076
      Cm = -0.0623     CD =  0.01127   =>   CDf =  0.00768    CDp =  0.00359

 Side 1  free  transition at x/c =  0.4135   47
 Side 2  free  transition at x/c =  0.0839   31

   2   rms: 0.8467E-02   max: -.9060E-01   C at   47  1
       a = -1.000      CL =  0.3067
      Cm = -0.0621     CD =  0.01123   =>   CDf =  0.00779    CDp =  0.00344

 Side 1  free  transition at x/c =  0.4140   47
 Side 2  free  transition at x/c =  0.0841   31

   3   rms: 0.7204E-03   max: 0.8174E-02   D at    4  1
       a = -1.000      CL =  0.3067
      Cm = -0.0621     CD =  0.01123   =>   CDf =  0.00777    CDp =  0.00346

 Side 1  free  transition at x/c =  0.4139   47
 Side 2  free  transition at x/c =  0.0841   31

   4   rms: 0.1358E-05   max: -.7911E-05   D at    8  1
       a = -1.000      CL =  0.3067
      Cm = -0.0621     CD =  0.01123   =>   CDf =  0.00777    CDp =  0.00346
 plradd ia,ip,cpol            7           0  2.15319563E-02

 Point added to stored polar  1
 Point written to save file  mue139_Re600k.base.pol                          
 Dump file unspecified or not available
 Calculating wake trajectory ...
 Calculating source influence matrix ...

 Solving BL system ...

 Side 1  free  transition at x/c =  0.4139   47
 Side 2  free  transition at x/c =  0.0841   31

   1   rms: 0.8816E-01   max: -.5018E+00   T at   31  2   RLX: 0.997
       a = -0.500      CL =  0.3595
      Cm = -0.0610     CD =  0.01081   =>   CDf =  0.00777    CDp =  0.00304

 Side 1  free  transition at x/c =  0.4002   47
 Side 2  free  transition at x/c =  0.0911   31

   2   rms: 0.3278E-01   max: -.2378E+00   D at   32  2
       a = -0.500      CL =  0.3601
      Cm = -0.0610     CD =  0.01114   =>   CDf =  0.00782    CDp =  0.00332

 Side 1  free  transition at x/c =  0.4011   47
 Side 2  free  transition at x/c =  0.0906   31

   3   rms: 0.1759E-02   max: 0.2330E-01   D at   31  2
       a = -0.500      CL =  0.3602
      Cm = -0.0610     CD =  0.01117   =>   CDf =  0.00780    CDp =  0.00337

 Side 1  free  transition at x/c =  0.4010   47
 Side 2  free  transition at x/c =  0.0904   31

   4   rms: 0.6804E-05   max: 0.7290E-04   T at   31  2
       a = -0.500      CL =  0.3602
      Cm = -0.0610     CD =  0.01117   =>   CDf =  0.00780    CDp =  0.00337
 plradd ia,ip,cpol            8           0  2.15319563E-02

 Point added to stored polar  1
 Point written to save file  mue139_Re600k.base.pol                          
 Dump file unspecified or not available
 Calculating wake trajectory ...
 Calculating source influence matrix ...

 Solving BL system ...

 Side 1  free  transition at x/c =  0.4010   47
 Side 2  free  transition at x/c =  0.0904   31

   1   rms: 0.8000E-01   max: -.4437E+00   T at   31  2
       a =  0.000      CL =  0.4130
      Cm = -0.0598     CD =  0.01130   =>   CDf =  0.00776    CDp =  0.00354

 Side 1  free  transition at x/c =  0.3887   47
 Side 2  free  transition at x/c =  0.0979   31

   2   rms: 0.2602E-01   max: 0.3227E+00   D at   31  2
       a =  0.000      CL =  0.4136
      Cm = -0.0599     CD =  0.01098   =>   CDf =  0.00782    CDp =  0.00316

 Side 1  free  transition at x/c =  0.3895   47
 Side 2  free  transition at x/c =  0.0981   31

   3   rms: 0.3922E-02   max: 0.3846E-01   D at   31  2
       a =  0.000      CL =  0.4136
      Cm = -0.0599     CD =  0.01103   =>   CDf =  0.00779    CDp =  0.00324

 Side 1  free  transition at x/c =  0.3886   47
 Side 2  free  transition at x/c =  0.0979   31

   4   rms: 0.4540E-04   max: -.5631E-03   D at   48  1
       a =  0.000      CL =  0.4136
      Cm = -0.0599     CD =  0.01103   =>   CDf =  0.00779    CDp =  0.00323
 plradd ia,ip,cpol            9           0  0.17201047    

 Point added to stored polar  1
 Point written to save file  mue139_Re600k.base.pol                          
 Dump file unspecified or not available
 Calculating wake trajectory ...
 Calculating source influence matrix ...

 Solving BL system ...

 Side 1  free  transition at x/c =  0.3886   47
 Side 2  free  transition at x/c =  0.0979   31

   1   rms: 0.8067E-01   max: -.4558E+00   T at   31  2
       a =  0.500      CL =  0.4670
      Cm = -0.0589     CD =  0.01102   =>   CDf =  0.00774    CDp =  0.00327

 Side 1  free  transition at x/c =  0.3765   47
 Side 2  free  transition at x/c =  0.1053   31

   2   rms: 0.3890E-01   max: -.2974E+00   D at   30  2
       a =  0.500      CL =  0.4664
      Cm = -0.0587     CD =  0.01093   =>   CDf =  0.00787    CDp =  0.00307

 Side 1  free  transition at x/c =  0.3762   47
 Side 2  free  transition at x/c =  0.1078   31

   3   rms: 0.7497E-02   max: 0.7999E-01   T at   31  2
       a =  0.500      CL =  0.4667
      Cm = -0.0588     CD =  0.01099   =>   CDf =  0.00783    CDp =  0.00316

 Side 1  free  transition at x/c =  0.3760   47
 Side 2  free  transition at x/c =  0.1067   31

   4   rms: 0.1763E-03   max: -.2207E-02   D at   32  2
       a =  0.500      CL =  0.4667
      Cm = -0.0588     CD =  0.01099   =>   CDf =  0.00783    CDp =  0.00316

 Side 1  free  transition at x/c =  0.3760   47
 Side 2  free  transition at x/c =  0.1067   31

   5   rms: 0.1370E-05   max: 0.1446E-04   T at   31  2
       a =  0.500      CL =  0.4667
      Cm = -0.0588     CD =  0.01099   =>   CDf =  0.00784    CDp =  0.00316
 plradd ia,ip,cpol           10           0  0.17201047    

 Point added to stored polar  1
 Point written to save file  mue139_Re600k.base.pol                          
 Dump file unspecified or not available
 Calculating wake trajectory ...
 Calculating source influence matrix ...

 Solving BL system ...

 Side 1  free  transition at x/c =  0.3760   47
 Side 2  free  transition at x/c =  0.1067   31

   1   rms: 0.8889E-01   max: -.4780E+00   T at   31  2
       a =  1.000      CL =  0.5198
      Cm = -0.0577     CD =  0.01076   =>   CDf =  0.00777    CDp =  0.00299

 Side 1  free  transition at x/c =  0.3630   48
 Side 2  free  transition at x/c =  0.1173   31

   2   rms: 0.1725E-01   max: -.1834E+00   D at   30  2
       a =  1.000      CL =  0.5197
      Cm = -0.0576     CD =  0.01105   =>   CDf =  0.00790    CDp =  0.00315

 Side 1  free  transition at x/c =  0.3633   48
 Side 2  free  transition at x/c =  0.1164   30

   3   rms: 0.3234E-02   max: -.3814E-01   D at   30  2
       a =  1.000      CL =  0.5195
      Cm = -0.0576     CD =  0.01104   =>   CDf =  0.00789    CDp =  0.00315

 Side 1  free  transition at x/c =  0.3633   48
 Side 2  free  transition at x/c =  0.1165   30

   4   rms: 0.1924E-04   max: 0.2984E-03   D at   30  2
       a =  1.000      CL =  0.5195
      Cm = -0.0576     CD =  0.01104   =>   CDf =  0.00789    CDp =  0.00315
 plradd ia,ip,cpol           11           0  0.15867384    

 Point added to stored polar  1
 Point written to save file  mue139_Re600k.base.pol                          
 Dump file unspecified or not available
 Calculating wake trajectory ...
 Calculating source influence matrix ...

 Solving BL system ...

 Side 1  free  transition at x/c =  0.3633   48
 Side 2  free  transition at x/c =  0.1165   30

   1   rms: 0.8321E-01   max: 0.5722E+00   C at   30  2
       a =  1.500      CL =  0.5712
      Cm = -0.0563     CD =  0.01136   =>   CDf =  0.00781    CDp =  0.00354

 Side 1  free  transition at x/c =  0.3506   48
 Side 2  free  transition at x/c =  0.1289   30

   2   rms: 0.3592E-01   max: -.3630E+00   D at   48  1
       a =  1.500      CL =  0.5729
      Cm = -0.0565     CD =  0.01089   =>   CDf =  0.00788    CDp =  0.00301

 Side 1  free  transition at x/c =  0.3533   48
 Side 2  free  transition at x/c =  0.1308   30

   3   rms: 0.8370E-02   max: -.1045E+00   C at   30  2
       a =  1.500      CL =  0.5728
      Cm = -0.0565     CD =  0.01097   =>   CDf =  0.00784    CDp =  0.00313

 Side 1  free  transition at x/c =  0.3515   48
 Side 2  free  transition at x/c =  0.1307   30

   4   rms: 0.7613E-02   max: -.1155E+00   D at   30  2
       a =  1.500      CL =  0.5728
      Cm = -0.0565     CD =  0.01097   =>   CDf =  0.00786    CDp =  0.00311

 Side 1  free  transition at x/c =  0.3515   48
 Side 2  free  transition at x/c =  0.1307   30

   5   rms: 0.7619E-02   max: -.1157E+00   D at   30  2
       a =  1.500      CL =  0.5728
      Cm = -0.0565     CD =  0.01097   =>   CDf =  0.00786    CDp =  0.00311

 Side 1  free  transition at x/c =  0.3515   48
 Side 2  free  transition at x/c =  0.1307   30

   6   rms: 0.7619E-02   max: -.1157E+00   D at   30  2
       a =  1.500      CL =  0.5728
      Cm = -0.0565     CD =  0.01097   =>   CDf =  0.00786    CDp =  0.00311

 Side 1  free  transition at x/c =  0.3515   48
 Side 2  free  transition at x/c =  0.1307   30

   7   rms: 0.7619E-02   max: -.1157E+00   D at   30  2
       a =  1.500      CL =  0.5728
      Cm = -0.0565     CD =  0.01097   =>   CDf =  0.00786    CDp =  0.00311

 Side 1  free  transition at x/c =  0.3515   48
 Side 2  free  transition at x/c =  0.1307   30

   8   rms: 0.7619E-02   max: -.1157E+00   D at   30  2
       a =  1.500      CL =  0.5728
      Cm = -0.0565     CD =  0.01097   =>   CDf =  0.00786    CDp =  0.00311

 Side 1  free  transition at x/c =  0.3515   48
 Side 2  free  transition at x/c =  0.1307   30

   9   rms: 0.7618E-02   max: -.1157E+00   D at   30  2
       a =  1.500      CL =  0.5728
      Cm = -0.0565     CD =  0.01097   =>   CDf =  0.00786    CDp =  0.00311

 Side 1  free  transition at x/c =  0.3515   48
 Side 2  free  transition at x/c =  0.1307   30

  10   rms: 0.7619E-02   max: -.1157E+00   D at   30  2
       a =  1.500      CL =  0.5728
      Cm = -0.0565     CD =  0.01097   =>   CDf =  0.00786    CDp =  0.00311

 Side 1  free  transition at x/c =  0.3515   48
 Side 2  free  transition at x/c =  0.1307   30

  11   rms: 0.7618E-02   max: -.1157E+00   D at   30  2
       a =  1.500      CL =  0.5728
      Cm = -0.0565     CD =  0.01097   =>   CDf =  0.00786    CDp =  0.00311

 Side 1  free  transition at x/c =  0.3515   48
 Side 2  free  transition at x/c =  0.1307   30

  12   rms: 0.7618E-02   max: -.1157E+00   D at   30  2
       a =  1.500      CL =  0.5728
      Cm = -0.0565     CD =  0.01097   =>   CDf =  0.00786    CDp =  0.00311

 Side 1  free  transition at x/c =  0.3515   48
 Side 2  free  transition at x/c =  0.1307   30

  13   rms: 0.7619E-02   max: -.1157E+00   D at   30  2
       a =  1.500      CL =  0.5728
      Cm = -0.0565     CD =  0.01097   =>   CDf =  0.00786    CDp =  0.00311

 Side 1  free  transition at x/c =  0.3515   48
 Side 2  free  transition at x/c =  0.1307   30

  14   rms: 0.7619E-02   max: -.1157E+00   D at   30  2
       a =  1.500      CL =  0.5728
      Cm = -0.0565     CD =  0.01097   =>   CDf =  0.00786    CDp =  0.00311

 Side 1  free  transition at x/c =  0.3515   48
 Side 2  free  transition at x/c =  0.1307   30

  15   rms: 0.7618E-02   max: -.1157E+00   D at   30  2
       a =  1.500      CL =  0.5728
      Cm = -0.0565     CD =  0.01097   =>   CDf =  0.00786    CDp =  0.00311

 Side 1  free  transition at x/c =  0.3515   48
 Side 2  free  transition at x/c =  0.1307   30

  16   rms: 0.7618E-02   max: -.1157E+00   D at   30  2
       a =  1.500      CL =  0.5728
      Cm = -0.0565     CD =  0.01097   =>   CDf =  0.00786    CDp =  0.00311

 Side 1  free  transition at x/c =  0.3515   48
 Side 2  free  transition at x/c =  0.1307   30

  17   rms: 0.7618E-02   max: -.1157E+00   D at   30  2
       a =  1.500      CL =  0.5728
      Cm = -0.0565     CD =  0.01097   =>   CDf =  0.00786    CDp =  0.00311

 Side 1  free  transition at x/c =  0.3515   48
 Side 2  free  transition at x/c =  0.1307   30

  18   rms: 0.7618E-02   max: -.1157E+00   D at   30  2
       a =  1.500      CL =  0.5728
      Cm = -0.0565     CD =  0.01097   =>   CDf =  0.00786    CDp =  0.00311

 Side 1  free  transition at x/c =  0.3515   48
 Side 2  free  transition at x/c =  0.1307   30

  19   rms: 0.7618E-02   max: -.1157E+00   D at   30  2
       a =  1.500      CL =  0.5728
      Cm = -0.0565     CD =  0.01097   =>   CDf =  0.00786    CDp =  0.00311

 Side 1  free  transition at x/c =  0.3515   48
 Side 2  free  transition at x/c =  0.1307   30

  20   rms: 0.7618E-02   max: -.1157E+00   D at   30  2
       a =  1.500      CL =  0.5728
      Cm = -0.0565     CD =  0.01097   =>   CDf =  0.00786    CDp =  0.00311

 Side 1  free  transition at x/c =  0.3515   48
 Side 2  free  transition at x/c =  0.1307   30

  21   rms: 0.7619E-02   max: -.1157E+00   D at   30  2
       a =  1.500      CL =  0.5728
      Cm = -0.0565     CD =  0.01097   =>   CDf =  0.00786    CDp =  0.00311

 Side 1  free  transition at x/c =  0.3515   48
 Side 2  free  transition at x/c =  0.1307   30

  22   rms: 0.7619E-02   max: -.1157E+00   D at   30  2
       a =  1.500      CL =  0.5728
      Cm = -0.0565     CD =  0.01097   =>   CDf =  0.00786    CDp =  0.00311

 Side 1  free  transition at x/c =  0.3515   48
 Side 2  free  transition at x/c =  0.1307   30

  23   rms: 0.7618E-02   max: -.1157E+00   D at   30  2
       a =  1.500      CL =  0.5728
      Cm = -0.0565     CD =  0.01097   =>   CDf =  0.00786    CDp =  0.00311

 Side 1  free  transition at x/c =  0.3515   48
 Side 2  free  transition at x/c =  0.1307   30

  24   rms: 0.7618E-02   max: -.1157E+00   D at   30  2
       a =  1.500      CL =  0.5728
      Cm = -0.0565     CD =  0.01097   =>   CDf =  0.00786    CDp =  0.00311

 Side 1  free  transition at x/c =  0.3515   48
 Side 2  free  transition at x/c =  0.1307   30

  25   rms: 0.7619E-02   max: -.1157E+00   D at   30  2
       a =  1.500      CL =  0.5728
      Cm = -0.0565     CD =  0.01097   =>   CDf =  0.00786    CDp =  0.00311

 Side 1  free  transition at x/c =  0.3515   48
 Side 2  free  transition at x/c =  0.1307   30

  26   rms: 0.7618E-02   max: -.1157E+00   D at   30  2
       a =  1.500      CL =  0.5728
      Cm = -0.0565     CD =  0.01097   =>   CDf =  0.00786    CDp =  0.00311

 Side 1  free  transition at x/c =  0.3515   48
 Side 2  free  transition at x/c =  0.1307   30

  27   rms: 0.7618E-02   max: -.1157E+00   D at   30  2
       a =  1.500      CL =  0.5728
      Cm = -0.0565     CD =  0.01097   =>   CDf =  0.00786    CDp =  0.00311

 Side 1  free  transition at x/c =  0.3515   48
 Side 2  free  transition at x/c =  0.1307   30

  28   rms: 0.7619E-02   max: -.1157E+00   D at   30  2
       a =  1.500      CL =  0.5728
      Cm = -0.0565     CD =  0.01097   =>   CDf =  0.00786    CDp =  0.00311

 Side 1  free  transition at x/c =  0.3515   48
 Side 2  free  transition at x/c =  0.1307   30

  29   rms: 0.7619E-02   max: -.1157E+00   D at   30  2
       a =  1.500      CL =  0.5728
      Cm = -0.0565     CD =  0.01097   =>   CDf =  0.00786    CDp =  0.00311

 Side 1  free  transition at x/c =  0.3515   48
 Side 2  free  transition at x/c =  0.1307   30

  30   rms: 0.7619E-02   max: -.1157E+00   D at   30  2
       a =  1.500      CL =  0.5728
      Cm = -0.0565     CD =  0.01097   =>   CDf =  0.00786    CDp =  0.00311

 Side 1  free  transition at x/c =  0.3515   48
 Side 2  free  transition at x/c =  0.1307   30

  31   rms: 0.7618E-02   max: -.1157E+00   D at   30  2
       a =  1.500      CL =  0.5728
      Cm = -0.0565     CD =  0.01097   =>   CDf =  0.00786    CDp =  0.00311

 Side 1  free  transition at x/c =  0.3515   48
 Side 2  free  transition at x/c =  0.1307   30

  32   rms: 0.7618E-02   max: -.1157E+00   D at   30  2
       a =  1.500      CL =  0.5728
      Cm = -0.0565     CD =  0.01097   =>   CDf =  0.00786    CDp =  0.00311

 Side 1  free  transition at x/c =  0.3515   48
 Side 2  free  transition at x/c =  0.1307   30

  33   rms: 0.7618E-02   max: -.1157E+00   D at   30  2
       a =  1.500      CL =  0.5728
      Cm = -0.0565     CD =  0.01097   =>   CDf =  0.00786    CDp =  0.00311

 Side 1  free  transition at x/c =  0.3515   48
 Side 2  free  transition at x/c =  0.1307   30

  34   rms: 0.7619E-02   max: -.1157E+00   D at   30  2
       a =  1.500      CL =  0.5728
      Cm = -0.0565     CD =  0.01097   =>   CDf =  0.00786    CDp =  0.00311

 Side 1  free  transition at x/c =  0.3515   48
 Side 2  free  transition at x/c =  0.1307   30

  35   rms: 0.7619E-02   max: -.1157E+00   D at   30  2
       a =  1.500      CL =  0.5728
      Cm = -0.0565     CD =  0.01097   =>   CDf =  0.00786    CDp =  0.00311

 Side 1  free  transition at x/c =  0.3515   48
 Side 2  free  transition at x/c =  0.1307   30

  36   rms: 0.7618E-02   max: -.1157E+00   D at   30  2
       a =  1.500      CL =  0.5728
      Cm = -0.0565     CD =  0.01097   =>   CDf =  0.00786    CDp =  0.00311

 Side 1  free  transition at x/c =  0.3515   48
 Side 2  free  transition at x/c =  0.1307   30

  37   rms: 0.7619E-02   max: -.1157E+00   D at   30  2
       a =  1.500      CL =  0.5728
      Cm = -0.0565     CD =  0.01097   =>   CDf =  0.00786    CDp =  0.00311

 Side 1  free  transition at x/c =  0.3515   48
 Side 2  free  transition at x/c =  0.1307   30

  38   rms: 0.7619E-02   max: -.1157E+00   D at   30  2
       a =  1.500      CL =  0.5728
      Cm = -0.0565     CD =  0.01097   =>   CDf =  0.00786    CDp =  0.00311

 Side 1  free  transition at x/c =  0.3515   48
 Side 2  free  transition at x/c =  0.1307   30

  39   rms: 0.7619E-02   max: -.1157E+00   D at   30  2
       a =  1.500      CL =  0.5728
      Cm = -0.0565     CD =  0.01097   =>   CDf =  0.00786    CDp =  0.00311

 Side 1  free  transition at x/c =  0.3515   48
 Side 2  free  transition at x/c =  0.1307   30

  40   rms: 0.7619E-02   max: -.1157E+00   D at   30  2
       a =  1.500      CL =  0.5728
      Cm = -0.0565     CD =  0.01097   =>   CDf =  0.00786    CDp =  0.00311

 Side 1  free  transition at x/c =  0.3515   48
 Side 2  free  transition at x/c =  0.1307   30

  41   rms: 0.7619E-02   max: -.1157E+00   D at   30  2
       a =  1.500      CL =  0.5728
      Cm = -0.0565     CD =  0.01097   =>   CDf =  0.00786    CDp =  0.00311

 Side 1  free  transition at x/c =  0.3515   48
 Side 2  free  transition at x/c =  0.1307   30

  42   rms: 0.7619E-02   max: -.1157E+00   D at   30  2
       a =  1.500      CL =  0.5728
      Cm = -0.0565     CD =  0.01097   =>   CDf =  0.00786    CDp =  0.00311

 Side 1  free  transition at x/c =  0.3515   48
 Side 2  free  transition at x/c =  0.1307   30

  43   rms: 0.7619E-02   max: -.1157E+00   D at   30  2
       a =  1.500      CL =  0.5728
      Cm = -0.0565     CD =  0.01097   =>   CDf =  0.00786    CDp =  0.00311

 Side 1  free  transition at x/c =  0.3515   48
 Side 2  free  transition at x/c =  0.1307   30

  44   rms: 0.7619E-02   max: -.1157E+00   D at   30  2
       a =  1.500      CL =  0.5728
      Cm = -0.0565     CD =  0.01097   =>   CDf =  0.00786    CDp =  0.00311

 Side 1  free  transition at x/c =  0.3515   48
 Side 2  free  transition at x/c =  0.1307   30

  45   rms: 0.7619E-02   max: -.1157E+00   D at   30  2
       a =  1.500      CL =  0.5728
      Cm = -0.0565     CD =  0.01097   =>   CDf =  0.00786    CDp =  0.00311

 Side 1  free  transition at x/c =  0.3515   48
 Side 2  free  transition at x/c =  0.1307   30

  46   rms: 0.7618E-02   max: -.1157E+00   D at   30  2
       a =  1.500      CL =  0.5728
      Cm = -0.0565     CD =  0.01097   =>   CDf =  0.00786    CDp =  0.00311

 Side 1  free  transition at x/c =  0.3515   48
 Side 2  free  transition at x/c =  0.1307   30

  47   rms: 0.7618E-02   max: -.1157E+00   D at   30  2
       a =  1.500      CL =  0.5728
      Cm = -0.0565     CD =  0.01097   =>   CDf =  0.00786    CDp =  0.00311

 Side 1  free  transition at x/c =  0.3515   48
 Side 2  free  transition at x/c =  0.1307   30

  48   rms: 0.7618E-02   max: -.1157E+00   D at   30  2
       a =  1.500      CL =  0.5728
      Cm = -0.0565     CD =  0.01097   =>   CDf =  0.00786    CDp =  0.00311

 Side 1  free  transition at x/c =  0.3515   48
 Side 2  free  transition at x/c =  0.1307   30

  49   rms: 0.7619E-02   max: -.1157E+00   D at   30  2
       a =  1.500      CL =  0.5728
      Cm = -0.0565     CD =  0.01097   =>   CDf =  0.00786    CDp =  0.00311

 Side 1  free  transition at x/c =  0.3515   48
 Side 2  free  transition at x/c =  0.1307   30

  50   rms: 0.7618E-02   max: -.1157E+00   D at   30  2
       a =  1.500      CL =  0.5728
      Cm = -0.0565     CD =  0.01097   =>   CDf =  0.00786    CDp =  0.00311

 Side 1  free  transition at x/c =  0.3515   48
 Side 2  free  transition at x/c =  0.1307   30

  51   rms: 0.7618E-02   max: -.1157E+00   D at   30  2
       a =  1.500      CL =  0.5728
      Cm = -0.0565     CD =  0.01097   =>   CDf =  0.00786    CDp =  0.00311

 Side 1  free  transition at x/c =  0.3515   48
 Side 2  free  transition at x/c =  0.1307   30

  52   rms: 0.7618E-02   max: -.1157E+00   D at   30  2
       a =  1.500      CL =  0.5728
      Cm = -0.0565     CD =  0.01097   =>   CDf =  0.00786    CDp =  0.00311

 Side 1  free  transition at x/c =  0.3515   48
 Side 2  free  transition at x/c =  0.1307   30

  53   rms: 0.7618E-02   max: -.1157E+00   D at   30  2
       a =  1.500      CL =  0.5728
      Cm = -0.0565     CD =  0.01097   =>   CDf =  0.00786    CDp =  0.00311

 Side 1  free  transition at x/c =  0.3515   48
 Side 2  free  transition at x/c =  0.1307   30

  54   rms: 0.7618E-02   max: -.1157E+00   D at   30  2
       a =  1.500      CL =  0.5728
      Cm = -0.0565     CD =  0.01097   =>   CDf =  0.00786    CDp =  0.00311

 Side 1  free  transition at x/c =  0.3515   48
 Side 2  free  transition at x/c =  0.1307   30

  55   rms: 0.7618E-02   max: -.1157E+00   D at   30  2
       a =  1.500      CL =  0.5728
      Cm = -0.0565     CD =  0.01097   =>   CDf =  0.00786    CDp =  0.00311

 Side 1  free  transition at x/c =  0.3515   48
 Side 2  free  transition at x/c =  0.1307   30

  56   rms: 0.7618E-02   max: -.1157E+00   D at   30  2
       a =  1.500      CL =  0.5728
      Cm = -0.0565     CD =  0.01097   =>   CDf =  0.00786    CDp =  0.00311

 Side 1  free  transition at x/c =  0.3515   48
 Side 2  free  transition at x/c =  0.1307   30

  57   rms: 0.7618E-02   max: -.1157E+00   D at   30  2
       a =  1.500      CL =  0.5728
      Cm = -0.0565     CD =  0.01097   =>   CDf =  0.00786    CDp =  0.00311

 Side 1  free  transition at x/c =  0.3515   48
 Side 2  free  transition at x/c =  0.1307   30

  58   rms: 0.7618E-02   max: -.1157E+00   D at   30  2
       a =  1.500      CL =  0.5728
      Cm = -0.0565     CD =  0.01097   =>   CDf =  0.00786    CDp =  0.00311

 Side 1  free  transition at x/c =  0.3515   48
 Side 2  free  transition at x/c =  0.1307   30

  59   rms: 0.7618E-02   max: -.1157E+00   D at   30  2
       a =  1.500      CL =  0.5728
      Cm = -0.0565     CD =  0.01097   =>   CDf =  0.00786    CDp =  0.00311

 Side 1  free  transition at x/c =  0.3515   48
 Side 2  free  transition at x/c =  0.1307   30

  60   rms: 0.7619E-02   max: -.1157E+00   D at   30  2
       a =  1.500      CL =  0.5728
      Cm = -0.0565     CD =  0.01097   =>   CDf =  0.00786    CDp =  0.00311

 Side 1  free  transition at x/c =  0.3515   48
 Side 2  free  transition at x/c =  0.1307   30

  61   rms: 0.7619E-02   max: -.1157E+00   D at   30  2
       a =  1.500      CL =  0.5728
      Cm = -0.0565     CD =  0.01097   =>   CDf =  0.00786    CDp =  0.00311

 Side 1  free  transition at x/c =  0.3515   48
 Side 2  free  transition at x/c =  0.1307   30

  62   rms: 0.7619E-02   max: -.1157E+00   D at   30  2
       a =  1.500      CL =  0.5728
      Cm = -0.0565     CD =  0.01097   =>   CDf =  0.00786    CDp =  0.00311

 Side 1  free  transition at x/c =  0.3515   48
 Side 2  free  transition at x/c =  0.1307   30

  63   rms: 0.7618E-02   max: -.1157E+00   D at   30  2
       a =  1.500      CL =  0.5728
      Cm = -0.0565     CD =  0.01097   =>   CDf =  0.00786    CDp =  0.00311

 Side 1  free  transition at x/c =  0.3515   48
 Side 2  free  transition at x/c =  0.1307   30

  64   rms: 0.7618E-02   max: -.1157E+00   D at   30  2
       a =  1.500      CL =  0.5728
      Cm = -0.0565     CD =  0.01097   =>   CDf =  0.00786    CDp =  0.00311

 Side 1  free  transition at x/c =  0.3515   48
 Side 2  free  transition at x/c =  0.1307   30

  65   rms: 0.7618E-02   max: -.1157E+00   D at   30  2
       a =  1.500      CL =  0.5728
      Cm = -0.0565     CD =  0.01097   =>   CDf =  0.00786    CDp =  0.00311

 Side 1  free  transition at x/c =  0.3515   48
 Side 2  free  transition at x/c =  0.1307   30

  66   rms: 0.7619E-02   max: -.1157E+00   D at   30  2
       a =  1.500      CL =  0.5728
      Cm = -0.0565     CD =  0.01097   =>   CDf =  0.00786    CDp =  0.00311

 Side 1  free  transition at x/c =  0.3515   48
 Side 2  free  transition at x/c =  0.1307   30

  67   rms: 0.7618E-02   max: -.1157E+00   D at   30  2
       a =  1.500      CL =  0.5728
      Cm = -0.0565     CD =  0.01097   =>   CDf =  0.00786    CDp =  0.00311

 Side 1  free  transition at x/c =  0.3515   48
 Side 2  free  transition at x/c =  0.1307   30

  68   rms: 0.7618E-02   max: -.1157E+00   D at   30  2
       a =  1.500      CL =  0.5728
      Cm = -0.0565     CD =  0.01097   =>   CDf =  0.00786    CDp =  0.00311

 Side 1  free  transition at x/c =  0.3515   48
 Side 2  free  transition at x/c =  0.1307   30

  69   rms: 0.7619E-02   max: -.1157E+00   D at   30  2
       a =  1.500      CL =  0.5728
      Cm = -0.0565     CD =  0.01097   =>   CDf =  0.00786    CDp =  0.00311

 Side 1  free  transition at x/c =  0.3515   48
 Side 2  free  transition at x/c =  0.1307   30

  70   rms: 0.7619E-02   max: -.1157E+00   D at   30  2
       a =  1.500      CL =  0.5728
      Cm = -0.0565     CD =  0.01097   =>   CDf =  0.00786    CDp =  0.00311

 Side 1  free  transition at x/c =  0.3515   48
 Side 2  free  transition at x/c =  0.1307   30

  71   rms: 0.7619E-02   max: -.1157E+00   D at   30  2
       a =  1.500      CL =  0.5728
      Cm = -0.0565     CD =  0.01097   =>   CDf =  0.00786    CDp =  0.00311

 Side 1  free  transition at x/c =  0.3515   48
 Side 2  free  transition at x/c =  0.1307   30

  72   rms: 0.7618E-02   max: -.1157E+00   D at   30  2
       a =  1.500      CL =  0.5728
      Cm = -0.0565     CD =  0.01097   =>   CDf =  0.00786    CDp =  0.00311

 Side 1  free  transition at x/c =  0.3515   48
 Side 2  free  transition at x/c =  0.1307   30

  73   rms: 0.7618E-02   max: -.1157E+00   D at   30  2
       a =  1.500      CL =  0.5728
      Cm = -0.0565     CD =  0.01097   =>   CDf =  0.00786    CDp =  0.00311

 Side 1  free  transition at x/c =  0.3515   48
 Side 2  free  transition at x/c =  0.1307   30

  74   rms: 0.7619E-02   max: -.1157E+00   D at   30  2
       a =  1.500      CL =  0.5728
      Cm = -0.0565     CD =  0.01097   =>   CDf =  0.00786    CDp =  0.00311

 Side 1  free  transition at x/c =  0.3515   48
 Side 2  free  transition at x/c =  0.1307   30

  75   rms: 0.7619E-02   max: -.1157E+00   D at   30  2
       a =  1.500      CL =  0.5728
      Cm = -0.0565     CD =  0.01097   =>   CDf =  0.00786    CDp =  0.00311

 Side 1  free  transition at x/c =  0.3515   48
 Side 2  free  transition at x/c =  0.1307   30

  76   rms: 0.7619E-02   max: -.1157E+00   D at   30  2
       a =  1.500      CL =  0.5728
      Cm = -0.0565     CD =  0.01097   =>   CDf =  0.00786    CDp =  0.00311

 Side 1  free  transition at x/c =  0.3515   48
 Side 2  free  transition at x/c =  0.1307   30

  77   rms: 0.7619E-02   max: -.1157E+00   D at   30  2
       a =  1.500      CL =  0.5728
      Cm = -0.0565     CD =  0.01097   =>   CDf =  0.00786    CDp =  0.00311

 Side 1  free  transition at x/c =  0.3515   48
 Side 2  free  transition at x/c =  0.1307   30

  78   rms: 0.7619E-02   max: -.1157E+00   D at   30  2
       a =  1.500      CL =  0.5728
      Cm = -0.0565     CD =  0.01097   =>   CDf =  0.00786    CDp =  0.00311

 Side 1  free  transition at x/c =  0.3515   48
 Side 2  free  transition at x/c =  0.1307   30

  79   rms: 0.7619E-02   max: -.1157E+00   D at   30  2
       a =  1.500      CL =  0.5728
      Cm = -0.0565     CD =  0.01097   =>   CDf =  0.00786    CDp =  0.00311

 Side 1  free  transition at x/c =  0.3515   48
 Side 2  free  transition at x/c =  0.1307   30

  80   rms: 0.7619E-02   max: -.1157E+00   D at   30  2
       a =  1.500      CL =  0.5728
      Cm = -0.0565     CD =  0.01097   =>   CDf =  0.00786    CDp =  0.00311

 Side 1  free  transition at x/c =  0.3515   48
 Side 2  free  transition at x/c =  0.1307   30

  81   rms: 0.7619E-02   max: -.1157E+00   D at   30  2
       a =  1.500      CL =  0.5728
      Cm = -0.0565     CD =  0.01097   =>   CDf =  0.00786    CDp =  0.00311

 Side 1  free  transition at x/c =  0.3515   48
 Side 2  free  transition at x/c =  0.1307   30

  82   rms: 0.7618E-02   max: -.1157E+00   D at   30  2
       a =  1.500      CL =  0.5728
      Cm = -0.0565     CD =  0.01097   =>   CDf =  0.00786    CDp =  0.00311

 Side 1  free  transition at x/c =  0.3515   48
 Side 2  free  transition at x/c =  0.1307   30

  83   rms: 0.7619E-02   max: -.1157E+00   D at   30  2
       a =  1.500      CL =  0.5728
      Cm = -0.0565     CD =  0.01097   =>   CDf =  0.00786    CDp =  0.00311

 Side 1  free  transition at x/c =  0.3515   48
 Side 2  free  transition at x/c =  0.1307   30

  84   rms: 0.7618E-02   max: -.1157E+00   D at   30  2
       a =  1.500      CL =  0.5728
      Cm = -0.0565     CD =  0.01097   =>   CDf =  0.00786    CDp =  0.00311

 Side 1  free  transition at x/c =  0.3515   48
 Side 2  free  transition at x/c =  0.1307   30

  85   rms: 0.7618E-02   max: -.1157E+00   D at   30  2
       a =  1.500      CL =  0.5728
      Cm = -0.0565     CD =  0.01097   =>   CDf =  0.00786    CDp =  0.00311

 Side 1  free  transition at x/c =  0.3515   48
 Side 2  free  transition at x/c =  0.1307   30

  86   rms: 0.7618E-02   max: -.1157E+00   D at   30  2
       a =  1.500      CL =  0.5728
      Cm = -0.0565     CD =  0.01097   =>   CDf =  0.00786    CDp =  0.00311

 Side 1  free  transition at x/c =  0.3515   48
 Side 2  free  transition at x/c =  0.1307   30

  87   rms: 0.7618E-02   max: -.1157E+00   D at   30  2
       a =  1.500      CL =  0.5728
      Cm = -0.0565     CD =  0.01097   =>   CDf =  0.00786    CDp =  0.00311

 Side 1  free  transition at x/c =  0.3515   48
 Side 2  free  transition at x/c =  0.1307   30

  88   rms: 0.7618E-02   max: -.1157E+00   D at   30  2
       a =  1.500      CL =  0.5728
      Cm = -0.0565     CD =  0.01097   =>   CDf =  0.00786    CDp =  0.00311

 Side 1  free  transition at x/c =  0.3515   48
 Side 2  free  transition at x/c =  0.1307   30

  89   rms: 0.7618E-02   max: -.1157E+00   D at   30  2
       a =  1.500      CL =  0.5728
      Cm = -0.0565     CD =  0.01097   =>   CDf =  0.00786    CDp =  0.00311

 Side 1  free  transition at x/c =  0.3515   48
 Side 2  free  transition at x/c =  0.1307   30

  90   rms: 0.7618E-02   max: -.1157E+00   D at   30  2
       a =  1.500      CL =  0.5728
      Cm = -0.0565     CD =  0.01097   =>   CDf =  0.00786    CDp =  0.00311

 Side 1  free  transition at x/c =  0.3515   48
 Side 2  free  transition at x/c =  0.1307   30

  91   rms: 0.7619E-02   max: -.1157E+00   D at   30  2
       a =  1.500      CL =  0.5728
      Cm = -0.0565     CD =  0.01097   =>   CDf =  0.00786    CDp =  0.00311

 Side 1  free  transition at x/c =  0.3515   48
 Side 2  free  transition at x/c =  0.1307   30

  92   rms: 0.7619E-02   max: -.1157E+00   D at   30  2
       a =  1.500      CL =  0.5728
      Cm = -0.0565     CD =  0.01097   =>   CDf =  0.00786    CDp =  0.00311

 Side 1  free  transition at x/c =  0.3515   48
 Side 2  free  transition at x/c =  0.1307   30

  93   rms: 0.7619E-02   max: -.1157E+00   D at   30  2
       a =  1.500      CL =  0.5728
      Cm = -0.0565     CD =  0.01097   =>   CDf =  0.00786    CDp =  0.00311

 Side 1  free  transition at x/c =  0.3515   48
 Side 2  free  transition at x/c =  0.1307   30

  94   rms: 0.7619E-02   max: -.1157E+00   D at   30  2
       a =  1.500      CL =  0.5728
      Cm = -0.0565     CD =  0.01097   =>   CDf =  0.00786    CDp =  0.00311

 Side 1  free  transition at x/c =  0.3515   48
 Side 2  free  transition at x/c =  0.1307   30

  95   rms: 0.7619E-02   max: -.1157E+00   D at   30  2
       a =  1.500      CL =  0.5728
      Cm = -0.0565     CD =  0.01097   =>   CDf =  0.00786    CDp =  0.00311

 Side 1  free  transition at x/c =  0.3515   48
 Side 2  free  transition at x/c =  0.1307   30

  96   rms: 0.7618E-02   max: -.1157E+00   D at   30  2
       a =  1.500      CL =  0.5728
      Cm = -0.0565     CD =  0.01097   =>   CDf =  0.00786    CDp =  0.00311

 Side 1  free  transition at x/c =  0.3515   48
 Side 2  free  transition at x/c =  0.1307   30

  97   rms: 0.7619E-02   max: -.1157E+00   D at   30  2
       a =  1.500      CL =  0.5728
      Cm = -0.0565     CD =  0.01097   =>   CDf =  0.00786    CDp =  0.00311

 Side 1  free  transition at x/c =  0.3515   48
 Side 2  free  transition at x/c =  0.1307   30

  98   rms: 0.7619E-02   max: -.1157E+00   D at   30  2
       a =  1.500      CL =  0.5728
      Cm = -0.0565     CD =  0.01097   =>   CDf =  0.00786    CDp =  0.00311

 Side 1  free  transition at x/c =  0.3515   48
 Side 2  free  transition at x/c =  0.1307   30

  99   rms: 0.7619E-02   max: -.1157E+00   D at   30  2
       a =  1.500      CL =  0.5728
      Cm = -0.0565     CD =  0.01097   =>   CDf =  0.00786    CDp =  0.00311

 Side 1  free  transition at x/c =  0.3515   48
 Side 2  free  transition at x/c =  0.1307   30

 100   rms: 0.7619E-02   max: -.1157E+00   D at   30  2
       a =  1.500      CL =  0.5728
      Cm = -0.0565     CD =  0.01097   =>   CDf =  0.00786    CDp =  0.00311

 Side 1  free  transition at x/c =  0.3515   48
 Side 2  free  transition at x/c =  0.1307   30

 101   rms: 0.7619E-02   max: -.1157E+00   D at   30  2
       a =  1.500      CL =  0.5728
      Cm = -0.0565     CD =  0.01097   =>   CDf =  0.00786    CDp =  0.00311

 Side 1  free  transition at x/c =  0.3515   48
 Side 2  free  transition at x/c =  0.1307   30

 102   rms: 0.7619E-02   max: -.1157E+00   D at   30  2
       a =  1.500      CL =  0.5728
      Cm = -0.0565     CD =  0.01097   =>   CDf =  0.00786    CDp =  0.00311

 Side 1  free  transition at x/c =  0.3515   48
 Side 2  free  transition at x/c =  0.1307   30

 103   rms: 0.7618E-02   max: -.1157E+00   D at   30  2
       a =  1.500      CL =  0.5728
      Cm = -0.0565     CD =  0.01097   =>   CDf =  0.00786    CDp =  0.00311

 Side 1  free  transition at x/c =  0.3515   48
 Side 2  free  transition at x/c =  0.1307   30

 104   rms: 0.7618E-02   max: -.1157E+00   D at   30  2
       a =  1.500      CL =  0.5728
      Cm = -0.0565     CD =  0.01097   =>   CDf =  0.00786    CDp =  0.00311

 Side 1  free  transition at x/c =  0.3515   48
 Side 2  free  transition at x/c =  0.1307   30

 105   rms: 0.7618E-02   max: -.1157E+00   D at   30  2
       a =  1.500      CL =  0.5728
      Cm = -0.0565     CD =  0.01097   =>   CDf =  0.00786    CDp =  0.00311

 Side 1  free  transition at x/c =  0.3515   48
 Side 2  free  transition at x/c =  0.1307   30

 106   rms: 0.7619E-02   max: -.1157E+00   D at   30  2
       a =  1.500      CL =  0.5728
      Cm = -0.0565     CD =  0.01097   =>   CDf =  0.00786    CDp =  0.00311

 Side 1  free  transition at x/c =  0.3515   48
 Side 2  free  transition at x/c =  0.1307   30

 107   rms: 0.7619E-02   max: -.1157E+00   D at   30  2
       a =  1.500      CL =  0.5728
      Cm = -0.0565     CD =  0.01097   =>   CDf =  0.00786    CDp =  0.00311

 Side 1  free  transition at x/c =  0.3515   48
 Side 2  free  transition at x/c =  0.1307   30

 108   rms: 0.7618E-02   max: -.1157E+00   D at   30  2
       a =  1.500      CL =  0.5728
      Cm = -0.0565     CD =  0.01097   =>   CDf =  0.00786    CDp =  0.00311

 Side 1  free  transition at x/c =  0.3515   48
 Side 2  free  transition at x/c =  0.1307   30

 109   rms: 0.7619E-02   max: -.1157E+00   D at   30  2
       a =  1.500      CL =  0.5728
      Cm = -0.0565     CD =  0.01097   =>   CDf =  0.00786    CDp =  0.00311

 Side 1  free  transition at x/c =  0.3515   48
 Side 2  free  transition at x/c =  0.1307   30

 110   rms: 0.7618E-02   max: -.1157E+00   D at   30  2
       a =  1.500      CL =  0.5728
      Cm = -0.0565     CD =  0.01097   =>   CDf =  0.00786    CDp =  0.00311

 Side 1  free  transition at x/c =  0.3515   48
 Side 2  free  transition at x/c =  0.1307   30

 111   rms: 0.7618E-02   max: -.1157E+00   D at   30  2
       a =  1.500      CL =  0.5728
      Cm = -0.0565     CD =  0.01097   =>   CDf =  0.00786    CDp =  0.00311

 Side 1  free  transition at x/c =  0.3515   48
 Side 2  free  transition at x/c =  0.1307   30

 112   rms: 0.7619E-02   max: -.1157E+00   D at   30  2
       a =  1.500      CL =  0.5728
      Cm = -0.0565     CD =  0.01097   =>   CDf =  0.00786    CDp =  0.00311

 Side 1  free  transition at x/c =  0.3515   48
 Side 2  free  transition at x/c =  0.1307   30

 113   rms: 0.7618E-02   max: -.1157E+00   D at   30  2
       a =  1.500      CL =  0.5728
      Cm = -0.0565     CD =  0.01097   =>   CDf =  0.00786    CDp =  0.00311

 Side 1  free  transition at x/c =  0.3515   48
 Side 2  free  transition at x/c =  0.1307   30

 114   rms: 0.7619E-02   max: -.1157E+00   D at   30  2
       a =  1.500      CL =  0.5728
      Cm = -0.0565     CD =  0.01097   =>   CDf =  0.00786    CDp =  0.00311

 Side 1  free  transition at x/c =  0.3515   48
 Side 2  free  transition at x/c =  0.1307   30

 115   rms: 0.7618E-02   max: -.1157E+00   D at   30  2
       a =  1.500      CL =  0.5728
      Cm = -0.0565     CD =  0.01097   =>   CDf =  0.00786    CDp =  0.00311

 Side 1  free  transition at x/c =  0.3515   48
 Side 2  free  transition at x/c =  0.1307   30

 116   rms: 0.7619E-02   max: -.1157E+00   D at   30  2
       a =  1.500      CL =  0.5728
      Cm = -0.0565     CD =  0.01097   =>   CDf =  0.00786    CDp =  0.00311

 Side 1  free  transition at x/c =  0.3515   48
 Side 2  free  transition at x/c =  0.1307   30

 117   rms: 0.7619E-02   max: -.1157E+00   D at   30  2
       a =  1.500      CL =  0.5728
      Cm = -0.0565     CD =  0.01097   =>   CDf =  0.00786    CDp =  0.00311

 Side 1  free  transition at x/c =  0.3515   48
 Side 2  free  transition at x/c =  0.1307   30

 118   rms: 0.7618E-02   max: -.1157E+00   D at   30  2
       a =  1.500      CL =  0.5728
      Cm = -0.0565     CD =  0.01097   =>   CDf =  0.00786    CDp =  0.00311

 Side 1  free  transition at x/c =  0.3515   48
 Side 2  free  transition at x/c =  0.1307   30

 119   rms: 0.7619E-02   max: -.1157E+00   D at   30  2
       a =  1.500      CL =  0.5728
      Cm = -0.0565     CD =  0.01097   =>   CDf =  0.00786    CDp =  0.00311

 Side 1  free  transition at x/c =  0.3515   48
 Side 2  free  transition at x/c =  0.1307   30

 120   rms: 0.7619E-02   max: -.1157E+00   D at   30  2
       a =  1.500      CL =  0.5728
      Cm = -0.0565     CD =  0.01097   =>   CDf =  0.00786    CDp =  0.00311

 Side 1  free  transition at x/c =  0.3515   48
 Side 2  free  transition at x/c =  0.1307   30

 121   rms: 0.7619E-02   max: -.1157E+00   D at   30  2
       a =  1.500      CL =  0.5728
      Cm = -0.0565     CD =  0.01097   =>   CDf =  0.00786    CDp =  0.00311

 Side 1  free  transition at x/c =  0.3515   48
 Side 2  free  transition at x/c =  0.1307   30

 122   rms: 0.7619E-02   max: -.1157E+00   D at   30  2
       a =  1.500      CL =  0.5728
      Cm = -0.0565     CD =  0.01097   =>   CDf =  0.00786    CDp =  0.00311

 Side 1  free  transition at x/c =  0.3515   48
 Side 2  free  transition at x/c =  0.1307   30

 123   rms: 0.7618E-02   max: -.1157E+00   D at   30  2
       a =  1.500      CL =  0.5728
      Cm = -0.0565     CD =  0.01097   =>   CDf =  0.00786    CDp =  0.00311

 Side 1  free  transition at x/c =  0.3515   48
 Side 2  free  transition at x/c =  0.1307   30

 124   rms: 0.7619E-02   max: -.1157E+00   D at   30  2
       a =  1.500      CL =  0.5728
      Cm = -0.0565     CD =  0.01097   =>   CDf =  0.00786    CDp =  0.00311

 Side 1  free  transition at x/c =  0.3515   48
 Side 2  free  transition at x/c =  0.1307   30

 125   rms: 0.7619E-02   max: -.1157E+00   D at   30  2
       a =  1.500      CL =  0.5728
      Cm = -0.0565     CD =  0.01097   =>   CDf =  0.00786    CDp =  0.00311

 Side 1  free  transition at x/c =  0.3515   48
 Side 2  free  transition at x/c =  0.1307   30

 126   rms: 0.7619E-02   max: -.1157E+00   D at   30  2
       a =  1.500      CL =  0.5728
      Cm = -0.0565     CD =  0.01097   =>   CDf =  0.00786    CDp =  0.00311

 Side 1  free  transition at x/c =  0.3515   48
 Side 2  free  transition at x/c =  0.1307   30

 127   rms: 0.7618E-02   max: -.1157E+00   D at   30  2
       a =  1.500      CL =  0.5728
      Cm = -0.0565     CD =  0.01097   =>   CDf =  0.00786    CDp =  0.00311

 Side 1  free  transition at x/c =  0.3515   48
 Side 2  free  transition at x/c =  0.1307   30

 128   rms: 0.7618E-02   max: -.1157E+00   D at   30  2
       a =  1.500      CL =  0.5728
      Cm = -0.0565     CD =  0.01097   =>   CDf =  0.00786    CDp =  0.00311

 Side 1  free  transition at x/c =  0.3515   48
 Side 2  free  transition at x/c =  0.1307   30

 129   rms: 0.7619E-02   max: -.1157E+00   D at   30  2
       a =  1.500      CL =  0.5728
      Cm = -0.0565     CD =  0.01097   =>   CDf =  0.00786    CDp =  0.00311

 Side 1  free  transition at x/c =  0.3515   48
 Side 2  free  transition at x/c =  0.1307   30

 130   rms: 0.7618E-02   max: -.1157E+00   D at   30  2
       a =  1.500      CL =  0.5728
      Cm = -0.0565     CD =  0.01097   =>   CDf =  0.00786    CDp =  0.00311

 Side 1  free  transition at x/c =  0.3515   48
 Side 2  free  transition at x/c =  0.1307   30

 131   rms: 0.7618E-02   max: -.1157E+00   D at   30  2
       a =  1.500      CL =  0.5728
      Cm = -0.0565     CD =  0.01097   =>   CDf =  0.00786    CDp =  0.00311

 Side 1  free  transition at x/c =  0.3515   48
 Side 2  free  transition at x/c =  0.1307   30

 132   rms: 0.7619E-02   max: -.1157E+00   D at   30  2
       a =  1.500      CL =  0.5728
      Cm = -0.0565     CD =  0.01097   =>   CDf =  0.00786    CDp =  0.00311

 Side 1  free  transition at x/c =  0.3515   48
 Side 2  free  transition at x/c =  0.1307   30

 133   rms: 0.7619E-02   max: -.1157E+00   D at   30  2
       a =  1.500      CL =  0.5728
      Cm = -0.0565     CD =  0.01097   =>   CDf =  0.00786    CDp =  0.00311

 Side 1  free  transition at x/c =  0.3515   48
 Side 2  free  transition at x/c =  0.1307   30

 134   rms: 0.7619E-02   max: -.1157E+00   D at   30  2
       a =  1.500      CL =  0.5728
      Cm = -0.0565     CD =  0.01097   =>   CDf =  0.00786    CDp =  0.00311

 Side 1  free  transition at x/c =  0.3515   48
 Side 2  free  transition at x/c =  0.1307   30

 135   rms: 0.7618E-02   max: -.1157E+00   D at   30  2
       a =  1.500      CL =  0.5728
      Cm = -0.0565     CD =  0.01097   =>   CDf =  0.00786    CDp =  0.00311

 Side 1  free  transition at x/c =  0.3515   48
 Side 2  free  transition at x/c =  0.1307   30

 136   rms: 0.7619E-02   max: -.1157E+00   D at   30  2
       a =  1.500      CL =  0.5728
      Cm = -0.0565     CD =  0.01097   =>   CDf =  0.00786    CDp =  0.00311

 Side 1  free  transition at x/c =  0.3515   48
 Side 2  free  transition at x/c =  0.1307   30

 137   rms: 0.7619E-02   max: -.1157E+00   D at   30  2
       a =  1.500      CL =  0.5728
      Cm = -0.0565     CD =  0.01097   =>   CDf =  0.00786    CDp =  0.00311

 Side 1  free  transition at x/c =  0.3515   48
 Side 2  free  transition at x/c =  0.1307   30

 138   rms: 0.7619E-02   max: -.1157E+00   D at   30  2
       a =  1.500      CL =  0.5728
      Cm = -0.0565     CD =  0.01097   =>   CDf =  0.00786    CDp =  0.00311

 Side 1  free  transition at x/c =  0.3515   48
 Side 2  free  transition at x/c =  0.1307   30

 139   rms: 0.7619E-02   max: -.1157E+00   D at   30  2
       a =  1.500      CL =  0.5728
      Cm = -0.0565     CD =  0.01097   =>   CDf =  0.00786    CDp =  0.00311

 Side 1  free  transition at x/c =  0.3515   48
 Side 2  free  transition at x/c =  0.1307   30

 140   rms: 0.7619E-02   max: -.1157E+00   D at   30  2
       a =  1.500      CL =  0.5728
      Cm = -0.0565     CD =  0.01097   =>   CDf =  0.00786    CDp =  0.00311

 Side 1  free  transition at x/c =  0.3515   48
 Side 2  free  transition at x/c =  0.1307   30

 141   rms: 0.7619E-02   max: -.1157E+00   D at   30  2
       a =  1.500      CL =  0.5728
      Cm = -0.0565     CD =  0.01097   =>   CDf =  0.00786    CDp =  0.00311

 Side 1  free  transition at x/c =  0.3515   48
 Side 2  free  transition at x/c =  0.1307   30

 142   rms: 0.7619E-02   max: -.1157E+00   D at   30  2
       a =  1.500      CL =  0.5728
      Cm = -0.0565     CD =  0.01097   =>   CDf =  0.00786    CDp =  0.00311

 Side 1  free  transition at x/c =  0.3515   48
 Side 2  free  transition at x/c =  0.1307   30

 143   rms: 0.7619E-02   max: -.1157E+00   D at   30  2
       a =  1.500      CL =  0.5728
      Cm = -0.0565     CD =  0.01097   =>   CDf =  0.00786    CDp =  0.00311

 Side 1  free  transition at x/c =  0.3515   48
 Side 2  free  transition at x/c =  0.1307   30

 144   rms: 0.7619E-02   max: -.1157E+00   D at   30  2
       a =  1.500      CL =  0.5728
      Cm = -0.0565     CD =  0.01097   =>   CDf =  0.00786    CDp =  0.00311

 Side 1  free  transition at x/c =  0.3515   48
 Side 2  free  transition at x/c =  0.1307   30

 145   rms: 0.7619E-02   max: -.1157E+00   D at   30  2
       a =  1.500      CL =  0.5728
      Cm = -0.0565     CD =  0.01097   =>   CDf =  0.00786    CDp =  0.00311

 Side 1  free  transition at x/c =  0.3515   48
 Side 2  free  transition at x/c =  0.1307   30

 146   rms: 0.7618E-02   max: -.1157E+00   D at   30  2
       a =  1.500      CL =  0.5728
      Cm = -0.0565     CD =  0.01097   =>   CDf =  0.00786    CDp =  0.00311

 Side 1  free  transition at x/c =  0.3515   48
 Side 2  free  transition at x/c =  0.1307   30

 147   rms: 0.7618E-02   max: -.1157E+00   D at   30  2
       a =  1.500      CL =  0.5728
      Cm = -0.0565     CD =  0.01097   =>   CDf =  0.00786    CDp =  0.00311

 Side 1  free  transition at x/c =  0.3515   48
 Side 2  free  transition at x/c =  0.1307   30

 148   rms: 0.7618E-02   max: -.1157E+00   D at   30  2
       a =  1.500      CL =  0.5728
      Cm = -0.0565     CD =  0.01097   =>   CDf =  0.00786    CDp =  0.00311

 Side 1  free  transition at x/c =  0.3515   48
 Side 2  free  transition at x/c =  0.1307   30

 149   rms: 0.7618E-02   max: -.1157E+00   D at   30  2
       a =  1.500      CL =  0.5728
      Cm = -0.0565     CD =  0.01097   =>   CDf =  0.00786    CDp =  0.00311

 Side 1  free  transition at x/c =  0.3515   48
 Side 2  free  transition at x/c =  0.1307   30

 150   rms: 0.7619E-02   max: -.1157E+00   D at   30  2
       a =  1.500      CL =  0.5728
      Cm = -0.0565     CD =  0.01097   =>   CDf =  0.00786    CDp =  0.00311

 Side 1  free  transition at x/c =  0.3515   48
 Side 2  free  transition at x/c =  0.1307   30

 151   rms: 0.7619E-02   max: -.1157E+00   D at   30  2
       a =  1.500      CL =  0.5728
      Cm = -0.0565     CD =  0.01097   =>   CDf =  0.00786    CDp =  0.00311

 Side 1  free  transition at x/c =  0.3515   48
 Side 2  free  transition at x/c =  0.1307   30

 152   rms: 0.7619E-02   max: -.1157E+00   D at   30  2
       a =  1.500      CL =  0.5728
      Cm = -0.0565     CD =  0.01097   =>   CDf =  0.00786    CDp =  0.00311

 Side 1  free  transition at x/c =  0.3515   48
 Side 2  free  transition at x/c =  0.1307   30

 153   rms: 0.7619E-02   max: -.1157E+00   D at   30  2
       a =  1.500      CL =  0.5728
      Cm = -0.0565     CD =  0.01097   =>   CDf =  0.00786    CDp =  0.00311

 Side 1  free  transition at x/c =  0.3515   48
 Side 2  free  transition at x/c =  0.1307   30

 154   rms: 0.7619E-02   max: -.1157E+00   D at   30  2
       a =  1.500      CL =  0.5728
      Cm = -0.0565     CD =  0.01097   =>   CDf =  0.00786    CDp =  0.00311

 Side 1  free  transition at x/c =  0.3515   48
 Side 2  free  transition at x/c =  0.1307   30

 155   rms: 0.7619E-02   max: -.1157E+00   D at   30  2
       a =  1.500      CL =  0.5728
      Cm = -0.0565     CD =  0.01097   =>   CDf =  0.00786    CDp =  0.00311
 VISCAL:  Convergence failed
 Calculating wake trajectory ...
 Calculating source influence matrix ...

 Solving BL system ...

 Side 1  free  transition at x/c =  0.3515   48
 Side 2  free  transition at x/c =  0.1307   30

   1   rms: 0.8330E-01   max: 0.5455E+00   C at   30  2
       a =  2.000      CL =  0.6259
      Cm = -0.0555     CD =  0.01114   =>   CDf =  0.00786    CDp =  0.00328

 Side 1  free  transition at x/c =  0.3408   47
 Side 2  free  transition at x/c =  0.1493   32

   2   rms: 0.3703E-01   max: -.3744E+00   C at   32  2
       a =  2.000      CL =  0.6245
      Cm = -0.0552     CD =  0.01086   =>   CDf =  0.00786    CDp =  0.00300

 Side 1  free  transition at x/c =  0.3401   47
 Side 2  free  transition at x/c =  0.1779   33

   3   rms: 0.2300E-01   max: -.4575E+00   C at   33  2
       a =  2.000      CL =  0.6242
      Cm = -0.0552     CD =  0.01086   =>   CDf =  0.00773    CDp =  0.00314

 Side 1  free  transition at x/c =  0.3400   47
 Side 2  free  transition at x/c =  0.1717   33

   4   rms: 0.7268E-02   max: 0.1577E+00   C at   33  2
       a =  2.000      CL =  0.6245
      Cm = -0.0552     CD =  0.01090   =>   CDf =  0.00773    CDp =  0.00317

 Side 1  free  transition at x/c =  0.3399   47
 Side 2  free  transition at x/c =  0.1679   33

   5   rms: 0.2644E-03   max: -.4909E-02   C at   33  2
       a =  2.000      CL =  0.6245
      Cm = -0.0552     CD =  0.01090   =>   CDf =  0.00774    CDp =  0.00315

 Side 1  free  transition at x/c =  0.3399   47
 Side 2  free  transition at x/c =  0.1680   33

   6   rms: 0.1747E-05   max: -.2198E-04   C at   33  2
       a =  2.000      CL =  0.6245
      Cm = -0.0552     CD =  0.01090   =>   CDf =  0.00774    CDp =  0.00315
 plradd ia,ip,cpol           12           0  0.15867384    

 Point added to stored polar  1
 Point written to save file  mue139_Re600k.base.pol                          
 Dump file unspecified or not available
 Calculating wake trajectory ...
 Calculating source influence matrix ...

 Solving BL system ...

 Side 1  free  transition at x/c =  0.3399   47
 Side 2  free  transition at x/c =  0.1680   33

   1   rms: 0.1992E+00   max: -.3575E+01   C at   33  2   RLX: 0.140
       a =  2.500      CL =  0.6315
      Cm = -0.0551     CD =  0.01085   =>   CDf =  0.00765    CDp =  0.00320

 Side 1  free  transition at x/c =  0.3383   48
 Side 2  free  transition at x/c =  0.1810   33

   2   rms: 0.2100E+00   max: -.3240E+01   C at   33  2   RLX: 0.154
       a =  2.500      CL =  0.6384
      Cm = -0.0548     CD =  0.01081   =>   CDf =  0.00771    CDp =  0.00310

 Side 1  free  transition at x/c =  0.3367   48
 Side 2  free  transition at x/c =  0.2111   34

   3   rms: 0.5770E+00   max: -.1349E+02   C at   34  2   RLX: 0.037
       a =  2.500      CL =  0.6397
      Cm = -0.0547     CD =  0.01077   =>   CDf =  0.00761    CDp =  0.00316

 Side 1  free  transition at x/c =  0.3364   48
 Side 2  free  transition at x/c =  0.2205   35

   4   rms: 0.5393E+00   max: -.1231E+02   C at   35  2   RLX: 0.041
       a =  2.500      CL =  0.6410
      Cm = -0.0547     CD =  0.01074   =>   CDf =  0.00758    CDp =  0.00315

 Side 1  free  transition at x/c =  0.3361   48
 Side 2  free  transition at x/c =  0.2362   36

   5   rms: 0.9679E+00   max: -.2205E+02   C at   36  2   RLX: 0.023
       a =  2.500      CL =  0.6415
      Cm = -0.0546     CD =  0.01070   =>   CDf =  0.00753    CDp =  0.00317

 Side 1  free  transition at x/c =  0.3359   48
 Side 2  free  transition at x/c =  0.2393   36

   6   rms: 0.6554E+00   max: -.1511E+02   C at   36  2   RLX: 0.033
       a =  2.500      CL =  0.6426
      Cm = -0.0546     CD =  0.01070   =>   CDf =  0.00753    CDp =  0.00317

 Side 1  free  transition at x/c =  0.3357   48
 Side 2  free  transition at x/c =  0.2531   36

   7   rms: 0.8373E+00   max: -.1866E+02   C at   36  2   RLX: 0.027
       a =  2.500      CL =  0.6434
      Cm = -0.0545     CD =  0.01068   =>   CDf =  0.00749    CDp =  0.00319

 Side 1  free  transition at x/c =  0.3355   48
 Side 2  free  transition at x/c =  0.2639   37

   8   rms: 0.5889E+00   max: -.1347E+02   C at   37  2   RLX: 0.037
       a =  2.500      CL =  0.6443
      Cm = -0.0545     CD =  0.01066   =>   CDf =  0.00746    CDp =  0.00320

 Side 1  free  transition at x/c =  0.3352   48
 Side 2  free  transition at x/c =  0.2796   38

   9   rms: 0.3712E+00   max: -.8316E+01   C at   38  2   RLX: 0.060
       a =  2.500      CL =  0.6458
      Cm = -0.0544     CD =  0.01063   =>   CDf =  0.00742    CDp =  0.00321

 Side 1  free  transition at x/c =  0.3348   48
 Side 2  free  transition at x/c =  0.2909   39

  10   rms: 0.2338E+00   max: -.4470E+01   C at   39  2   RLX: 0.112
       a =  2.500      CL =  0.6489
      Cm = -0.0543     CD =  0.01060   =>   CDf =  0.00741    CDp =  0.00319

 Side 1  free  transition at x/c =  0.3341   48
 Side 2  free  transition at x/c =  0.3054   39

  11   rms: 0.1342E+00   max: -.2842E+01   C at   39  2   RLX: 0.176
       a =  2.500      CL =  0.6534
      Cm = -0.0542     CD =  0.01062   =>   CDf =  0.00738    CDp =  0.00324

 Side 1  free  transition at x/c =  0.3331   48
 Side 2  free  transition at x/c =  0.3289   41

  12   rms: 0.1211E+00   max: -.2275E+01   C at   41  2   RLX: 0.220
       a =  2.500      CL =  0.6571
      Cm = -0.0540     CD =  0.01055   =>   CDf =  0.00732    CDp =  0.00323

 Side 1  free  transition at x/c =  0.3320   48
 Side 2  free  transition at x/c =  0.3434   41

  13   rms: 0.6728E-01   max: -.1365E+01   C at   41  2   RLX: 0.366
       a =  2.500      CL =  0.6629
      Cm = -0.0538     CD =  0.01057   =>   CDf =  0.00730    CDp =  0.00328

 Side 1  free  transition at x/c =  0.3307   48
 Side 2  free  transition at x/c =  0.3650   43

  14   rms: 0.6324E-01   max: -.1230E+01   C at   43  2   RLX: 0.407
       a =  2.500      CL =  0.6662
      Cm = -0.0536     CD =  0.01051   =>   CDf =  0.00725    CDp =  0.00326

 Side 1  free  transition at x/c =  0.3297   48
 Side 2  free  transition at x/c =  0.3832   44

  15   rms: 0.7039E-01   max: -.1506E+01   C at   44  2   RLX: 0.332
       a =  2.500      CL =  0.6677
      Cm = -0.0535     CD =  0.01047   =>   CDf =  0.00720    CDp =  0.00328

 Side 1  free  transition at x/c =  0.3292   48
 Side 2  free  transition at x/c =  0.3994   44

  16   rms: 0.8831E-01   max: -.1876E+01   C at   44  2   RLX: 0.266
       a =  2.500      CL =  0.6684
      Cm = -0.0534     CD =  0.01045   =>   CDf =  0.00715    CDp =  0.00330

 Side 1  free  transition at x/c =  0.3290   48
 Side 2  free  transition at x/c =  0.4118   45

  17   rms: 0.8735E-01   max: -.1893E+01   C at   45  2   RLX: 0.264
       a =  2.500      CL =  0.6687
      Cm = -0.0533     CD =  0.01042   =>   CDf =  0.00712    CDp =  0.00331

 Side 1  free  transition at x/c =  0.3288   48
 Side 2  free  transition at x/c =  0.4263   46

  18   rms: 0.1010E+00   max: -.2203E+01   C at   46  2   RLX: 0.227
       a =  2.500      CL =  0.6687
      Cm = -0.0532     CD =  0.01038   =>   CDf =  0.00707    CDp =  0.00331

 Side 1  free  transition at x/c =  0.3287   48
 Side 2  free  transition at x/c =  0.4324   46

  19   rms: 0.6559E-01   max: -.1399E+01   C at   46  2   RLX: 0.357
       a =  2.500      CL =  0.6691
      Cm = -0.0532     CD =  0.01038   =>   CDf =  0.00706    CDp =  0.00332

 Side 1  free  transition at x/c =  0.3285   48
 Side 2  free  transition at x/c =  0.4443   47

  20   rms: 0.5524E-01   max: -.1204E+01   C at   47  2   RLX: 0.415
       a =  2.500      CL =  0.6690
      Cm = -0.0531     CD =  0.01035   =>   CDf =  0.00703    CDp =  0.00332

 Side 1  free  transition at x/c =  0.3284   48
 Side 2  free  transition at x/c =  0.4561   47

  21   rms: 0.4364E-01   max: -.9055E+00   C at   47  2   RLX: 0.552
       a =  2.500      CL =  0.6691
      Cm = -0.0531     CD =  0.01033   =>   CDf =  0.00700    CDp =  0.00333

 Side 1  free  transition at x/c =  0.3283   48
 Side 2  free  transition at x/c =  0.4748   48

  22   rms: 0.2463E-01   max: -.5096E+00   C at   48  2   RLX: 0.981
       a =  2.500      CL =  0.6687
      Cm = -0.0529     CD =  0.01028   =>   CDf =  0.00695    CDp =  0.00333

 Side 1  free  transition at x/c =  0.3283   48
 Side 2  free  transition at x/c =  0.4683   48

  23   rms: 0.2019E-01   max: -.4318E+00   C at   48  2
       a =  2.500      CL =  0.6690
      Cm = -0.0530     CD =  0.01030   =>   CDf =  0.00697    CDp =  0.00333

 Side 1  free  transition at x/c =  0.3283   48
 Side 2  free  transition at x/c =  0.4920   49

  24   rms: 0.1094E-01   max: 0.2271E+00   C at   49  2
       a =  2.500      CL =  0.6688
      Cm = -0.0530     CD =  0.01029   =>   CDf =  0.00691    CDp =  0.00339

 Side 1  free  transition at x/c =  0.3283   48
 Side 2  free  transition at x/c =  0.4822   49

  25   rms: 0.3838E-02   max: -.8311E-01   C at   49  2
       a =  2.500      CL =  0.6689
      Cm = -0.0530     CD =  0.01029   =>   CDf =  0.00693    CDp =  0.00336

 Side 1  free  transition at x/c =  0.3283   48
 Side 2  free  transition at x/c =  0.4850   49

  26   rms: 0.3914E-04   max: -.7841E-03   C at   49  2
       a =  2.500      CL =  0.6689
      Cm = -0.0530     CD =  0.01029   =>   CDf =  0.00692    CDp =  0.00337
 plradd ia,ip,cpol           13           0  0.15867384    

 Point added to stored polar  1
 Point written to save file  mue139_Re600k.base.pol                          
 Dump file unspecified or not available
 Calculating wake trajectory ...
 Calculating source influence matrix ...

 Solving BL system ...

 Side 1  free  transition at x/c =  0.3283   48
 Side 2  free  transition at x/c =  0.4851   49

   1   rms: 0.9228E+00   max: -.1972E+02   C at   49  2   RLX: 0.025
       a =  3.000      CL =  0.6696
      Cm = -0.0528     CD =  0.01026   =>   CDf =  0.00692    CDp =  0.00334

 Side 1  free  transition at x/c =  0.3280   48
 Side 2  free  transition at x/c =  0.4885   49

   2   rms: 0.7733E+00   max: -.1633E+02   C at   49  2   RLX: 0.031
       a =  3.000      CL =  0.6709
      Cm = -0.0528     CD =  0.01027   =>   CDf =  0.00692    CDp =  0.00335

 Side 1  free  transition at x/c =  0.3276   47
 Side 2  free  transition at x/c =  0.5183   51

   3   rms: 0.1143E+01   max: -.2451E+02   C at   51  2   RLX: 0.020
       a =  3.000      CL =  0.6711
      Cm = -0.0526     CD =  0.01018   =>   CDf =  0.00684    CDp =  0.00335

 Side 1  free  transition at x/c =  0.3275   47
 Side 2  free  transition at x/c =  0.5182   51

   4   rms: 0.6980E+00   max: -.1490E+02   C at   51  2   RLX: 0.034
       a =  3.000      CL =  0.6724
      Cm = -0.0526     CD =  0.01018   =>   CDf =  0.00684    CDp =  0.00334

 Side 1  free  transition at x/c =  0.3273   47
 Side 2  free  transition at x/c =  0.5462   52

   5   rms: 0.1861E+01   max: -.3840E+02   C at   52  2   RLX: 0.013
       a =  3.000      CL =  0.6724
      Cm = -0.0524     CD =  0.01011   =>   CDf =  0.00676    CDp =  0.00336

 Side 1  free  transition at x/c =  0.3272   47
 Side 2  free  transition at x/c =  0.5655   53

   6   rms: 0.2109E+01   max: -.4338E+02   C at   53  2   RLX: 0.012
       a =  3.000      CL =  0.6723
      Cm = -0.0523     CD =  0.01006   =>   CDf =  0.00670    CDp =  0.00336

 Side 1  free  transition at x/c =  0.3272   47
 Side 2  free  transition at x/c =  0.5848   54

   7   rms: 0.2272E+01   max: -.4655E+02   C at   54  2   RLX: 0.011
       a =  3.000      CL =  0.6722
      Cm = -0.0521     CD =  0.01001   =>   CDf =  0.00665    CDp =  0.00336

 Side 1  free  transition at x/c =  0.3271   47
 Side 2  free  transition at x/c =  0.6008   55

   8   rms: 0.2182E+01   max: -.4510E+02   C at   55  2   RLX: 0.011
       a =  3.000      CL =  0.6720
      Cm = -0.0520     CD =  0.00996   =>   CDf =  0.00660    CDp =  0.00336

 Side 1  free  transition at x/c =  0.3271   47
 Side 2  free  transition at x/c =  0.6092   55

   9   rms: 0.2025E+01   max: -.4006E+02   C at   55  2   RLX: 0.012
       a =  3.000      CL =  0.6720
      Cm = -0.0519     CD =  0.00994   =>   CDf =  0.00657    CDp =  0.00337

 Side 1  free  transition at x/c =  0.3270   47
 Side 2  free  transition at x/c =  0.6132   56

  10   rms: 0.1246E+01   max: -.2629E+02   C at   56  2   RLX: 0.019
       a =  3.000      CL =  0.6722
      Cm = -0.0518     CD =  0.00992   =>   CDf =  0.00656    CDp =  0.00336

 Side 1  free  transition at x/c =  0.3269   47
 Side 2  free  transition at x/c =  0.6130   56

  11   rms: 0.9529E+00   max: -.2013E+02   C at   56  2   RLX: 0.025
       a =  3.000      CL =  0.6727
      Cm = -0.0517     CD =  0.00992   =>   CDf =  0.00656    CDp =  0.00336

 Side 1  free  transition at x/c =  0.3268   47
 Side 2  free  transition at x/c =  0.6169   56

  12   rms: 0.8552E+00   max: -.1785E+02   C at   56  2   RLX: 0.028
       a =  3.000      CL =  0.6734
      Cm = -0.0517     CD =  0.00991   =>   CDf =  0.00655    CDp =  0.00336

 Side 1  free  transition at x/c =  0.3267   47
 Side 2  free  transition at x/c =  0.6239   56

  13   rms: 0.9334E+00   max: -.1874E+02   C at   56  2   RLX: 0.027
       a =  3.000      CL =  0.6740
      Cm = -0.0516     CD =  0.00989   =>   CDf =  0.00652    CDp =  0.00337

 Side 1  free  transition at x/c =  0.3265   47
 Side 2  free  transition at x/c =  0.6523   58

  14   rms: 0.1549E+01   max: -.3150E+02   C at   58  2   RLX: 0.016
       a =  3.000      CL =  0.6737
      Cm = -0.0513     CD =  0.00980   =>   CDf =  0.00642    CDp =  0.00337

 Side 1  free  transition at x/c =  0.3264   47
 Side 2  free  transition at x/c =  0.6693   59

  15   rms: 0.1526E+01   max: -.3115E+02   C at   59  2   RLX: 0.016
       a =  3.000      CL =  0.6734
      Cm = -0.0511     CD =  0.00974   =>   CDf =  0.00637    CDp =  0.00338

 Side 1  free  transition at x/c =  0.3264   47
 Side 2  free  transition at x/c =  0.6909   60

  16   rms: 0.1595E+01   max: -.3242E+02   C at   60  2   RLX: 0.015
       a =  3.000      CL =  0.6730
      Cm = -0.0509     CD =  0.00969   =>   CDf =  0.00631    CDp =  0.00338

 Side 1  free  transition at x/c =  0.3263   47
 Side 2  free  transition at x/c =  0.7135   61

  17   rms: 0.1717E+01   max: -.3453E+02   C at   61  2   RLX: 0.014
       a =  3.000      CL =  0.6726
      Cm = -0.0507     CD =  0.00963   =>   CDf =  0.00625    CDp =  0.00338

 Side 1  free  transition at x/c =  0.3263   47
 Side 2  free  transition at x/c =  0.7342   62

  18   rms: 0.1772E+01   max: -.3541E+02   C at   62  2   RLX: 0.014
       a =  3.000      CL =  0.6720
      Cm = -0.0504     CD =  0.00957   =>   CDf =  0.00619    CDp =  0.00339

 Side 1  free  transition at x/c =  0.3263   47
 Side 2  free  transition at x/c =  0.7538   63

  19   rms: 0.1806E+01   max: -.3601E+02   C at   63  2   RLX: 0.014
       a =  3.000      CL =  0.6715
      Cm = -0.0502     CD =  0.00951   =>   CDf =  0.00612    CDp =  0.00339

 Side 1  free  transition at x/c =  0.3262   47
 Side 2  free  transition at x/c =  0.7735   64

  20   rms: 0.1897E+01   max: -.3776E+02   C at   64  2   RLX: 0.013
       a =  3.000      CL =  0.6710
      Cm = -0.0499     CD =  0.00946   =>   CDf =  0.00606    CDp =  0.00339

 Side 1  free  transition at x/c =  0.3262   47
 Side 2  free  transition at x/c =  0.7936   65

  21   rms: 0.2150E+01   max: -.4266E+02   C at   65  2   RLX: 0.012
       a =  3.000      CL =  0.6705
      Cm = -0.0497     CD =  0.00940   =>   CDf =  0.00600    CDp =  0.00340

 Side 1  free  transition at x/c =  0.3262   47
 Side 2  free  transition at x/c =  0.8142   66

  22   rms: 0.3000E+01   max: -.5921E+02   C at   66  2   RLX: 0.008
       a =  3.000      CL =  0.6703
      Cm = -0.0495     CD =  0.00934   =>   CDf =  0.00594    CDp =  0.00341

 Side 1  free  transition at x/c =  0.3261   47
 Side 2  free  transition at x/c =  0.8352   67

  23   rms: 0.1162E+02   max: -.2277E+03   C at   67  2   RLX: 0.002
       a =  3.000      CL =  0.6703
      Cm = -0.0495     CD =  0.00929   =>   CDf =  0.00588    CDp =  0.00341

 Side 1  free  transition at x/c =  0.3261   47
 Side 2  free  transition at x/c =  0.8568   68

  24   rms: 0.2536E+01   max: 0.4897E+02   C at   68  2   RLX: 0.031
       a =  3.000      CL =  0.6678
      Cm = -0.0487     CD =  0.00942   =>   CDf =  0.00582    CDp =  0.00360

 Side 1  free  transition at x/c =  0.3261   47
 Side 2  free  transition at x/c =  0.8169   66

  25   rms: 0.3627E+01   max: -.7046E+02   C at   66  2   RLX: 0.007
       a =  3.000      CL =  0.6676
      Cm = -0.0486     CD =  0.00933   =>   CDf =  0.00593    CDp =  0.00340

 Side 1  free  transition at x/c =  0.3261   47
 Side 2  free  transition at x/c =  0.8367   67

  26   rms: 0.8489E+02   max: -.1632E+04   C at   67  2   RLX: 0.000
       a =  3.000      CL =  0.6678
      Cm = -0.0486     CD =  0.00927   =>   CDf =  0.00586    CDp =  0.00341

 Side 1  free  transition at x/c =  0.3261   47
 Side 2  free  transition at x/c =  0.8555   68

  27   rms: 0.2310E+01   max: 0.4423E+02   C at   68  2   RLX: 0.034
       a =  3.000      CL =  0.6649
      Cm = -0.0478     CD =  0.00940   =>   CDf =  0.00581    CDp =  0.00359

 Side 1  free  transition at x/c =  0.3261   47
 Side 2  free  transition at x/c =  0.8162   66

  28   rms: 0.3649E+01   max: -.7110E+02   C at   66  2   RLX: 0.007
       a =  3.000      CL =  0.6647
      Cm = -0.0477     CD =  0.00932   =>   CDf =  0.00592    CDp =  0.00339

 Side 1  free  transition at x/c =  0.3261   47
 Side 2  free  transition at x/c =  0.8352   67

  29   rms: 0.1189E+03   max: -.2290E+04   C at   67  2   RLX: 0.000
       a =  3.000      CL =  0.6649
      Cm = -0.0477     CD =  0.00927   =>   CDf =  0.00586    CDp =  0.00340

 Side 1  free  transition at x/c =  0.3261   47
[...]

 Side 1  free  transition at x/c =  0.1863   52
 Side 2 forced transition at x/c =  1.0000   64

   3   rms: 0.6098E-04   max: 0.1175E-02   D at   93  1
       a = 12.500      CL =  1.6184
      Cm = -0.0261     CD =  0.01916   =>   CDf =  0.00595    CDp =  0.01321
 plradd ia,ip,cpol           37           0  3.82937789E-02

 Point added to stored polar  1
 Point written to save file  mue139_Re600k.base.pol                          
 Dump file unspecified or not available
 Calculating wake trajectory ...
 Calculating source influence matrix ...

 Solving BL system ...

 Side 1  free  transition at x/c =  0.1863   52
 Side 2 forced transition at x/c =  1.0000   64

   1   rms: 0.3557E-01   max: -.1637E+00   D at   52  1
       a = 12.750      CL =  1.6274
      Cm = -0.0240     CD =  0.02005   =>   CDf =  0.00572    CDp =  0.01433

 Side 1  free  transition at x/c =  0.1816   52
 Side 2 forced transition at x/c =  1.0000   63

   2   rms: 0.1054E-01   max: -.7972E-01   C at   52  1
       a = 12.750      CL =  1.6337
      Cm = -0.0247     CD =  0.01969   =>   CDf =  0.00589    CDp =  0.01380

 Side 1  free  transition at x/c =  0.1817   52
 Side 2 forced transition at x/c =  1.0000   63

   3   rms: 0.4077E-03   max: 0.4112E-02   C at   52  1
       a = 12.750      CL =  1.6337
      Cm = -0.0247     CD =  0.01971   =>   CDf =  0.00589    CDp =  0.01382

 Side 1  free  transition at x/c =  0.1816   52
 Side 2 forced transition at x/c =  1.0000   63

   4   rms: 0.5509E-05   max: 0.1985E-04   D at   93  1
       a = 12.750      CL =  1.6337
      Cm = -0.0247     CD =  0.01971   =>   CDf =  0.00589    CDp =  0.01382
 plradd ia,ip,cpol           38           0  3.82937789E-02

 Point added to stored polar  1
 Point written to save file  mue139_Re600k.base.pol                          
 Dump file unspecified or not available
 Calculating wake trajectory ...
 Calculating source influence matrix ...

 Solving BL system ...

 Side 1  free  transition at x/c =  0.1816   52
 Side 2 forced transition at x/c =  1.0000   63

   1   rms: 0.3254E-01   max: -.1025E+00   D at   52  1
       a = 13.000      CL =  1.6484
      Cm = -0.0234     CD =  0.02034   =>   CDf =  0.00589    CDp =  0.01445

 Side 1  free  transition at x/c =  0.1757   52
 Side 2 forced transition at x/c =  1.0000   63

   2   rms: 0.3859E-02   max: 0.2636E-01   D at   92  1
       a = 13.000      CL =  1.6455
      Cm = -0.0232     CD =  0.02047   =>   CDf =  0.00589    CDp =  0.01458

 Side 1  free  transition at x/c =  0.1763   52
 Side 2 forced transition at x/c =  1.0000   63

   3   rms: 0.5438E-04   max: 0.1104E-02   D at   92  1
       a = 13.000      CL =  1.6455
      Cm = -0.0232     CD =  0.02047   =>   CDf =  0.00588    CDp =  0.01459
 plradd ia,ip,cpol           39           0  3.82937789E-02

 Point added to stored polar  1
 Point written to save file  mue139_Re600k.base.pol                          
 Dump file unspecified or not available
 Calculating wake trajectory ...
 Calculating source influence matrix ...

 Solving BL system ...

 Side 1  free  transition at x/c =  0.1762   52
 Side 2 forced transition at x/c =  1.0000   63

   1   rms: 0.3541E-01   max: -.1659E+00   D at   52  1
       a = 13.250      CL =  1.6554
      Cm = -0.0216     CD =  0.02143   =>   CDf =  0.00588    CDp =  0.01555

 Side 1  free  transition at x/c =  0.1712   51
 Side 2 forced transition at x/c =  1.0000   63

   2   rms: 0.2431E-02   max: 0.2559E-01   D at   91  1
       a = 13.250      CL =  1.6543
      Cm = -0.0216     CD =  0.02147   =>   CDf =  0.00588    CDp =  0.01559

 Side 1  free  transition at x/c =  0.1711   51
 Side 2 forced transition at x/c =  1.0000   63

   3   rms: 0.7251E-04   max: 0.1077E-02   D at   90  1
       a = 13.250      CL =  1.6542
      Cm = -0.0216     CD =  0.02148   =>   CDf =  0.00588    CDp =  0.01560
 plradd ia,ip,cpol           40           0  3.82937789E-02

 Point added to stored polar  1
 Point written to save file  mue139_Re600k.base.pol                          
 Dump file unspecified or not available
 Calculating wake trajectory ...
 Calculating source influence matrix ...

 Solving BL system ...

 Side 1  free  transition at x/c =  0.1711   51
 Side 2 forced transition at x/c =  1.0000   63

   1   rms: 0.3285E-01   max: 0.5791E-01   D at   71  2
       a = 13.500      CL =  1.6689
      Cm = -0.0205     CD =  0.02221   =>   CDf =  0.00588    CDp =  0.01633

 Side 1  free  transition at x/c =  0.1656   51
 Side 2 forced transition at x/c =  1.0000   63

   2   rms: 0.4236E-02   max: -.3000E-01   C at   51  1
       a = 13.500      CL =  1.6658
      Cm = -0.0203     CD =  0.02238   =>   CDf =  0.00584    CDp =  0.01654

 Side 1  free  transition at x/c =  0.1661   51
 Side 2 forced transition at x/c =  1.0000   63

   3   rms: 0.1069E-03   max: 0.2357E-02   D at   89  1
       a = 13.500      CL =  1.6658
      Cm = -0.0203     CD =  0.02238   =>   CDf =  0.00583    CDp =  0.01655

 Side 1  free  transition at x/c =  0.1661   51
 Side 2 forced transition at x/c =  1.0000   63

   4   rms: 0.1639E-05   max: 0.2029E-04   D at   89  1
       a = 13.500      CL =  1.6658
      Cm = -0.0203     CD =  0.02238   =>   CDf =  0.00583    CDp =  0.01655
 plradd ia,ip,cpol           41           0  3.82937789E-02

 Point added to stored polar  1
 Point written to save file  mue139_Re600k.base.pol                          
 Dump file unspecified or not available
 Calculating wake trajectory ...
 Calculating source influence matrix ...

 Solving BL system ...

 Side 1  free  transition at x/c =  0.1661   51
 Side 2 forced transition at x/c =  1.0000   63

   1   rms: 0.3532E-01   max: 0.1238E+00   C at   51  1
       a = 13.750      CL =  1.6755
      Cm = -0.0191     CD =  0.02351   =>   CDf =  0.00559    CDp =  0.01793

 Side 1  free  transition at x/c =  0.1606   52
 Side 2 forced transition at x/c =  1.0000   62

   2   rms: 0.5009E-02   max: 0.3672E-01   D at   89  1
       a = 13.750      CL =  1.6721
      Cm = -0.0190     CD =  0.02371   =>   CDf =  0.00585    CDp =  0.01787

 Side 1  free  transition at x/c =  0.1611   52
 Side 2 forced transition at x/c =  1.0000   62

   3   rms: 0.5550E-03   max: -.6454E-02   D at    4  1
       a = 13.750      CL =  1.6720
      Cm = -0.0190     CD =  0.02371   =>   CDf =  0.00583    CDp =  0.01788

 Side 1  free  transition at x/c =  0.1611   52
 Side 2 forced transition at x/c =  1.0000   62

   4   rms: 0.4187E-05   max: 0.2222E-04   D at   69  2
       a = 13.750      CL =  1.6720
      Cm = -0.0190     CD =  0.02371   =>   CDf =  0.00583    CDp =  0.01788
 plradd ia,ip,cpol           42           0  3.82937789E-02

 Point added to stored polar  1
 Point written to save file  mue139_Re600k.base.pol                          
 Dump file unspecified or not available
 Calculating wake trajectory ...
 Calculating source influence matrix ...

 Solving BL system ...

 Side 1  free  transition at x/c =  0.1611   52
 Side 2 forced transition at x/c =  1.0000   62

   1   rms: 0.3934E-01   max: -.1670E+00   D at   52  1
       a = 14.000      CL =  1.6770
      Cm = -0.0178     CD =  0.02531   =>   CDf =  0.00583    CDp =  0.01948

 Side 1  free  transition at x/c =  0.1569   51
 Side 2 forced transition at x/c =  1.0000   62

   2   rms: 0.4757E-02   max: -.4650E-01   C at   51  1
       a = 14.000      CL =  1.6791
      Cm = -0.0179     CD =  0.02507   =>   CDf =  0.00579    CDp =  0.01928

 Side 1  free  transition at x/c =  0.1567   51
 Side 2 forced transition at x/c =  1.0000   62

   3   rms: 0.1219E-03   max: 0.1490E-02   C at   51  1
       a = 14.000      CL =  1.6791
      Cm = -0.0179     CD =  0.02508   =>   CDf =  0.00579    CDp =  0.01929

 Side 1  free  transition at x/c =  0.1567   51
 Side 2 forced transition at x/c =  1.0000   62

   4   rms: 0.1330E-05   max: 0.1177E-04   C at   62  2
       a = 14.000      CL =  1.6791
      Cm = -0.0179     CD =  0.02508   =>   CDf =  0.00579    CDp =  0.01929
 plradd ia,ip,cpol           43           0  3.35472152E-02

 Point added to stored polar  1
 Point written to save file  mue139_Re600k.base.pol                          
 Dump file unspecified or not available
 Calculating wake trajectory ...
 Calculating source influence matrix ...

 Solving BL system ...

 Side 1  free  transition at x/c =  0.1567   51
 Side 2 forced transition at x/c =  1.0000   62

   1   rms: 0.3421E-01   max: 0.9704E-01   D at   86  1
       a = 14.250      CL =  1.6897
      Cm = -0.0171     CD =  0.02636   =>   CDf =  0.00579    CDp =  0.02057

 Side 1  free  transition at x/c =  0.1523   51
 Side 2 forced transition at x/c =  1.0000   62

   2   rms: 0.4485E-02   max: 0.3411E-01   D at   86  1
       a = 14.250      CL =  1.6866
      Cm = -0.0170     CD =  0.02654   =>   CDf =  0.00576    CDp =  0.02078

 Side 1  free  transition at x/c =  0.1527   51
 Side 2 forced transition at x/c =  1.0000   62

   3   rms: 0.1047E-03   max: 0.1471E-02   D at   86  1
       a = 14.250      CL =  1.6865
      Cm = -0.0170     CD =  0.02653   =>   CDf =  0.00574    CDp =  0.02079

 Side 1  free  transition at x/c =  0.1527   51
 Side 2 forced transition at x/c =  1.0000   62

   4   rms: 0.1560E-05   max: -.9676E-05   C at   62  2
       a = 14.250      CL =  1.6865
      Cm = -0.0170     CD =  0.02653   =>   CDf =  0.00574    CDp =  0.02079
 plradd ia,ip,cpol           44           0  3.35472152E-02

 Point added to stored polar  1
 Point written to save file  mue139_Re600k.base.pol                          
 Dump file unspecified or not available
 Calculating wake trajectory ...
 Calculating source influence matrix ...

 Solving BL system ...

 Side 1  free  transition at x/c =  0.1527   51
 Side 2 forced transition at x/c =  1.0000   62

   1   rms: 0.3666E-01   max: 0.1194E+00   D at   84  1   RLX: 0.990
       a = 14.500      CL =  1.6933
      Cm = -0.0164     CD =  0.02820   =>   CDf =  0.00574    CDp =  0.02246

 Side 1  free  transition at x/c =  0.1488   51
 Side 2 forced transition at x/c =  1.0000   62

   2   rms: 0.5799E-02   max: 0.4819E-01   D at   85  1
       a = 14.500      CL =  1.6898
      Cm = -0.0163     CD =  0.02843   =>   CDf =  0.00573    CDp =  0.02269

 Side 1  free  transition at x/c =  0.1489   51
 Side 2 forced transition at x/c =  1.0000   62

   3   rms: 0.3014E-03   max: 0.4993E-02   D at   84  1
       a = 14.500      CL =  1.6896
      Cm = -0.0162     CD =  0.02841   =>   CDf =  0.00572    CDp =  0.02269

 Side 1  free  transition at x/c =  0.1489   51
 Side 2 forced transition at x/c =  1.0000   62

   4   rms: 0.8395E-05   max: 0.4565E-04   D at   70  2
       a = 14.500      CL =  1.6896
      Cm = -0.0162     CD =  0.02841   =>   CDf =  0.00572    CDp =  0.02269
 plradd ia,ip,cpol           45           0  3.35472152E-02

 Point added to stored polar  1
 Point written to save file  mue139_Re600k.base.pol                          
 Dump file unspecified or not available
 Calculating wake trajectory ...
 Calculating source influence matrix ...

 Solving BL system ...

 Side 1  free  transition at x/c =  0.1489   51
 Side 2 forced transition at x/c =  1.0000   62

   1   rms: 0.4012E-01   max: 0.1459E+00   D at   83  1   RLX: 0.934
       a = 14.750      CL =  1.6922
      Cm = -0.0158     CD =  0.03047   =>   CDf =  0.00572    CDp =  0.02475

 Side 1  free  transition at x/c =  0.1457   51
 Side 2 forced transition at x/c =  1.0000   62

   2   rms: 0.8121E-02   max: 0.5978E-01   D at   83  1
       a = 14.750      CL =  1.6882
      Cm = -0.0156     CD =  0.03085   =>   CDf =  0.00570    CDp =  0.02515

 Side 1  free  transition at x/c =  0.1453   50
 Side 2 forced transition at x/c =  1.0000   62

   3   rms: 0.2791E-02   max: -.2921E-01   C at   50  1
       a = 14.750      CL =  1.6897
      Cm = -0.0156     CD =  0.03065   =>   CDf =  0.00569    CDp =  0.02496

 Side 1  free  transition at x/c =  0.1454   50
 Side 2 forced transition at x/c =  1.0000   62

   4   rms: 0.2301E-03   max: -.8633E-03   D at   71  2
       a = 14.750      CL =  1.6898
      Cm = -0.0156     CD =  0.03065   =>   CDf =  0.00569    CDp =  0.02496

 Side 1  free  transition at x/c =  0.1454   50
 Side 2 forced transition at x/c =  1.0000   62

   5   rms: 0.8934E-05   max: -.4681E-04   D at   71  2
       a = 14.750      CL =  1.6898
      Cm = -0.0156     CD =  0.03065   =>   CDf =  0.00569    CDp =  0.02496
 plradd ia,ip,cpol           46           0  3.35472152E-02

 Point added to stored polar  1
 Point written to save file  mue139_Re600k.base.pol                          
 Dump file unspecified or not available
 Calculating wake trajectory ...
 Calculating source influence matrix ...

 Solving BL system ...

 Side 1  free  transition at x/c =  0.1454   50
 Side 2 forced transition at x/c =  1.0000   62

   1   rms: 0.3307E-01   max: 0.9284E-01   D at   81  1   RLX: 0.899
       a = 15.000      CL =  1.6993
      Cm = -0.0154     CD =  0.03204   =>   CDf =  0.00543    CDp =  0.02661

 Side 1  free  transition at x/c =  0.1430   51
 Side 2 forced transition at x/c =  1.0000   61

   2   rms: 0.6244E-02   max: 0.3348E-01   D at   82  1
       a = 15.000      CL =  1.6970
      Cm = -0.0152     CD =  0.03238   =>   CDf =  0.00562    CDp =  0.02676

 Side 1  free  transition at x/c =  0.1428   51
 Side 2 forced transition at x/c =  1.0000   61

   3   rms: 0.8651E-03   max: -.6400E-02   D at    4  1
       a = 15.000      CL =  1.6966
      Cm = -0.0152     CD =  0.03237   =>   CDf =  0.00560    CDp =  0.02677

 Side 1  free  transition at x/c =  0.1429   51
 Side 2 forced transition at x/c =  1.0000   61

   4   rms: 0.3495E-04   max: 0.1840E-03   D at   70  2
       a = 15.000      CL =  1.6965
      Cm = -0.0152     CD =  0.03237   =>   CDf =  0.00560    CDp =  0.02677
 plradd ia,ip,cpol           47           0  3.35472152E-02

 Point added to stored polar  1
 Point written to save file  mue139_Re600k.base.pol                          
 Dump file unspecified or not available
 Calculating wake trajectory ...
 Calculating source influence matrix ...

 Solving BL system ...

 Side 1  free  transition at x/c =  0.1429   51
 Side 2 forced transition at x/c =  1.0000   61

   1   rms: 0.3538E-01   max: 0.1195E+00   D at   81  1   RLX: 0.858
       a = 15.250      CL =  1.7017
      Cm = -0.0150     CD =  0.03414   =>   CDf =  0.00560    CDp =  0.02853

 Side 1  free  transition at x/c =  0.1403   51
 Side 2 forced transition at x/c =  1.0000   61

   2   rms: 0.7494E-02   max: 0.4636E-01   D at   81  1
       a = 15.250      CL =  1.6993
      Cm = -0.0149     CD =  0.03457   =>   CDf =  0.00556    CDp =  0.02901

 Side 1  free  transition at x/c =  0.1400   51
 Side 2 forced transition at x/c =  1.0000   61

   3   rms: 0.7557E-03   max: 0.5757E-02   D at   81  1
       a = 15.250      CL =  1.6988
      Cm = -0.0148     CD =  0.03455   =>   CDf =  0.00554    CDp =  0.02901

 Side 1  free  transition at x/c =  0.1401   51
 Side 2 forced transition at x/c =  1.0000   61

   4   rms: 0.3360E-04   max: 0.1851E-03   D at   71  2
       a = 15.250      CL =  1.6987
      Cm = -0.0148     CD =  0.03455   =>   CDf =  0.00554    CDp =  0.02901
 plradd ia,ip,cpol           48           0  3.35472152E-02

 Point added to stored polar  1
 Point written to save file  mue139_Re600k.base.pol                          
 Dump file unspecified or not available
 Calculating wake trajectory ...
 Calculating source influence matrix ...

 Solving BL system ...

 Side 1  free  transition at x/c =  0.1401   51
 Side 2 forced transition at x/c =  1.0000   61

   1   rms: 0.3771E-01   max: 0.1387E+00   D at   79  1   RLX: 0.815
       a = 15.500      CL =  1.7008
      Cm = -0.0148     CD =  0.03660   =>   CDf =  0.00554    CDp =  0.03106

 Side 1  free  transition at x/c =  0.1373   51
 Side 2 forced transition at x/c =  1.0000   61

   2   rms: 0.1065E-01   max: 0.6902E-01   D at   80  1
       a = 15.500      CL =  1.6969
      Cm = -0.0147     CD =  0.03731   =>   CDf =  0.00552    CDp =  0.03178

 Side 1  free  transition at x/c =  0.1371   51
 Side 2 forced transition at x/c =  1.0000   61

   3   rms: 0.7888E-03   max: 0.5403E-02   D at   71  2
       a = 15.500      CL =  1.6963
      Cm = -0.0146     CD =  0.03725   =>   CDf =  0.00550    CDp =  0.03175

 Side 1  free  transition at x/c =  0.1371   51
 Side 2 forced transition at x/c =  1.0000   61

   4   rms: 0.3014E-04   max: 0.3030E-03   D at   71  2
       a = 15.500      CL =  1.6962
      Cm = -0.0146     CD =  0.03725   =>   CDf =  0.00550    CDp =  0.03175
 plradd ia,ip,cpol           49           0  2.92925239E-02

 Point added to stored polar  1
 Point written to save file  mue139_Re600k.base.pol                          
 Dump file unspecified or not available
 Calculating wake trajectory ...
 Calculating source influence matrix ...

 Solving BL system ...

 Side 1  free  transition at x/c =  0.1371   51
 Side 2 forced transition at x/c =  1.0000   61

   1   rms: 0.3788E-01   max: 0.1516E+00   D at   78  1   RLX: 0.772
       a = 15.750      CL =  1.6961
      Cm = -0.0146     CD =  0.03948   =>   CDf =  0.00550    CDp =  0.03398

 Side 1  free  transition at x/c =  0.1352   51
 Side 2 forced transition at x/c =  1.0000   61

   2   rms: 0.1277E-01   max: 0.7409E-01   D at   79  1
       a = 15.750      CL =  1.6917
      Cm = -0.0145     CD =  0.04036   =>   CDf =  0.00547    CDp =  0.03488

 Side 1  free  transition at x/c =  0.1347   51
 Side 2 forced transition at x/c =  1.0000   61

   3   rms: 0.1763E-02   max: 0.1580E-01   D at   78  1
       a = 15.750      CL =  1.6904
      Cm = -0.0145     CD =  0.04034   =>   CDf =  0.00546    CDp =  0.03489

 Side 1  free  transition at x/c =  0.1348   51
 Side 2 forced transition at x/c =  1.0000   61

   4   rms: 0.1031E-03   max: 0.5084E-03   D at   72  2
       a = 15.750      CL =  1.6903
      Cm = -0.0145     CD =  0.04033   =>   CDf =  0.00545    CDp =  0.03488

 Side 1  free  transition at x/c =  0.1348   51
 Side 2 forced transition at x/c =  1.0000   61

   5   rms: 0.3537E-05   max: -.1642E-04   C at   61  2
       a = 15.750      CL =  1.6903
      Cm = -0.0145     CD =  0.04033   =>   CDf =  0.00545    CDp =  0.03488
 plradd ia,ip,cpol           50           0  2.92925239E-02

 Point added to stored polar  1
 Point written to save file  mue139_Re600k.base.pol                          
 Dump file unspecified or not available
 Calculating wake trajectory ...
 Calculating source influence matrix ...

 Solving BL system ...

 Side 1  free  transition at x/c =  0.1348   51
 Side 2 forced transition at x/c =  1.0000   61

   1   rms: 0.4368E-01   max: 0.1932E+00   D at   77  1   RLX: 0.725
       a = 16.000      CL =  1.6851
      Cm = -0.0147     CD =  0.04313   =>   CDf =  0.00545    CDp =  0.03768

 Side 1  free  transition at x/c =  0.1327   50
 Side 2 forced transition at x/c =  1.0000   61

   2   rms: 0.9037E-02   max: -.6954E-01   C at   50  1
       a = 16.000      CL =  1.6867
      Cm = -0.0145     CD =  0.04334   =>   CDf =  0.00541    CDp =  0.03793

 Side 1  free  transition at x/c =  0.1322   50
 Side 2 forced transition at x/c =  1.0000   61

   3   rms: 0.6356E-03   max: -.3632E-02   C at   50  1
       a = 16.000      CL =  1.6862
      Cm = -0.0145     CD =  0.04331   =>   CDf =  0.00538    CDp =  0.03794

 Side 1  free  transition at x/c =  0.1323   50
 Side 2 forced transition at x/c =  1.0000   61

   4   rms: 0.1240E-04   max: 0.8948E-04   D at   72  2
       a = 16.000      CL =  1.6862
      Cm = -0.0144     CD =  0.04331   =>   CDf =  0.00538    CDp =  0.03793
 plradd ia,ip,cpol           51           0  2.92925239E-02

 Point added to stored polar  1
 Point written to save file  mue139_Re600k.base.pol                          
 Dump file unspecified or not available

.OPERva   c>  
 Polar accumulation disabled

.OPERv   c>  
 XFOIL   c>  
 XFOIL   c>  