
 ===================================================
  XFOIL Version 6.99
  Copyright (C) 2000   Mark Drela, Harold Youngren

  This software comes with ABSOLUTELY NO WARRANTY,
    subject to the GNU General Public License.

  Caveat computor
 ===================================================

 File  xfoil.def  not found

   QUIT    Exit program

  .OPER    Direct operating point(s)
  .MDES    Complex mapping design routine
  .QDES    Surface speed design routine
  .GDES    Geometry design routine

   SAVE f  Write airfoil to labeled coordinate file
   PSAV f  Write airfoil to plain coordinate file
   ISAV f  Write airfoil to ISES coordinate file
   MSAV f  Write airfoil to MSES coordinate file
   REVE    Reverse written-airfoil node ordering

   LOAD f  Read buffer airfoil from coordinate file
   NACA i  Set NACA 4,5-digit airfoil and buffer airfoil
   INTE    Set buffer airfoil by interpolating two airfoils
   NORM    Buffer airfoil normalization toggle
   XYCM rr Change CM reference location, currently  0.25000 0.00000

   BEND    Display structural properties of current airfoil

   PCOP    Set current-airfoil panel nodes directly from buffer airfoil points
   PANE    Set current-airfoil panel nodes ( 160 ) based on curvature
  .PPAR    Show/change paneling

  .PLOP    Plotting options

   WDEF f  Write  current-settings file
   RDEF f  Reread current-settings file
   NAME s  Specify new airfoil name
   NINC    Increment name version number

   Z       Zoom    | (available in all menus)
   U       Unzoom  | 

 XFOIL   c>  
 Labeled airfoil file.  Name:  MUE 139                                         

 Number of input coordinate points:  97
 Counterclockwise ordering
 Max thickness =     0.138951  at x =   0.222
 Max camber    =     0.047242  at x =   0.309

  LE  x,y  =  -0.00000   0.00016  |   Chord =   1.00000
  TE  x,y  =   1.00000   0.00000  |

 Current airfoil nodes set from buffer airfoil nodes (  97 )

 XFOIL   c>  
 XFOIL   c>  
 Sharp trailing edge

 Paneling parameters used...
   Number of panel nodes       160
   Panel bunching parameter    1.000
   TE/LE panel density ratio   0.150
   Refined-area/LE panel density ratio    0.200
   Top    side refined area x/c limits  1.000 1.000
   Bottom side refined area x/c limits  1.000 1.000

 XFOIL   c>  
.OPERi   c>  
 Xtr/c     =  1.0000    top    side
 Xtr/c     =  1.0000    bottom side
 Ncrit     =    9.00   ( 0.070 % turb. level )
 Vacc      =  0.0100

 Klag  =  5.6000     Uxwt  =    1.00
 A     =  6.7000     B     =  0.7500       KCt = 0.01485
 CtiniK=  1.8000     CtiniX=  3.3000

..VPAR   c>  
..VPAR   c>  
.OPERi   c>  
 M  =    0.0000
 Re =    300000

.OPERv   c>  
.OPERv   c>  
.OPERv   c>  
 Polar  1 newly created for accumulation
 Airfoil archived with polar: MUE 139                                         

Enter  polar save filename  OR  <return> for no file   s>  
 New polar save file available

Enter  polar dump filename  OR  <return> for no file   s>  
 Polar dump file will NOT be written

 Polar accumulation enabled

.OPERva   c>   Calculating unit vorticity distributions ...
 Calculating wake trajectory ...
 Calculating source influence matrix ...

 Solving BL system ...

 Initializing BL ...
    side            1  ...
 MRCHUE: Inverse mode at  39     Hk =   4.070
 MRCHUE: Inverse mode at  40     Hk =   4.853
 MRCHUE: Inverse mode at  41     Hk =   5.617
 MRCHUE: Inverse mode at  42     Hk =   6.365
 MRCHUE: Inverse mode at  43     Hk =   7.097
 MRCHUE: Inverse mode at  44     Hk =   7.812
 MRCHUE: Inverse mode at  45     Hk =   8.514
 MRCHUE: Inverse mode at  46     Hk =   9.203
 MRCHUE: Inverse mode at  47     Hk =   6.076
 MRCHUE: Inverse mode at  48     Hk =   4.286
 MRCHUE: Inverse mode at  49     Hk =   3.077
    side            2  ...
 MRCHUE: Inverse mode at  26     Hk =   3.855
 MRCHUE: Inverse mode at  27     Hk =   4.547
 MRCHUE: Inverse mode at  28     Hk =   5.227
 MRCHUE: Inverse mode at  29     Hk =   5.909
 MRCHUE: Inverse mode at  30     Hk =   6.605
 MRCHUE: Inverse mode at  31     Hk =   7.327
 MRCHUE: Inverse mode at  32     Hk =   8.085
 MRCHUE: Inverse mode at  33     Hk =   8.889
 MRCHUE: Inverse mode at  34     Hk =   9.751
 MRCHUE: Inverse mode at  35     Hk =   7.229
 MRCHUE: Inverse mode at  36     Hk =   3.979
 MRCHUE: Inverse mode at  37     Hk =   2.500
 MRCHUE: Inverse mode at  38     Hk =   2.500
 MRCHUE: Inverse mode at  39     Hk =   2.500
 MRCHUE: Inverse mode at  87     Hk =   2.500

 Side 1  free  transition at x/c =  0.4907   47
 Side 2  free  transition at x/c =  0.0774   35
 idif Ue xi dudx           1  8.83464590E-02  3.35967541E-03   26.296129    
 Uenew xinew           2  6.74910145E-03  2.56657600E-04

   1   rms: 0.2533E+00   max: -.2036E+01   T at   47  1   RLX: 0.246
       a = -4.000      CL = -0.0956
      Cm = -0.0642     CD =  0.01794   =>   CDf =  0.00814    CDp =  0.00979

 Side 1  free  transition at x/c =  0.4999   46
 Side 2  free  transition at x/c =  0.0740   36

   2   rms: 0.1540E+00   max: -.1574E+01   T at   46  1   RLX: 0.318
       a = -4.000      CL = -0.0866
      Cm = -0.0620     CD =  0.01992   =>   CDf =  0.00833    CDp =  0.01159

 Side 1  free  transition at x/c =  0.5219   47
 Side 2  free  transition at x/c =  0.0732   35

   3   rms: 0.1350E+00   max: -.9919E+00   T at   47  1   RLX: 0.504
       a = -4.000      CL = -0.0556
      Cm = -0.0646     CD =  0.01814   =>   CDf =  0.00817    CDp =  0.00996

 Side 1  free  transition at x/c =  0.5579   50
 Side 2  free  transition at x/c =  0.0717   34

   4   rms: 0.9263E-01   max: -.7825E+00   T at   50  1   RLX: 0.639
       a = -4.000      CL = -0.0208
      Cm = -0.0689     CD =  0.01846   =>   CDf =  0.00789    CDp =  0.01057

 MRCHDU: Convergence failed at  53  side 1    Res =  0.4328E+01
 MRCHDU: Convergence failed at  54  side 1    Res =  0.1103E+02
 MRCHDU: Convergence failed at  55  side 1    Res =  0.4330E+02
 MRCHDU: Convergence failed at  56  side 1    Res =  0.2465E+02
 MRCHDU: Convergence failed at  57  side 1    Res =  0.3898E+02
 MRCHDU: Convergence failed at  58  side 1    Res =  0.5115E+03
 MRCHDU: Convergence failed at  59  side 1    Res =  0.2981E+02
 MRCHDU: Convergence failed at  60  side 1    Res =  0.1523E+02
 MRCHDU: Convergence failed at  61  side 1    Res =  0.1037E+02
 MRCHDU: Convergence failed at  62  side 1    Res =  0.7996E+01
 MRCHDU: Convergence failed at  63  side 1    Res =  0.6804E+01
 MRCHDU: Convergence failed at  64  side 1    Res =  0.5778E+01
 MRCHDU: Convergence failed at  65  side 1    Res =  0.5288E+01
 MRCHDU: Convergence failed at  66  side 1    Res =  0.4962E+01
 MRCHDU: Convergence failed at  67  side 1    Res =  0.4745E+01
 MRCHDU: Convergence failed at  68  side 1    Res =  0.4605E+01
 MRCHDU: Convergence failed at  69  side 1    Res =  0.4515E+01
 MRCHDU: Convergence failed at  70  side 1    Res =  0.4470E+01
 MRCHDU: Convergence failed at  71  side 1    Res =  0.4439E+01
 MRCHDU: Convergence failed at  72  side 1    Res =  0.4377E+01
 MRCHDU: Convergence failed at  73  side 1    Res =  0.4208E+01
 MRCHDU: Convergence failed at  74  side 1    Res =  0.5584E+01
 MRCHDU: Convergence failed at  75  side 1    Res =  0.3162E+02
 Side 1  free  transition at x/c =  0.6122   53
 Side 2  free  transition at x/c =  0.0713   34
 idif Ue xi dudx           1  0.10005940      3.70717049E-03   26.990772    
 Uenew xinew           2  1.63065474E-02  6.04152679E-04

   5   rms: 0.2145E+00   max: 0.1165E+01   D at   75  1
       a = -4.000      CL = -0.1137
      Cm = -0.0494     CD =  0.01821   =>   CDf =  0.00594    CDp =  0.01226

 Side 1  free  transition at x/c =  0.6399   54
 Side 2  free  transition at x/c =  0.0676   35

   6   rms: 0.1120E+00   max: -.4124E+00   T at   35  2
       a = -4.000      CL =  0.0117
      Cm = -0.0744     CD =  0.01859   =>   CDf =  0.00686    CDp =  0.01173

 Side 1  free  transition at x/c =  0.6284   54
 Side 2  free  transition at x/c =  0.0710   34

   7   rms: 0.6097E-01   max: -.2338E+00   D at   39  2
       a = -4.000      CL =  0.0022
      Cm = -0.0723     CD =  0.01851   =>   CDf =  0.00702    CDp =  0.01149

 Side 1  free  transition at x/c =  0.6246   54
 Side 2  free  transition at x/c =  0.0712   34

   8   rms: 0.3696E-02   max: 0.3405E-01   D at   37  2
       a = -4.000      CL =  0.0025
      Cm = -0.0723     CD =  0.01860   =>   CDf =  0.00732    CDp =  0.01127

 Side 1  free  transition at x/c =  0.6246   54
 Side 2  free  transition at x/c =  0.0712   34

   9   rms: 0.6849E-04   max: 0.4327E-03   D at   37  2
       a = -4.000      CL =  0.0025
      Cm = -0.0723     CD =  0.01860   =>   CDf =  0.00731    CDp =  0.01129
 plradd ia,ip,cpol            1           0  1.56406499E-02

 Point added to stored polar  1
 Point written to save file  mue139_Re300k.base.pol                          
 Dump file unspecified or not available
 Calculating wake trajectory ...
 Calculating source influence matrix ...

 Solving BL system ...

 Side 1  free  transition at x/c =  0.6246   54
 Side 2  free  transition at x/c =  0.0712   34

   1   rms: 0.9566E-01   max: -.4537E+00   T at   34  2
       a = -3.500      CL =  0.0507
      Cm = -0.0701     CD =  0.01711   =>   CDf =  0.00731    CDp =  0.00980

 Side 1  free  transition at x/c =  0.5918   53
 Side 2  free  transition at x/c =  0.0750   34

   2   rms: 0.4418E-01   max: 0.2461E+00   D at   34  2
       a = -3.500      CL =  0.0510
      Cm = -0.0702     CD =  0.01700   =>   CDf =  0.00789    CDp =  0.00911

 Side 1  free  transition at x/c =  0.5908   53
 Side 2  free  transition at x/c =  0.0746   34

   3   rms: 0.1203E-02   max: 0.1769E-01   C at   53  1
       a = -3.500      CL =  0.0511
      Cm = -0.0703     CD =  0.01703   =>   CDf =  0.00779    CDp =  0.00925

 Side 1  free  transition at x/c =  0.5900   53
 Side 2  free  transition at x/c =  0.0746   34

   4   rms: 0.8969E-05   max: -.1182E-03   D at   53  1
       a = -3.500      CL =  0.0511
      Cm = -0.0703     CD =  0.01703   =>   CDf =  0.00780    CDp =  0.00924
 plradd ia,ip,cpol            2           0  1.56406499E-02

 Point added to stored polar  1
 Point written to save file  mue139_Re300k.base.pol                          
 Dump file unspecified or not available
 Calculating wake trajectory ...
 Calculating source influence matrix ...

 Solving BL system ...

 Side 1  free  transition at x/c =  0.5900   53
 Side 2  free  transition at x/c =  0.0746   34

   1   rms: 0.8969E-01   max: -.5122E+00   T at   34  2   RLX: 0.976
       a = -3.000      CL =  0.0998
      Cm = -0.0688     CD =  0.01596   =>   CDf =  0.00779    CDp =  0.00817

 Side 1  free  transition at x/c =  0.5555   52
 Side 2  free  transition at x/c =  0.0781   33

   2   rms: 0.6003E-01   max: -.2811E+00   D at   37  2
       a = -3.000      CL =  0.1015
      Cm = -0.0686     CD =  0.01634   =>   CDf =  0.00780    CDp =  0.00855

 Side 1  free  transition at x/c =  0.5551   52
 Side 2  free  transition at x/c =  0.0783   33

   3   rms: 0.2415E-02   max: 0.3022E-01   D at   35  2
       a = -3.000      CL =  0.1017
      Cm = -0.0686     CD =  0.01639   =>   CDf =  0.00798    CDp =  0.00841

 Side 1  free  transition at x/c =  0.5547   52
 Side 2  free  transition at x/c =  0.0783   33

   4   rms: 0.4073E-04   max: 0.3802E-03   D at   35  2
       a = -3.000      CL =  0.1017
      Cm = -0.0686     CD =  0.01639   =>   CDf =  0.00798    CDp =  0.00841
 plradd ia,ip,cpol            3           0  1.84493512E-02

 Point added to stored polar  1
 Point written to save file  mue139_Re300k.base.pol                          
 Dump file unspecified or not available
 Calculating wake trajectory ...
 Calculating source influence matrix ...

 Solving BL system ...

 Side 1  free  transition at x/c =  0.5547   52
 Side 2  free  transition at x/c =  0.0783   33

   1   rms: 0.8277E-01   max: -.4369E+00   T at   33  2
       a = -2.500      CL =  0.1532
      Cm = -0.0671     CD =  0.01581   =>   CDf =  0.00798    CDp =  0.00782

 Side 1  free  transition at x/c =  0.5235   50
 Side 2  free  transition at x/c =  0.0831   34

   2   rms: 0.2879E-01   max: -.3368E+00   D at   51  1
       a = -2.500      CL =  0.1526
      Cm = -0.0669     CD =  0.01569   =>   CDf =  0.00835    CDp =  0.00734

 Side 1  free  transition at x/c =  0.5254   50
 Side 2  free  transition at x/c =  0.0834   34

   3   rms: 0.6577E-02   max: -.1167E+00   C at   50  1
       a = -2.500      CL =  0.1526
      Cm = -0.0669     CD =  0.01569   =>   CDf =  0.00839    CDp =  0.00730

 Side 1  free  transition at x/c =  0.5251   50
 Side 2  free  transition at x/c =  0.0834   34

   4   rms: 0.3110E-03   max: 0.4793E-02   C at   50  1
       a = -2.500      CL =  0.1526
      Cm = -0.0669     CD =  0.01570   =>   CDf =  0.00835    CDp =  0.00735

 Side 1  free  transition at x/c =  0.5250   50
 Side 2  free  transition at x/c =  0.0834   34

   5   rms: 0.1040E-05   max: -.1218E-04   D at   52  1
       a = -2.500      CL =  0.1526
      Cm = -0.0669     CD =  0.01570   =>   CDf =  0.00835    CDp =  0.00735
 plradd ia,ip,cpol            4           0  1.84493512E-02

 Point added to stored polar  1
 Point written to save file  mue139_Re300k.base.pol                          
 Dump file unspecified or not available
 Calculating wake trajectory ...
 Calculating source influence matrix ...

 Solving BL system ...

 Side 1  free  transition at x/c =  0.5250   50
 Side 2  free  transition at x/c =  0.0834   34

   1   rms: 0.9856E-01   max: -.6831E+00   T at   34  2   RLX: 0.732
       a = -2.000      CL =  0.1907
      Cm = -0.0662     CD =  0.01471   =>   CDf =  0.00832    CDp =  0.00639

 Side 1  free  transition at x/c =  0.5035   50
 Side 2  free  transition at x/c =  0.0872   33

   2   rms: 0.5746E-01   max: -.2732E+00   D at   33  2
       a = -2.000      CL =  0.2048
      Cm = -0.0656     CD =  0.01518   =>   CDf =  0.00835    CDp =  0.00683

 Side 1  free  transition at x/c =  0.4997   50
 Side 2  free  transition at x/c =  0.0886   33

   3   rms: 0.1626E-02   max: 0.1501E-01   D at   35  2
       a = -2.000      CL =  0.2046
      Cm = -0.0656     CD =  0.01523   =>   CDf =  0.00844    CDp =  0.00679

 Side 1  free  transition at x/c =  0.4997   50
 Side 2  free  transition at x/c =  0.0884   33

   4   rms: 0.8928E-05   max: -.1504E-03   D at   36  2
       a = -2.000      CL =  0.2046
      Cm = -0.0656     CD =  0.01523   =>   CDf =  0.00844    CDp =  0.00678
 plradd ia,ip,cpol            5           0  1.84493512E-02

 Point added to stored polar  1
 Point written to save file  mue139_Re300k.base.pol                          
 Dump file unspecified or not available
 Calculating wake trajectory ...
 Calculating source influence matrix ...

 Solving BL system ...

 Side 1  free  transition at x/c =  0.4997   50
 Side 2  free  transition at x/c =  0.0884   33

   1   rms: 0.8139E-01   max: -.4647E+00   T at   33  2
       a = -1.500      CL =  0.2572
      Cm = -0.0642     CD =  0.01488   =>   CDf =  0.00840    CDp =  0.00648

 Side 1  free  transition at x/c =  0.4781   50
 Side 2  free  transition at x/c =  0.0948   33

   2   rms: 0.1684E-01   max: -.2181E+00   D at   50  1
       a = -1.500      CL =  0.2564
      Cm = -0.0641     CD =  0.01470   =>   CDf =  0.00869    CDp =  0.00601

 Side 1  free  transition at x/c =  0.4796   50
 Side 2  free  transition at x/c =  0.0947   33

   3   rms: 0.2164E-02   max: 0.3021E-01   C at   50  1
       a = -1.500      CL =  0.2566
      Cm = -0.0642     CD =  0.01472   =>   CDf =  0.00862    CDp =  0.00610

 Side 1  free  transition at x/c =  0.4788   50
 Side 2  free  transition at x/c =  0.0947   33

   4   rms: 0.2892E-04   max: -.4235E-03   D at   52  1
       a = -1.500      CL =  0.2566
      Cm = -0.0642     CD =  0.01472   =>   CDf =  0.00863    CDp =  0.00609
 plradd ia,ip,cpol            6           0  1.84493512E-02

 Point added to stored polar  1
 Point written to save file  mue139_Re300k.base.pol                          
 Dump file unspecified or not available
 Calculating wake trajectory ...
 Calculating source influence matrix ...

 Solving BL system ...

 Side 1  free  transition at x/c =  0.4788   50
 Side 2  free  transition at x/c =  0.0947   33

   1   rms: 0.8748E-01   max: -.6044E+00   T at   33  2   RLX: 0.827
       a = -1.000      CL =  0.2992
      Cm = -0.0631     CD =  0.01435   =>   CDf =  0.00858    CDp =  0.00576

 Side 1  free  transition at x/c =  0.4637   50
 Side 2  free  transition at x/c =  0.0999   32

   2   rms: 0.6134E-01   max: -.4981E+00   T at    2  1
       a = -1.000      CL =  0.3095
      Cm = -0.0629     CD =  0.01449   =>   CDf =  0.00871    CDp =  0.00578

 Side 1  free  transition at x/c =  0.4598   50
 Side 2  free  transition at x/c =  0.1018   32

   3   rms: 0.3092E-02   max: -.2997E-01   D at    4  1
       a = -1.000      CL =  0.3090
      Cm = -0.0629     CD =  0.01450   =>   CDf =  0.00874    CDp =  0.00576

 Side 1  free  transition at x/c =  0.4600   50
 Side 2  free  transition at x/c =  0.1017   32

   4   rms: 0.3915E-04   max: 0.3874E-03   D at   33  2
       a = -1.000      CL =  0.3090
      Cm = -0.0629     CD =  0.01450   =>   CDf =  0.00874    CDp =  0.00576
 plradd ia,ip,cpol            7           0  2.15319563E-02

 Point added to stored polar  1
 Point written to save file  mue139_Re300k.base.pol                          
 Dump file unspecified or not available
 Calculating wake trajectory ...
 Calculating source influence matrix ...

 Solving BL system ...

 Side 1  free  transition at x/c =  0.4600   50
 Side 2  free  transition at x/c =  0.1017   32

   1   rms: 0.8182E-01   max: -.5397E+00   T at   32  2   RLX: 0.926
       a = -0.500      CL =  0.3577
      Cm = -0.0616     CD =  0.01445   =>   CDf =  0.00874    CDp =  0.00571

 Side 1  free  transition at x/c =  0.4463   49
 Side 2  free  transition at x/c =  0.1097   33

   2   rms: 0.4031E-01   max: 0.5352E+00   D at   33  2
       a = -0.500      CL =  0.3611
      Cm = -0.0615     CD =  0.01411   =>   CDf =  0.00880    CDp =  0.00530

 Side 1  free  transition at x/c =  0.4438   49
 Side 2  free  transition at x/c =  0.1095   33

   3   rms: 0.2955E-02   max: 0.2479E-01   D at   33  2
       a = -0.500      CL =  0.3608
      Cm = -0.0615     CD =  0.01412   =>   CDf =  0.00878    CDp =  0.00533

 Side 1  free  transition at x/c =  0.4438   49
 Side 2  free  transition at x/c =  0.1094   33

   4   rms: 0.5351E-05   max: 0.3906E-04   T at   33  2
       a = -0.500      CL =  0.3608
      Cm = -0.0615     CD =  0.01411   =>   CDf =  0.00879    CDp =  0.00533
 plradd ia,ip,cpol            8           0  0.17201047    

 Point added to stored polar  1
 Point written to save file  mue139_Re300k.base.pol                          
 Dump file unspecified or not available
 Calculating wake trajectory ...
 Calculating source influence matrix ...

 Solving BL system ...

 Side 1  free  transition at x/c =  0.4438   49
 Side 2  free  transition at x/c =  0.1094   33

   1   rms: 0.8204E-01   max: -.5047E+00   T at   33  2   RLX: 0.991
       a =  0.000      CL =  0.4127
      Cm = -0.0603     CD =  0.01394   =>   CDf =  0.00871    CDp =  0.00523

 Side 1  free  transition at x/c =  0.4297   49
 Side 2  free  transition at x/c =  0.1180   33

   2   rms: 0.4345E-01   max: -.2444E+00   D at   32  2
       a =  0.000      CL =  0.4130
      Cm = -0.0602     CD =  0.01386   =>   CDf =  0.00897    CDp =  0.00489

 Side 1  free  transition at x/c =  0.4291   49
 Side 2  free  transition at x/c =  0.1193   33

   3   rms: 0.5056E-02   max: 0.5097E-01   D at   33  2
       a =  0.000      CL =  0.4128
      Cm = -0.0602     CD =  0.01393   =>   CDf =  0.00886    CDp =  0.00507

 Side 1  free  transition at x/c =  0.4290   49
 Side 2  free  transition at x/c =  0.1189   33

   4   rms: 0.4898E-04   max: -.7551E-03   D at   33  2
       a =  0.000      CL =  0.4128
      Cm = -0.0602     CD =  0.01393   =>   CDf =  0.00887    CDp =  0.00506
 plradd ia,ip,cpol            9           0  0.17201047    

 Point added to stored polar  1
 Point written to save file  mue139_Re300k.base.pol                          
 Dump file unspecified or not available
 Calculating wake trajectory ...
 Calculating source influence matrix ...

 Solving BL system ...

 Side 1  free  transition at x/c =  0.4290   49
 Side 2  free  transition at x/c =  0.1189   33

   1   rms: 0.1004E+00   max: -.6695E+00   T at   33  2   RLX: 0.747
       a =  0.500      CL =  0.4504
      Cm = -0.0591     CD =  0.01339   =>   CDf =  0.00878    CDp =  0.00461

 Side 1  free  transition at x/c =  0.4175   50
 Side 2  free  transition at x/c =  0.1279   32

   2   rms: 0.4005E-01   max: -.2327E+00   D at   32  2
       a =  0.500      CL =  0.4646
      Cm = -0.0588     CD =  0.01392   =>   CDf =  0.00897    CDp =  0.00496

 Side 1  free  transition at x/c =  0.4152   49
 Side 2  free  transition at x/c =  0.1303   32

   3   rms: 0.2306E-02   max: -.3294E-01   C at   49  1
       a =  0.500      CL =  0.4644
      Cm = -0.0588     CD =  0.01386   =>   CDf =  0.00895    CDp =  0.00491

 Side 1  free  transition at x/c =  0.4148   49
 Side 2  free  transition at x/c =  0.1302   32

   4   rms: 0.3143E-04   max: 0.3206E-03   D at   49  1
       a =  0.500      CL =  0.4645
      Cm = -0.0588     CD =  0.01386   =>   CDf =  0.00894    CDp =  0.00492
 plradd ia,ip,cpol           10           0  0.15867384    

 Point added to stored polar  1
 Point written to save file  mue139_Re300k.base.pol                          
 Dump file unspecified or not available
 Calculating wake trajectory ...
 Calculating source influence matrix ...

 Solving BL system ...

 Side 1  free  transition at x/c =  0.4148   49
 Side 2  free  transition at x/c =  0.1302   32

   1   rms: 0.8286E-01   max: -.6044E+00   T at   32  2   RLX: 0.827
       a =  1.000      CL =  0.5089
      Cm = -0.0578     CD =  0.01382   =>   CDf =  0.00884    CDp =  0.00497

 MRCHDU: Convergence failed at  32  side 2    Res =  0.1601E+02
 MRCHDU: Convergence failed at  33  side 2    Res =  0.4121E+01
 MRCHDU: Convergence failed at  34  side 2    Res =  0.1300E+02
 MRCHDU: Convergence failed at  35  side 2    Res =  0.7283E+01
 MRCHDU: Convergence failed at  36  side 2    Res =  0.6985E+01
 MRCHDU: Convergence failed at  37  side 2    Res =  0.6703E+01
 MRCHDU: Convergence failed at  38  side 2    Res =  0.8071E+01
 MRCHDU: Convergence failed at  39  side 2    Res =  0.9882E+01
 MRCHDU: Convergence failed at  40  side 2    Res =  0.1291E+02
 MRCHDU: Convergence failed at  41  side 2    Res =  0.1870E+02
 MRCHDU: Convergence failed at  42  side 2    Res =  0.2941E+02
 MRCHDU: Convergence failed at  43  side 2    Res =  0.4084E+02
 MRCHDU: Convergence failed at  44  side 2    Res =  0.5017E+02
 MRCHDU: Convergence failed at  45  side 2    Res =  0.5462E+02
 MRCHDU: Convergence failed at  46  side 2    Res =  0.5822E+02
 MRCHDU: Convergence failed at  47  side 2    Res =  0.7249E+02
 MRCHDU: Convergence failed at  48  side 2    Res =  0.1367E+03
 MRCHDU: Convergence failed at  49  side 2    Res =  0.1206E+04
 MRCHDU: Convergence failed at  50  side 2    Res =  0.1602E+03
 MRCHDU: Convergence failed at  51  side 2    Res =  0.8405E+02
 MRCHDU: Convergence failed at  52  side 2    Res =  0.5928E+02
 MRCHDU: Convergence failed at  53  side 2    Res =  0.4755E+02
 MRCHDU: Convergence failed at  54  side 2    Res =  0.4017E+02
 MRCHDU: Convergence failed at  55  side 2    Res =  0.3625E+02
 MRCHDU: Convergence failed at  56  side 2    Res =  0.3381E+02
 MRCHDU: Convergence failed at  57  side 2    Res =  0.3217E+02
 MRCHDU: Convergence failed at  58  side 2    Res =  0.3081E+02
 MRCHDU: Convergence failed at  59  side 2    Res =  0.2956E+02
 MRCHDU: Convergence failed at  60  side 2    Res =  0.2820E+02
 MRCHDU: Convergence failed at  61  side 2    Res =  0.2660E+02
 MRCHDU: Convergence failed at  62  side 2    Res =  0.2496E+02
 MRCHDU: Convergence failed at  63  side 2    Res =  0.2333E+02
 MRCHDU: Convergence failed at  64  side 2    Res =  0.2166E+02
 MRCHDU: Convergence failed at  65  side 2    Res =  0.2027E+02
 MRCHDU: Convergence failed at  66  side 2    Res =  0.1904E+02
 MRCHDU: Convergence failed at  67  side 2    Res =  0.1797E+02
 MRCHDU: Convergence failed at  68  side 2    Res =  0.1702E+02
 MRCHDU: Convergence failed at  69  side 2    Res =  0.1610E+02
 MRCHDU: Convergence failed at  70  side 2    Res =  0.1533E+02
 MRCHDU: Convergence failed at  71  side 2    Res =  0.1463E+02
 MRCHDU: Convergence failed at  72  side 2    Res =  0.1394E+02
 MRCHDU: Convergence failed at  73  side 2    Res =  0.1326E+02
 MRCHDU: Convergence failed at  74  side 2    Res =  0.1270E+02
 MRCHDU: Convergence failed at  75  side 2    Res =  0.1202E+02
 MRCHDU: Convergence failed at  76  side 2    Res =  0.1120E+02
 MRCHDU: Convergence failed at  77  side 2    Res =  0.1018E+02
 MRCHDU: Convergence failed at  78  side 2    Res =  0.7734E+01
 MRCHDU: Convergence failed at  79  side 2    Res =  0.1283E+02
 Side 1  free  transition at x/c =  0.4014   50
 Side 2  free  transition at x/c =  0.1423   32

   2   rms: 0.3400E+00   max: -.1099E+01   D at   64  2   RLX: 0.455
       a =  1.000      CL =  0.4052
      Cm = -0.0190     CD =  0.01071   =>   CDf =  0.00520    CDp =  0.00550

 Side 1  free  transition at x/c =  0.3994   50
 Side 2  free  transition at x/c =  0.1501   33

   3   rms: 0.9334E-01   max: -.6036E+00   D at   33  2   RLX: 0.828
       a =  1.000      CL =  0.4896
      Cm = -0.0492     CD =  0.01330   =>   CDf =  0.00963    CDp =  0.00367

 Side 1  free  transition at x/c =  0.4013   50
 Side 2  free  transition at x/c =  0.1458   32

   4   rms: 0.1851E-01   max: -.1907E+00   D at   33  2
       a =  1.000      CL =  0.5154
      Cm = -0.0573     CD =  0.01367   =>   CDf =  0.00903    CDp =  0.00464

 Side 1  free  transition at x/c =  0.4009   50
 Side 2  free  transition at x/c =  0.1455   32

   5   rms: 0.5093E-03   max: -.1001E-01   D at   33  2
       a =  1.000      CL =  0.5155
      Cm = -0.0573     CD =  0.01367   =>   CDf =  0.00892    CDp =  0.00476

 Side 1  free  transition at x/c =  0.4008   50
 Side 2  free  transition at x/c =  0.1455   32

   6   rms: 0.1964E-05   max: -.3192E-04   D at   33  2
       a =  1.000      CL =  0.5155
      Cm = -0.0573     CD =  0.01367   =>   CDf =  0.00892    CDp =  0.00476
 plradd ia,ip,cpol           11           0  0.15867384    

 Point added to stored polar  1
 Point written to save file  mue139_Re300k.base.pol                          
 Dump file unspecified or not available
 Calculating wake trajectory ...
 Calculating source influence matrix ...

 Solving BL system ...

 Side 1  free  transition at x/c =  0.4008   50
 Side 2  free  transition at x/c =  0.1455   32

   1   rms: 0.8611E-01   max: -.5550E+00   T at   32  2   RLX: 0.901
       a =  1.500      CL =  0.5620
      Cm = -0.0561     CD =  0.01395   =>   CDf =  0.00881    CDp =  0.00514

 Side 1  free  transition at x/c =  0.3907   50
 Side 2  free  transition at x/c =  0.1661   33

   2   rms: 0.3406E-01   max: -.2530E+00   D at   32  2
       a =  1.500      CL =  0.5657
      Cm = -0.0557     CD =  0.01340   =>   CDf =  0.00890    CDp =  0.00450

 Side 1  free  transition at x/c =  0.3874   50
 Side 2  free  transition at x/c =  0.1764   33

   3   rms: 0.1274E-01   max: 0.2586E+00   C at   33  2
       a =  1.500      CL =  0.5662
      Cm = -0.0558     CD =  0.01350   =>   CDf =  0.00877    CDp =  0.00473

 Side 1  free  transition at x/c =  0.3874   50
 Side 2  free  transition at x/c =  0.1730   33

   4   rms: 0.7093E-03   max: -.1513E-01   D at   34  2
       a =  1.500      CL =  0.5662
      Cm = -0.0558     CD =  0.01350   =>   CDf =  0.00879    CDp =  0.00471

 Side 1  free  transition at x/c =  0.3874   50
 Side 2  free  transition at x/c =  0.1729   33

   5   rms: 0.5634E-05   max: -.1178E-03   D at   34  2
       a =  1.500      CL =  0.5662
      Cm = -0.0558     CD =  0.01350   =>   CDf =  0.00879    CDp =  0.00471
 plradd ia,ip,cpol           12           0  0.15867384    

 Point added to stored polar  1
 Point written to save file  mue139_Re300k.base.pol                          
 Dump file unspecified or not available
 Calculating wake trajectory ...
 Calculating source influence matrix ...

 Solving BL system ...

 Side 1  free  transition at x/c =  0.3874   50
 Side 2  free  transition at x/c =  0.1729   33

   1   rms: 0.1082E+00   max: -.1018E+01   C at   33  2   RLX: 0.491
       a =  2.000      CL =  0.5909
      Cm = -0.0551     CD =  0.01343   =>   CDf =  0.00879    CDp =  0.00464

 Side 1  free  transition at x/c =  0.3815   50
 Side 2  free  transition at x/c =  0.1953   34

   2   rms: 0.6794E-01   max: -.7303E+00   T at   34  2   RLX: 0.685
       a =  2.000      CL =  0.6090
      Cm = -0.0546     CD =  0.01367   =>   CDf =  0.00884    CDp =  0.00483

 Side 1  free  transition at x/c =  0.3781   49
 Side 2  free  transition at x/c =  0.3088   41

   3   rms: 0.1521E+00   max: -.2489E+01   C at   41  2   RLX: 0.201
       a =  2.000      CL =  0.6058
      Cm = -0.0544     CD =  0.01326   =>   CDf =  0.00852    CDp =  0.00474

 Side 1  free  transition at x/c =  0.3777   49
 Side 2  free  transition at x/c =  0.3280   42

   4   rms: 0.1366E+00   max: -.2354E+01   C at   42  2   RLX: 0.212
       a =  2.000      CL =  0.6072
      Cm = -0.0543     CD =  0.01319   =>   CDf =  0.00843    CDp =  0.00476

 Side 1  free  transition at x/c =  0.3774   49
 Side 2  free  transition at x/c =  0.3451   42

   5   rms: 0.6196E-01   max: -.1161E+01   C at   42  2   RLX: 0.431
       a =  2.000      CL =  0.6101
      Cm = -0.0542     CD =  0.01315   =>   CDf =  0.00835    CDp =  0.00480

 Side 1  free  transition at x/c =  0.3767   49
 Side 2  free  transition at x/c =  0.3866   45

   6   rms: 0.1261E+00   max: -.2522E+01   C at   45  2   RLX: 0.198
       a =  2.000      CL =  0.6101
      Cm = -0.0540     CD =  0.01299   =>   CDf =  0.00817    CDp =  0.00482

 Side 1  free  transition at x/c =  0.3766   49
 Side 2  free  transition at x/c =  0.4013   46

   7   rms: 0.1817E+00   max: -.3626E+01   C at   46  2   RLX: 0.138
       a =  2.000      CL =  0.6097
      Cm = -0.0539     CD =  0.01291   =>   CDf =  0.00806    CDp =  0.00484

 Side 1  free  transition at x/c =  0.3766   49
 Side 2  free  transition at x/c =  0.4171   46

   8   rms: 0.1830E+00   max: -.3427E+01   C at   46  2   RLX: 0.146
       a =  2.000      CL =  0.6095
      Cm = -0.0538     CD =  0.01287   =>   CDf =  0.00801    CDp =  0.00486

 Side 1  free  transition at x/c =  0.3765   49
 Side 2  free  transition at x/c =  0.4405   48

   9   rms: 0.2282E+00   max: -.4447E+01   C at   48  2   RLX: 0.112
       a =  2.000      CL =  0.6089
      Cm = -0.0537     CD =  0.01278   =>   CDf =  0.00794    CDp =  0.00485

 Side 1  free  transition at x/c =  0.3765   49
 Side 2  free  transition at x/c =  0.4605   49

  10   rms: 0.1910E+00   max: -.3688E+01   C at   49  2   RLX: 0.136
       a =  2.000      CL =  0.6084
      Cm = -0.0536     CD =  0.01272   =>   CDf =  0.00787    CDp =  0.00485

 Side 1  free  transition at x/c =  0.3765   49
 Side 2  free  transition at x/c =  0.4629   49

  11   rms: 0.1278E+00   max: -.2458E+01   C at   49  2   RLX: 0.203
       a =  2.000      CL =  0.6083
      Cm = -0.0535     CD =  0.01272   =>   CDf =  0.00787    CDp =  0.00485

 Side 1  free  transition at x/c =  0.3765   49
 Side 2  free  transition at x/c =  0.4757   49

  12   rms: 0.1242E+00   max: -.2271E+01   C at   49  2   RLX: 0.220
       a =  2.000      CL =  0.6081
      Cm = -0.0534     CD =  0.01269   =>   CDf =  0.00783    CDp =  0.00486

 Side 1  free  transition at x/c =  0.3764   49
 Side 2  free  transition at x/c =  0.4968   50

  13   rms: 0.8511E-01   max: -.1531E+01   C at   50  2   RLX: 0.327
       a =  2.000      CL =  0.6077
      Cm = -0.0533     CD =  0.01262   =>   CDf =  0.00776    CDp =  0.00486

 Side 1  free  transition at x/c =  0.3764   49
 Side 2  free  transition at x/c =  0.5231   52

  14   rms: 0.4918E-01   max: -.9129E+00   C at   52  2   RLX: 0.548
       a =  2.000      CL =  0.6068
      Cm = -0.0530     CD =  0.01253   =>   CDf =  0.00768    CDp =  0.00485

 Side 1  free  transition at x/c =  0.3764   49
 Side 2  free  transition at x/c =  0.5256   52

  15   rms: 0.2997E-01   max: -.5566E+00   C at   52  2   RLX: 0.898
       a =  2.000      CL =  0.6068
      Cm = -0.0529     CD =  0.01252   =>   CDf =  0.00768    CDp =  0.00485

 Side 1  free  transition at x/c =  0.3763   49
 Side 2  free  transition at x/c =  0.5630   54

  16   rms: 0.1673E-01   max: 0.3059E+00   C at   54  2
       a =  2.000      CL =  0.6067
      Cm = -0.0529     CD =  0.01251   =>   CDf =  0.00756    CDp =  0.00496

 Side 1  free  transition at x/c =  0.3763   49
 Side 2  free  transition at x/c =  0.5510   53

  17   rms: 0.3428E-03   max: -.5778E-02   C at   53  2
       a =  2.000      CL =  0.6067
      Cm = -0.0529     CD =  0.01251   =>   CDf =  0.00760    CDp =  0.00491

 Side 1  free  transition at x/c =  0.3763   49
 Side 2  free  transition at x/c =  0.5512   53

  18   rms: 0.1416E-04   max: 0.2529E-03   C at   53  2
       a =  2.000      CL =  0.6067
      Cm = -0.0529     CD =  0.01251   =>   CDf =  0.00760    CDp =  0.00492
 plradd ia,ip,cpol           13           0  0.15867384    

 Point added to stored polar  1
 Point written to save file  mue139_Re300k.base.pol                          
 Dump file unspecified or not available
 Calculating wake trajectory ...
 Calculating source influence matrix ...

 Solving BL system ...

 Side 1  free  transition at x/c =  0.3763   49
 Side 2  free  transition at x/c =  0.5512   53

   1   rms: 0.1454E+01   max: -.2596E+02   C at   53  2   RLX: 0.019
       a =  2.500      CL =  0.6067
      Cm = -0.0527     CD =  0.01245   =>   CDf =  0.00760    CDp =  0.00485

 Side 1  free  transition at x/c =  0.3761   49
 Side 2  free  transition at x/c =  0.5963   56

   2   rms: 0.1923E+01   max: -.3523E+02   C at   56  2   RLX: 0.014
       a =  2.500      CL =  0.6059
      Cm = -0.0523     CD =  0.01229   =>   CDf =  0.00745    CDp =  0.00485

 Side 1  free  transition at x/c =  0.3760   49
 Side 2  free  transition at x/c =  0.6176   57

   3   rms: 0.2022E+01   max: -.3628E+02   C at   57  2   RLX: 0.014
       a =  2.500      CL =  0.6055
      Cm = -0.0521     CD =  0.01222   =>   CDf =  0.00737    CDp =  0.00485

 Side 1  free  transition at x/c =  0.3759   49
 Side 2  free  transition at x/c =  0.6417   58

   4   rms: 0.2262E+01   max: -.3928E+02   C at   58  2   RLX: 0.013
       a =  2.500      CL =  0.6050
      Cm = -0.0518     CD =  0.01215   =>   CDf =  0.00729    CDp =  0.00485

 Side 1  free  transition at x/c =  0.3759   49
 Side 2  free  transition at x/c =  0.6656   59

   5   rms: 0.2515E+01   max: -.4223E+02   C at   59  2   RLX: 0.012
       a =  2.500      CL =  0.6045
      Cm = -0.0516     CD =  0.01207   =>   CDf =  0.00721    CDp =  0.00486

 Side 1  free  transition at x/c =  0.3758   49
 Side 2  free  transition at x/c =  0.6878   60

   6   rms: 0.2849E+01   max: -.4649E+02   C at   60  2   RLX: 0.011
       a =  2.500      CL =  0.6040
      Cm = -0.0513     CD =  0.01200   =>   CDf =  0.00713    CDp =  0.00487

 Side 1  free  transition at x/c =  0.3758   49
 Side 2  free  transition at x/c =  0.7096   62

   7   rms: 0.2503E+01   max: -.4400E+02   C at   62  2   RLX: 0.011
       a =  2.500      CL =  0.6034
      Cm = -0.0511     CD =  0.01193   =>   CDf =  0.00706    CDp =  0.00487

 Side 1  free  transition at x/c =  0.3757   49
 Side 2  free  transition at x/c =  0.7349   63

   8   rms: 0.3418E+01   max: -.5812E+02   C at   63  2   RLX: 0.009
       a =  2.500      CL =  0.6031
      Cm = -0.0509     CD =  0.01186   =>   CDf =  0.00698    CDp =  0.00488

 Side 1  free  transition at x/c =  0.3757   49
 Side 2  free  transition at x/c =  0.7613   64

   9   rms: 0.1487E+02   max: -.2425E+03   C at   64  2   RLX: 0.002
       a =  2.500      CL =  0.6031
      Cm = -0.0508     CD =  0.01179   =>   CDf =  0.00690    CDp =  0.00489

 Side 1  free  transition at x/c =  0.3757   49
 Side 2  free  transition at x/c =  0.7872   66

  10   rms: 0.5247E+01   max: 0.9144E+02   C at   66  2   RLX: 0.016
       a =  2.500      CL =  0.6015
      Cm = -0.0505     CD =  0.01200   =>   CDf =  0.00682    CDp =  0.00518

 Side 1  free  transition at x/c =  0.3756   49
 Side 2  free  transition at x/c =  0.7139   62

  11   rms: 0.2611E+01   max: -.4511E+02   C at   62  2   RLX: 0.011
       a =  2.500      CL =  0.6011
      Cm = -0.0503     CD =  0.01190   =>   CDf =  0.00704    CDp =  0.00486

 Side 1  free  transition at x/c =  0.3756   49
 Side 2  free  transition at x/c =  0.7387   63

  12   rms: 0.3880E+01   max: -.6482E+02   C at   63  2   RLX: 0.008
       a =  2.500      CL =  0.6008
      Cm = -0.0501     CD =  0.01183   =>   CDf =  0.00696    CDp =  0.00487

 Side 1  free  transition at x/c =  0.3755   49
 Side 2  free  transition at x/c =  0.7634   64

  13   rms: 0.2159E+02   max: -.3473E+03   C at   64  2   RLX: 0.001
       a =  2.500      CL =  0.6008
      Cm = -0.0500     CD =  0.01177   =>   CDf =  0.00688    CDp =  0.00489

 Side 1  free  transition at x/c =  0.3755   49
 Side 2  free  transition at x/c =  0.7865   66

  14   rms: 0.3889E+01   max: 0.6671E+02   C at   66  2   RLX: 0.022
       a =  2.500      CL =  0.5989
      Cm = -0.0496     CD =  0.01197   =>   CDf =  0.00681    CDp =  0.00516

 Side 1  free  transition at x/c =  0.3755   49
 Side 2  free  transition at x/c =  0.7142   62

  15   rms: 0.2481E+01   max: -.4294E+02   C at   62  2   RLX: 0.012
       a =  2.500      CL =  0.5985
      Cm = -0.0494     CD =  0.01189   =>   CDf =  0.00704    CDp =  0.00485

 Side 1  free  transition at x/c =  0.3754   49
 Side 2  free  transition at x/c =  0.7391   63

  16   rms: 0.3635E+01   max: -.6071E+02   C at   63  2   RLX: 0.008
       a =  2.500      CL =  0.5982
      Cm = -0.0492     CD =  0.01182   =>   CDf =  0.00695    CDp =  0.00487

 Side 1  free  transition at x/c =  0.3754   49
 Side 2  free  transition at x/c =  0.7632   64

  17   rms: 0.2269E+02   max: -.3638E+03   C at   64  2   RLX: 0.001
       a =  2.500      CL =  0.5982
      Cm = -0.0491     CD =  0.01176   =>   CDf =  0.00687    CDp =  0.00489

 Side 1  free  transition at x/c =  0.3754   49
 Side 2  free  transition at x/c =  0.7845   65

  18   rms: 0.4009E+01   max: 0.6245E+02   C at   65  2   RLX: 0.024
       a =  2.500      CL =  0.5963
      Cm = -0.0486     CD =  0.01193   =>   CDf =  0.00679    CDp =  0.00513

 Side 1  free  transition at x/c =  0.3753   49
 Side 2  free  transition at x/c =  0.7327   63

  19   rms: 0.2777E+01   max: -.4797E+02   C at   63  2   RLX: 0.010
       a =  2.500      CL =  0.5959
      Cm = -0.0484     CD =  0.01183   =>   CDf =  0.00697    CDp =  0.00486

 Side 1  free  transition at x/c =  0.3753   49
 Side 2  free  transition at x/c =  0.7578   64

  20   rms: 0.6966E+01   max: -.1155E+03   C at   64  2   RLX: 0.004
       a =  2.500      CL =  0.5957
      Cm = -0.0483     CD =  0.01176   =>   CDf =  0.00689    CDp =  0.00488

 Side 1  free  transition at x/c =  0.3753   49
 Side 2  free  transition at x/c =  0.7797   65

  21   rms: 0.4454E+01   max: 0.7065E+02   C at   65  2   RLX: 0.021
       a =  2.500      CL =  0.5940
      Cm = -0.0478     CD =  0.01193   =>   CDf =  0.00680    CDp =  0.00513

 Side 1  free  transition at x/c =  0.3752   49
 Side 2  free  transition at x/c =  0.7310   63

  22   rms: 0.2582E+01   max: -.4500E+02   C at   63  2   RLX: 0.011
       a =  2.500      CL =  0.5935
      Cm = -0.0476     CD =  0.01183   =>   CDf =  0.00698    CDp =  0.00485

 Side 1  free  transition at x/c =  0.3752   49
 Side 2  free  transition at x/c =  0.7559   64

  23   rms: 0.5993E+01   max: -.1002E+03   C at   64  2   RLX: 0.005
       a =  2.500      CL =  0.5934
      Cm = -0.0474     CD =  0.01176   =>   CDf =  0.00689    CDp =  0.00487

 Side 1  free  transition at x/c =  0.3752   49
 Side 2  free  transition at x/c =  0.7777   65

  24   rms: 0.4467E+01   max: 0.7116E+02   C at   65  2   RLX: 0.021
       a =  2.500      CL =  0.5917
      Cm = -0.0470     CD =  0.01193   =>   CDf =  0.00680    CDp =  0.00513

 Side 1  free  transition at x/c =  0.3751   49
 Side 2  free  transition at x/c =  0.7320   63

  25   rms: 0.2481E+01   max: -.4304E+02   C at   63  2   RLX: 0.012
       a =  2.500      CL =  0.5912
      Cm = -0.0467     CD =  0.01182   =>   CDf =  0.00697    CDp =  0.00485

 Side 1  free  transition at x/c =  0.3751   49
 Side 2  free  transition at x/c =  0.7565   64

  26   rms: 0.5606E+01   max: -.9329E+02   C at   64  2   RLX: 0.005
       a =  2.500      CL =  0.5910
      Cm = -0.0465     CD =  0.01176   =>   CDf =  0.00688    CDp =  0.00487

 Side 1  free  transition at x/c =  0.3751   49
 Side 2  free  transition at x/c =  0.7775   65

  27   rms: 0.4229E+01   max: 0.6702E+02   C at   65  2   RLX: 0.022
       a =  2.500      CL =  0.5893
      Cm = -0.0461     CD =  0.01192   =>   CDf =  0.00680    CDp =  0.00512

 Side 1  free  transition at x/c =  0.3750   49
 Side 2  free  transition at x/c =  0.7350   63

  28   rms: 0.2646E+01   max: -.4519E+02   C at   63  2   RLX: 0.011
       a =  2.500      CL =  0.5887
      Cm = -0.0458     CD =  0.01181   =>   CDf =  0.00696    CDp =  0.00485

 Side 1  free  transition at x/c =  0.3750   49
 Side 2  free  transition at x/c =  0.7588   64

  29   rms: 0.9823E+01   max: -.1596E+03   C at   64  2   RLX: 0.003
       a =  2.500      CL =  0.5887
      Cm = -0.0457     CD =  0.01175   =>   CDf =  0.00687    CDp =  0.00488

 Side 1  free  transition at x/c =  0.3750   49
 Side 2  free  transition at x/c =  0.7787   65

  30   rms: 0.3841E+01   max: 0.6014E+02   C at   65  2   RLX: 0.025
       a =  2.500      CL =  0.5868
      Cm = -0.0452     CD =  0.01191   =>   CDf =  0.00679    CDp =  0.00512

 Side 1  free  transition at x/c =  0.3749   49
 Side 2  free  transition at x/c =  0.7383   63

  31   rms: 0.2788E+01   max: -.4680E+02   C at   63  2   RLX: 0.011
       a =  2.500      CL =  0.5863
      Cm = -0.0448     CD =  0.01180   =>   CDf =  0.00695    CDp =  0.00485

 Side 1  free  transition at x/c =  0.3749   49
 Side 2  free  transition at x/c =  0.7618   64

  32   rms: 0.1011E+02   max: -.1618E+03   C at   64  2   RLX: 0.003
       a =  2.500      CL =  0.5862
      Cm = -0.0447     CD =  0.01174   =>   CDf =  0.00686    CDp =  0.00488

 Side 1  free  transition at x/c =  0.3749   49
 Side 2  free  transition at x/c =  0.7810   65

  33   rms: 0.2407E+01   max: 0.3648E+02   C at   65  2   RLX: 0.041
       a =  2.500      CL =  0.5835
      Cm = -0.0438     CD =  0.01189   =>   CDf =  0.00677    CDp =  0.00512

 Side 1  free  transition at x/c =  0.3748   49
 Side 2  free  transition at x/c =  0.7428   63

  34   rms: 0.3401E+01   max: -.5541E+02   C at   63  2   RLX: 0.009
       a =  2.500      CL =  0.5830
      Cm = -0.0435     CD =  0.01179   =>   CDf =  0.00693    CDp =  0.00486

 Side 1  free  transition at x/c =  0.3747   49
 Side 2  free  transition at x/c =  0.7655   65

  35   rms: 0.9154E+01   max: -.1570E+03   C at   65  2   RLX: 0.003
       a =  2.500      CL =  0.5829
      Cm = -0.0434     CD =  0.01173   =>   CDf =  0.00685    CDp =  0.00488

 Side 1  free  transition at x/c =  0.3747   49
 Side 2  free  transition at x/c =  0.7810   65

  36   rms: 0.2337E+01   max: 0.3538E+02   C at   65  2   RLX: 0.042
       a =  2.500      CL =  0.5805
      Cm = -0.0427     CD =  0.01189   =>   CDf =  0.00677    CDp =  0.00512

 Side 1  free  transition at x/c =  0.3746   49
 Side 2  free  transition at x/c =  0.7440   63

  37   rms: 0.3225E+01   max: -.5230E+02   C at   63  2   RLX: 0.010
       a =  2.500      CL =  0.5800
      Cm = -0.0424     CD =  0.01178   =>   CDf =  0.00693    CDp =  0.00485

 Side 1  free  transition at x/c =  0.3746   49
 Side 2  free  transition at x/c =  0.7672   65

  38   rms: 0.1207E+02   max: -.2048E+03   C at   65  2   RLX: 0.002
       a =  2.500      CL =  0.5799
      Cm = -0.0422     CD =  0.01172   =>   CDf =  0.00684    CDp =  0.00488

 Side 1  free  transition at x/c =  0.3746   49
 Side 2  free  transition at x/c =  0.7823   65

  39   rms: 0.2120E+01   max: 0.3179E+02   C at   65  2   RLX: 0.047
       a =  2.500      CL =  0.5773
      Cm = -0.0414     CD =  0.01188   =>   CDf =  0.00676    CDp =  0.00512

 Side 1  free  transition at x/c =  0.3745   49
 Side 2  free  transition at x/c =  0.7477   64

  40   rms: 0.2525E+01   max: -.4400E+02   C at   64  2   RLX: 0.011
       a =  2.500      CL =  0.5766
      Cm = -0.0410     CD =  0.01176   =>   CDf =  0.00691    CDp =  0.00485

 Side 1  free  transition at x/c =  0.3745   49
 Side 2  free  transition at x/c =  0.7697   65

  41   rms: 0.1547E+02   max: 0.2540E+03   C at   65  2   RLX: 0.006
       a =  2.500      CL =  0.5759
      Cm = -0.0409     CD =  0.01191   =>   CDf =  0.00683    CDp =  0.00509

 Side 1  free  transition at x/c =  0.3745   49
 Side 2  free  transition at x/c =  0.7302   63

  42   rms: 0.1795E+01   max: -.3126E+02   C at   63  2   RLX: 0.016
       a =  2.500      CL =  0.5749
      Cm = -0.0404     CD =  0.01180   =>   CDf =  0.00697    CDp =  0.00483

 Side 1  free  transition at x/c =  0.3744   49
 Side 2  free  transition at x/c =  0.7556   64

  43   rms: 0.3057E+01   max: -.5060E+02   C at   64  2   RLX: 0.010
       a =  2.500      CL =  0.5745
      Cm = -0.0401     CD =  0.01176   =>   CDf =  0.00688    CDp =  0.00488

 Side 1  free  transition at x/c =  0.3744   49
 Side 2  free  transition at x/c =  0.7759   65

  44   rms: 0.3285E+01   max: 0.5073E+02   C at   65  2   RLX: 0.030
       a =  2.500      CL =  0.5725
      Cm = -0.0395     CD =  0.01190   =>   CDf =  0.00679    CDp =  0.00511

 Side 1  free  transition at x/c =  0.3743   49
 Side 2  free  transition at x/c =  0.7408   63

  45   rms: 0.2037E+01   max: -.3356E+02   C at   63  2   RLX: 0.015
       a =  2.500      CL =  0.5714
      Cm = -0.0388     CD =  0.01179   =>   CDf =  0.00694    CDp =  0.00485

 Side 1  free  transition at x/c =  0.3743   49
 Side 2  free  transition at x/c =  0.7642   64

  46   rms: 0.4356E+01   max: -.6823E+02   C at   64  2   RLX: 0.007
       a =  2.500      CL =  0.5710
      Cm = -0.0385     CD =  0.01174   =>   CDf =  0.00685    CDp =  0.00489

 Side 1  free  transition at x/c =  0.3743   49
 Side 2  free  transition at x/c =  0.7829   65

  47   rms: 0.1638E+01   max: 0.2401E+02   C at   65  2   RLX: 0.062
       a =  2.500      CL =  0.5676
      Cm = -0.0373     CD =  0.01186   =>   CDf =  0.00676    CDp =  0.00510

 Side 1  free  transition at x/c =  0.3742   49
 Side 2  free  transition at x/c =  0.7502   64

  48   rms: 0.2162E+01   max: -.3685E+02   C at   64  2   RLX: 0.014
       a =  2.500      CL =  0.5666
      Cm = -0.0367     CD =  0.01174   =>   CDf =  0.00691    CDp =  0.00482

 Side 1  free  transition at x/c =  0.3741   49
 Side 2  free  transition at x/c =  0.7713   65

  49   rms: 0.1465E+02   max: 0.2355E+03   C at   65  2   RLX: 0.006
       a =  2.500      CL =  0.5657
      Cm = -0.0365     CD =  0.01187   =>   CDf =  0.00683    CDp =  0.00504

 Side 1  free  transition at x/c =  0.3742   49
 Side 2  free  transition at x/c =  0.7334   63

  50   rms: 0.1564E+01   max: -.2666E+02   C at   63  2   RLX: 0.019
       a =  2.500      CL =  0.5644
      Cm = -0.0357     CD =  0.01176   =>   CDf =  0.00697    CDp =  0.00479

 Side 1  free  transition at x/c =  0.3741   49
 Side 2  free  transition at x/c =  0.7581   64

  51   rms: 0.2534E+01   max: -.4072E+02   C at   64  2   RLX: 0.012
       a =  2.500      CL =  0.5639
      Cm = -0.0354     CD =  0.01172   =>   CDf =  0.00688    CDp =  0.00484

 Side 1  free  transition at x/c =  0.3741   49
 Side 2  free  transition at x/c =  0.7771   65

  52   rms: 0.1936E+01   max: 0.2927E+02   C at   65  2   RLX: 0.051
       a =  2.500      CL =  0.5613
      Cm = -0.0346     CD =  0.01184   =>   CDf =  0.00680    CDp =  0.00504

 Side 1  free  transition at x/c =  0.3740   49
 Side 2  free  transition at x/c =  0.7443   63

  53   rms: 0.1718E+01   max: -.2755E+02   C at   63  2   RLX: 0.018
       a =  2.500      CL =  0.5600
      Cm = -0.0337     CD =  0.01170   =>   CDf =  0.00695    CDp =  0.00475

 Side 1  free  transition at x/c =  0.3740   49
 Side 2  free  transition at x/c =  0.7668   65

  54   rms: 0.6146E+01   max: -.1009E+03   C at   65  2   RLX: 0.005
       a =  2.500      CL =  0.5597
      Cm = -0.0334     CD =  0.01165   =>   CDf =  0.00686    CDp =  0.00479

 Side 1  free  transition at x/c =  0.3740   49
 Side 2  free  transition at x/c =  0.7805   65

  55   rms: 0.1591E+01   max: 0.2352E+02   C at   65  2   RLX: 0.064
       a =  2.500      CL =  0.5573
      Cm = -0.0328     CD =  0.01178   =>   CDf =  0.00679    CDp =  0.00500

 Side 1  free  transition at x/c =  0.3739   49
 Side 2  free  transition at x/c =  0.7498   64

  56   rms: 0.1474E+01   max: -.2506E+02   C at   64  2   RLX: 0.020
       a =  2.500      CL =  0.5560
      Cm = -0.0319     CD =  0.01162   =>   CDf =  0.00693    CDp =  0.00469

 Side 1  free  transition at x/c =  0.3738   49
 Side 2  free  transition at x/c =  0.7708   65

  57   rms: 0.1054E+02   max: -.1691E+03   C at   65  2   RLX: 0.003
       a =  2.500      CL =  0.5557
      Cm = -0.0317     CD =  0.01157   =>   CDf =  0.00685    CDp =  0.00472

 Side 1  free  transition at x/c =  0.3738   49
 Side 2  free  transition at x/c =  0.7840   65

  58   rms: 0.9873E+00   max: 0.1415E+02   C at   65  2   RLX: 0.106
       a =  2.500      CL =  0.5528
      Cm = -0.0309     CD =  0.01172   =>   CDf =  0.00678    CDp =  0.00494

 Side 1  free  transition at x/c =  0.3737   49
 Side 2  free  transition at x/c =  0.7532   64

  59   rms: 0.1716E+01   max: -.2867E+02   C at   64  2   RLX: 0.017
       a =  2.500      CL =  0.5518
      Cm = -0.0302     CD =  0.01154   =>   CDf =  0.00693    CDp =  0.00461

 Side 1  free  transition at x/c =  0.3737   49
 Side 2  free  transition at x/c =  0.7744   65

  60   rms: 0.2448E+01   max: 0.3795E+02   C at   65  2   RLX: 0.040
       a =  2.500      CL =  0.5501
      Cm = -0.0298     CD =  0.01166   =>   CDf =  0.00684    CDp =  0.00482

 Side 1  free  transition at x/c =  0.3736   49
 Side 2  free  transition at x/c =  0.7381   63

  61   rms: 0.1361E+01   max: -.2259E+02   C at   63  2   RLX: 0.022
       a =  2.500      CL =  0.5490
      Cm = -0.0291     CD =  0.01152   =>   CDf =  0.00699    CDp =  0.00454

 Side 1  free  transition at x/c =  0.3736   49
 Side 2  free  transition at x/c =  0.7621   64

  62   rms: 0.1852E+01   max: -.2926E+02   C at   64  2   RLX: 0.017
       a =  2.500      CL =  0.5486
      Cm = -0.0288     CD =  0.01148   =>   CDf =  0.00690    CDp =  0.00458

 Side 1  free  transition at x/c =  0.3736   49
 Side 2  free  transition at x/c =  0.7815   65

  63   rms: 0.1968E+01   max: 0.2911E+02   C at   65  2   RLX: 0.052
       a =  2.500      CL =  0.5466
      Cm = -0.0281     CD =  0.01159   =>   CDf =  0.00682    CDp =  0.00477

 Side 1  free  transition at x/c =  0.3735   49
 Side 2  free  transition at x/c =  0.7482   64

  64   rms: 0.1171E+01   max: -.2010E+02   C at   64  2   RLX: 0.025
       a =  2.500      CL =  0.5455
      Cm = -0.0274     CD =  0.01144   =>   CDf =  0.00696    CDp =  0.00448

 Side 1  free  transition at x/c =  0.3735   49
 Side 2  free  transition at x/c =  0.7698   65

  65   rms: 0.2795E+01   max: -.4531E+02   C at   65  2   RLX: 0.011
       a =  2.500      CL =  0.5453
      Cm = -0.0272     CD =  0.01140   =>   CDf =  0.00688    CDp =  0.00452

 Side 1  free  transition at x/c =  0.3735   49
 Side 2  free  transition at x/c =  0.7840   65

  66   rms: 0.1262E+01   max: 0.1822E+02   C at   65  2   RLX: 0.082
       a =  2.500      CL =  0.5436
      Cm = -0.0269     CD =  0.01155   =>   CDf =  0.00681    CDp =  0.00474

 Side 1  free  transition at x/c =  0.3734   49
 Side 2  free  transition at x/c =  0.7503   64

  67   rms: 0.1222E+01   max: -.2074E+02   C at   64  2   RLX: 0.024
       a =  2.500      CL =  0.5428
      Cm = -0.0263     CD =  0.01139   =>   CDf =  0.00696    CDp =  0.00442

 Side 1  free  transition at x/c =  0.3734   49
 Side 2  free  transition at x/c =  0.7720   65

  68   rms: 0.5693E+01   max: -.9127E+02   C at   65  2   RLX: 0.005
       a =  2.500      CL =  0.5425
      Cm = -0.0261     CD =  0.01134   =>   CDf =  0.00688    CDp =  0.00445

 Side 1  free  transition at x/c =  0.3733   49
 Side 2  free  transition at x/c =  0.7863   66

  69   rms: 0.1062E+01   max: 0.1650E+02   C at   66  2   RLX: 0.091
       a =  2.500      CL =  0.5411
      Cm = -0.0259     CD =  0.01152   =>   CDf =  0.00682    CDp =  0.00470

 Side 1  free  transition at x/c =  0.3733   49
 Side 2  free  transition at x/c =  0.7501   64

  70   rms: 0.1162E+01   max: -.1977E+02   C at   64  2   RLX: 0.025
       a =  2.500      CL =  0.5402
      Cm = -0.0252     CD =  0.01134   =>   CDf =  0.00698    CDp =  0.00437

 Side 1  free  transition at x/c =  0.3732   49
 Side 2  free  transition at x/c =  0.7721   65

  71   rms: 0.4196E+01   max: -.6746E+02   C at   65  2   RLX: 0.007
       a =  2.500      CL =  0.5400
      Cm = -0.0250     CD =  0.01129   =>   CDf =  0.00689    CDp =  0.00440

 Side 1  free  transition at x/c =  0.3732   49
 Side 2  free  transition at x/c =  0.7872   66

  72   rms: 0.1132E+01   max: 0.1760E+02   C at   66  2   RLX: 0.085
       a =  2.500      CL =  0.5387
      Cm = -0.0249     CD =  0.01148   =>   CDf =  0.00683    CDp =  0.00465

 Side 1  free  transition at x/c =  0.3732   49
 Side 2  free  transition at x/c =  0.7511   64

  73   rms: 0.1136E+01   max: -.1923E+02   C at   64  2   RLX: 0.026
       a =  2.500      CL =  0.5377
      Cm = -0.0242     CD =  0.01131   =>   CDf =  0.00698    CDp =  0.00432

 Side 1  free  transition at x/c =  0.3732   49
 Side 2  free  transition at x/c =  0.7733   65

  74   rms: 0.3860E+01   max: -.6184E+02   C at   65  2   RLX: 0.008
       a =  2.500      CL =  0.5376
      Cm = -0.0240     CD =  0.01125   =>   CDf =  0.00690    CDp =  0.00435

 Side 1  free  transition at x/c =  0.3731   49
 Side 2  free  transition at x/c =  0.7891   66

  75   rms: 0.1117E+01   max: 0.1727E+02   C at   66  2   RLX: 0.087
       a =  2.500      CL =  0.5365
      Cm = -0.0239     CD =  0.01144   =>   CDf =  0.00684    CDp =  0.00460

 Side 1  free  transition at x/c =  0.3731   49
 Side 2  free  transition at x/c =  0.7537   64

  76   rms: 0.1175E+01   max: -.1964E+02   C at   64  2   RLX: 0.025
       a =  2.500      CL =  0.5355
      Cm = -0.0232     CD =  0.01127   =>   CDf =  0.00699    CDp =  0.00428

 Side 1  free  transition at x/c =  0.3731   49
 Side 2  free  transition at x/c =  0.7761   65

  77   rms: 0.4871E+01   max: -.7714E+02   C at   65  2   RLX: 0.006
       a =  2.500      CL =  0.5352
      Cm = -0.0229     CD =  0.01121   =>   CDf =  0.00691    CDp =  0.00430

 Side 1  free  transition at x/c =  0.3731   49
 Side 2  free  transition at x/c =  0.7921   66

  78   rms: 0.8600E+00   max: 0.1309E+02   C at   66  2   RLX: 0.115
       a =  2.500      CL =  0.5342
      Cm = -0.0229     CD =  0.01139   =>   CDf =  0.00684    CDp =  0.00455

 Side 1  free  transition at x/c =  0.3730   49
 Side 2  free  transition at x/c =  0.7576   64

  79   rms: 0.1461E+01   max: -.2376E+02   C at   64  2   RLX: 0.021
       a =  2.500      CL =  0.5333
      Cm = -0.0223     CD =  0.01122   =>   CDf =  0.00698    CDp =  0.00424

 Side 1  free  transition at x/c =  0.3730   49
 Side 2  free  transition at x/c =  0.7796   65

  80   rms: 0.1175E+02   max: 0.1809E+03   C at   65  2   RLX: 0.008
       a =  2.500      CL =  0.5322
      Cm = -0.0219     CD =  0.01135   =>   CDf =  0.00691    CDp =  0.00444

 Side 1  free  transition at x/c =  0.3730   49
 Side 2  free  transition at x/c =  0.7346   63

  81   rms: 0.1103E+01   max: -.1858E+02   C at   63  2   RLX: 0.027
       a =  2.500      CL =  0.5317
      Cm = -0.0215     CD =  0.01125   =>   CDf =  0.00708    CDp =  0.00418

 Side 1  free  transition at x/c =  0.3730   49
 Side 2  free  transition at x/c =  0.7600   64

  82   rms: 0.1267E+01   max: -.2034E+02   C at   64  2   RLX: 0.025
       a =  2.500      CL =  0.5317
      Cm = -0.0215     CD =  0.01122   =>   CDf =  0.00700    CDp =  0.00422

 Side 1  free  transition at x/c =  0.3730   49
 Side 2  free  transition at x/c =  0.7816   65

  83   rms: 0.5260E+02   max: 0.7982E+03   C at   65  2   RLX: 0.002
       a =  2.500      CL =  0.5305
      Cm = -0.0210     CD =  0.01134   =>   CDf =  0.00692    CDp =  0.00442

 Side 1  free  transition at x/c =  0.3730   49
 Side 2  free  transition at x/c =  0.7382   63

  84   rms: 0.1058E+01   max: -.1734E+02   C at   63  2   RLX: 0.029
       a =  2.500      CL =  0.5299
      Cm = -0.0206     CD =  0.01125   =>   CDf =  0.00709    CDp =  0.00416

 Side 1  free  transition at x/c =  0.3730   49
 Side 2  free  transition at x/c =  0.7623   64

  85   rms: 0.1330E+01   max: -.2112E+02   C at   64  2   RLX: 0.024
       a =  2.500      CL =  0.5300
      Cm = -0.0206     CD =  0.01121   =>   CDf =  0.00701    CDp =  0.00420

 Side 1  free  transition at x/c =  0.3729   49
 Side 2  free  transition at x/c =  0.7835   65

  86   rms: 0.4138E+02   max: 0.6196E+03   C at   65  2   RLX: 0.002
       a =  2.500      CL =  0.5286
      Cm = -0.0200     CD =  0.01133   =>   CDf =  0.00693    CDp =  0.00440

 Side 1  free  transition at x/c =  0.3730   49
 Side 2  free  transition at x/c =  0.7416   63

  87   rms: 0.1033E+01   max: -.1670E+02   C at   63  2   RLX: 0.030
       a =  2.500      CL =  0.5281
      Cm = -0.0196     CD =  0.01123   =>   CDf =  0.00710    CDp =  0.00414

 Side 1  free  transition at x/c =  0.3729   49
 Side 2  free  transition at x/c =  0.7656   65

  88   rms: 0.1066E+01   max: -.1819E+02   C at   65  2   RLX: 0.027
       a =  2.500      CL =  0.5282
      Cm = -0.0196     CD =  0.01119   =>   CDf =  0.00702    CDp =  0.00417

 Side 1  free  transition at x/c =  0.3729   49
 Side 2  free  transition at x/c =  0.7824   65

  89   rms: 0.1046E+02   max: -.1575E+03   C at   65  2   RLX: 0.003
       a =  2.500      CL =  0.5282
      Cm = -0.0195     CD =  0.01113   =>   CDf =  0.00695    CDp =  0.00418

 Side 1  free  transition at x/c =  0.3729   49
 Side 2  free  transition at x/c =  0.7970   66

  90   rms: 0.8488E+00   max: 0.1243E+02   C at   66  2   RLX: 0.121
       a =  2.500      CL =  0.5280
      Cm = -0.0198     CD =  0.01131   =>   CDf =  0.00689    CDp =  0.00442

 Side 1  free  transition at x/c =  0.3729   49
 Side 2  free  transition at x/c =  0.7651   64

  91   rms: 0.1642E+01   max: -.2587E+02   C at   64  2   RLX: 0.019
       a =  2.500      CL =  0.5273
      Cm = -0.0193     CD =  0.01113   =>   CDf =  0.00700    CDp =  0.00413

 Side 1  free  transition at x/c =  0.3728   49
 Side 2  free  transition at x/c =  0.7869   66

  92   rms: 0.2539E+01   max: 0.4082E+02   C at   66  2   RLX: 0.037
       a =  2.500      CL =  0.5261
      Cm = -0.0189     CD =  0.01127   =>   CDf =  0.00693    CDp =  0.00435

 Side 1  free  transition at x/c =  0.3729   49
 Side 2  free  transition at x/c =  0.7495   64

  93   rms: 0.1115E+01   max: -.1906E+02   C at   64  2   RLX: 0.026
       a =  2.500      CL =  0.5255
      Cm = -0.0184     CD =  0.01114   =>   CDf =  0.00707    CDp =  0.00407

 Side 1  free  transition at x/c =  0.3728   49
 Side 2  free  transition at x/c =  0.7734   65

  94   rms: 0.1730E+01   max: -.2796E+02   C at   65  2   RLX: 0.018
       a =  2.500      CL =  0.5255
      Cm = -0.0183     CD =  0.01110   =>   CDf =  0.00700    CDp =  0.00410

 Side 1  free  transition at x/c =  0.3728   49
 Side 2  free  transition at x/c =  0.7901   66

  95   rms: 0.1609E+01   max: 0.2497E+02   C at   66  2   RLX: 0.060
       a =  2.500      CL =  0.5251
      Cm = -0.0184     CD =  0.01127   =>   CDf =  0.00694    CDp =  0.00434

 Side 1  free  transition at x/c =  0.3728   49
 Side 2  free  transition at x/c =  0.7550   64

  96   rms: 0.1147E+01   max: -.1907E+02   C at   64  2   RLX: 0.026
       a =  2.500      CL =  0.5244
      Cm = -0.0179     CD =  0.01113   =>   CDf =  0.00707    CDp =  0.00406

 Side 1  free  transition at x/c =  0.3728   49
 Side 2  free  transition at x/c =  0.7781   65

  97   rms: 0.3072E+01   max: -.4783E+02   C at   65  2   RLX: 0.010
       a =  2.500      CL =  0.5243
      Cm = -0.0177     CD =  0.01107   =>   CDf =  0.00699    CDp =  0.00408

 Side 1  free  transition at x/c =  0.3728   49
 Side 2  free  transition at x/c =  0.7949   66

  98   rms: 0.1177E+01   max: 0.1772E+02   C at   66  2   RLX: 0.085
       a =  2.500      CL =  0.5241
      Cm = -0.0179     CD =  0.01124   =>   CDf =  0.00693    CDp =  0.00430

 Side 1  free  transition at x/c =  0.3728   49
 Side 2  free  transition at x/c =  0.7610   64

  99   rms: 0.1386E+01   max: -.2225E+02   C at   64  2   RLX: 0.022
       a =  2.500      CL =  0.5236
      Cm = -0.0175     CD =  0.01109   =>   CDf =  0.00705    CDp =  0.00404

 Side 1  free  transition at x/c =  0.3728   49
 Side 2  free  transition at x/c =  0.7833   65

 100   rms: 0.4639E+02   max: -.7054E+03   C at   65  2   RLX: 0.001
       a =  2.500      CL =  0.5233
      Cm = -0.0172     CD =  0.01102   =>   CDf =  0.00698    CDp =  0.00404

 Side 1  free  transition at x/c =  0.3727   49
 Side 2  free  transition at x/c =  0.8002   66

 101   rms: 0.5976E+00   max: 0.8585E+01   C at   66  2   RLX: 0.175
       a =  2.500      CL =  0.5240
      Cm = -0.0180     CD =  0.01120   =>   CDf =  0.00691    CDp =  0.00429

 Side 1  free  transition at x/c =  0.3727   49
 Side 2  free  transition at x/c =  0.7677   65

 102   rms: 0.2115E+01   max: -.3609E+02   C at   65  2   RLX: 0.014
       a =  2.500      CL =  0.5238
      Cm = -0.0178     CD =  0.01102   =>   CDf =  0.00700    CDp =  0.00402

 Side 1  free  transition at x/c =  0.3727   49
 Side 2  free  transition at x/c =  0.7878   66

 103   rms: 0.2351E+01   max: 0.3825E+02   C at   66  2   RLX: 0.039
       a =  2.500      CL =  0.5234
      Cm = -0.0178     CD =  0.01119   =>   CDf =  0.00693    CDp =  0.00425

 Side 1  free  transition at x/c =  0.3727   49
 Side 2  free  transition at x/c =  0.7477   64

 104   rms: 0.1303E+01   max: -.2252E+02   C at   64  2   RLX: 0.022
       a =  2.500      CL =  0.5231
      Cm = -0.0175     CD =  0.01107   =>   CDf =  0.00708    CDp =  0.00399

 Side 1  free  transition at x/c =  0.3727   49
 Side 2  free  transition at x/c =  0.7724   65

 105   rms: 0.1843E+01   max: -.3016E+02   C at   65  2   RLX: 0.017
       a =  2.500      CL =  0.5233
      Cm = -0.0175     CD =  0.01103   =>   CDf =  0.00701    CDp =  0.00402

 Side 1  free  transition at x/c =  0.3727   49
 Side 2  free  transition at x/c =  0.7914   66

 106   rms: 0.1808E+01   max: 0.2826E+02   C at   66  2   RLX: 0.053
       a =  2.500      CL =  0.5229
      Cm = -0.0175     CD =  0.01120   =>   CDf =  0.00694    CDp =  0.00426

 Side 1  free  transition at x/c =  0.3727   49
 Side 2  free  transition at x/c =  0.7536   64

 107   rms: 0.1227E+01   max: -.2057E+02   C at   64  2   RLX: 0.024
       a =  2.500      CL =  0.5225
      Cm = -0.0172     CD =  0.01107   =>   CDf =  0.00708    CDp =  0.00400

 Side 1  free  transition at x/c =  0.3727   49
 Side 2  free  transition at x/c =  0.7774   65

 108   rms: 0.1947E+01   max: -.3112E+02   C at   65  2   RLX: 0.016
       a =  2.500      CL =  0.5226
      Cm = -0.0172     CD =  0.01102   =>   CDf =  0.00701    CDp =  0.00402

 Side 1  free  transition at x/c =  0.3726   49
 Side 2  free  transition at x/c =  0.7962   66

 109   rms: 0.1377E+01   max: 0.2086E+02   C at   66  2   RLX: 0.072
       a =  2.500      CL =  0.5223
      Cm = -0.0173     CD =  0.01119   =>   CDf =  0.00694    CDp =  0.00425

 Side 1  free  transition at x/c =  0.3727   49
 Side 2  free  transition at x/c =  0.7598   64

 110   rms: 0.1389E+01   max: -.2245E+02   C at   64  2   RLX: 0.022
       a =  2.500      CL =  0.5220
      Cm = -0.0169     CD =  0.01105   =>   CDf =  0.00706    CDp =  0.00399

 Side 1  free  transition at x/c =  0.3726   49
 Side 2  free  transition at x/c =  0.7826   65

 111   rms: 0.7243E+01   max: -.1115E+03   C at   65  2   RLX: 0.004
       a =  2.500      CL =  0.5220
      Cm = -0.0168     CD =  0.01099   =>   CDf =  0.00699    CDp =  0.00400

 Side 1  free  transition at x/c =  0.3726   49
 Side 2  free  transition at x/c =  0.8012   66

 112   rms: 0.7882E+00   max: 0.1155E+02   C at   66  2   RLX: 0.130
       a =  2.500      CL =  0.5223
      Cm = -0.0173     CD =  0.01116   =>   CDf =  0.00693    CDp =  0.00423

 Side 1  free  transition at x/c =  0.3726   49
 Side 2  free  transition at x/c =  0.7657   65

 113   rms: 0.1564E+01   max: -.2700E+02   C at   65  2   RLX: 0.019
       a =  2.500      CL =  0.5221
      Cm = -0.0170     CD =  0.01101   =>   CDf =  0.00702    CDp =  0.00398

 Side 1  free  transition at x/c =  0.3726   49
 Side 2  free  transition at x/c =  0.7872   66

 114   rms: 0.5133E+01   max: 0.8426E+02   C at   66  2   RLX: 0.018
       a =  2.500      CL =  0.5214
      Cm = -0.0169     CD =  0.01117   =>   CDf =  0.00696    CDp =  0.00421

 Side 1  free  transition at x/c =  0.3726   49
 Side 2  free  transition at x/c =  0.7451   63

 115   rms: 0.1377E+01   max: -.2197E+02   C at   63  2   RLX: 0.023
       a =  2.500      CL =  0.5211
      Cm = -0.0166     CD =  0.01106   =>   CDf =  0.00711    CDp =  0.00395

 Side 1  free  transition at x/c =  0.3726   49
 Side 2  free  transition at x/c =  0.7693   65

 116   rms: 0.1230E+01   max: -.2076E+02   C at   65  2   RLX: 0.024
       a =  2.500      CL =  0.5214
      Cm = -0.0167     CD =  0.01102   =>   CDf =  0.00705    CDp =  0.00398

 Side 1  free  transition at x/c =  0.3726   49
 Side 2  free  transition at x/c =  0.7896   66

 117   rms: 0.2270E+03   max: 0.3655E+04   C at   66  2   RLX: 0.000
       a =  2.500      CL =  0.5204
      Cm = -0.0163     CD =  0.01118   =>   CDf =  0.00698    CDp =  0.00420

 Side 1  free  transition at x/c =  0.3726   49
 Side 2  free  transition at x/c =  0.7497   64

 118   rms: 0.9460E+00   max: -.1616E+02   C at   64  2   RLX: 0.031
       a =  2.500      CL =  0.5201
      Cm = -0.0160     CD =  0.01107   =>   CDf =  0.00713    CDp =  0.00394

 Side 1  free  transition at x/c =  0.3726   49
 Side 2  free  transition at x/c =  0.7742   65

 119   rms: 0.1265E+01   max: -.2051E+02   C at   65  2   RLX: 0.024
       a =  2.500      CL =  0.5204
      Cm = -0.0160     CD =  0.01103   =>   CDf =  0.00706    CDp =  0.00397

 Side 1  free  transition at x/c =  0.3726   49
 Side 2  free  transition at x/c =  0.7932   66

 120   rms: 0.4045E+01   max: 0.6252E+02   C at   66  2   RLX: 0.024
       a =  2.500      CL =  0.5196
      Cm = -0.0158     CD =  0.01119   =>   CDf =  0.00699    CDp =  0.00420

 Side 1  free  transition at x/c =  0.3726   49
 Side 2  free  transition at x/c =  0.7559   64

 121   rms: 0.9668E+00   max: -.1585E+02   C at   64  2   RLX: 0.032
       a =  2.500      CL =  0.5194
      Cm = -0.0155     CD =  0.01107   =>   CDf =  0.00712    CDp =  0.00395

 Side 1  free  transition at x/c =  0.3726   49
 Side 2  free  transition at x/c =  0.7790   65

 122   rms: 0.1421E+01   max: -.2257E+02   C at   65  2   RLX: 0.022
       a =  2.500      CL =  0.5196
      Cm = -0.0156     CD =  0.01102   =>   CDf =  0.00705    CDp =  0.00397

 Side 1  free  transition at x/c =  0.3726   49
 Side 2  free  transition at x/c =  0.7978   66

 123   rms: 0.1840E+01   max: 0.2761E+02   C at   66  2   RLX: 0.054
       a =  2.500      CL =  0.5192
      Cm = -0.0156     CD =  0.01116   =>   CDf =  0.00698    CDp =  0.00418

 Side 1  free  transition at x/c =  0.3726   49
 Side 2  free  transition at x/c =  0.7621   64

 124   rms: 0.1159E+01   max: -.1857E+02   C at   64  2   RLX: 0.027
       a =  2.500      CL =  0.5191
      Cm = -0.0154     CD =  0.01103   =>   CDf =  0.00709    CDp =  0.00395

 Side 1  free  transition at x/c =  0.3726   49
 Side 2  free  transition at x/c =  0.7853   66

 125   rms: 0.3255E+01   max: -.5393E+02   C at   66  2   RLX: 0.009
       a =  2.500      CL =  0.5191
      Cm = -0.0153     CD =  0.01096   =>   CDf =  0.00702    CDp =  0.00394

 Side 1  free  transition at x/c =  0.3726   49
 Side 2  free  transition at x/c =  0.7997   66

 126   rms: 0.1307E+01   max: 0.1939E+02   C at   66  2   RLX: 0.077
       a =  2.500      CL =  0.5195
      Cm = -0.0158     CD =  0.01116   =>   CDf =  0.00697    CDp =  0.00419

 Side 1  free  transition at x/c =  0.3726   49
 Side 2  free  transition at x/c =  0.7639   64

 127   rms: 0.1283E+01   max: -.2043E+02   C at   64  2   RLX: 0.024
       a =  2.500      CL =  0.5193
      Cm = -0.0155     CD =  0.01102   =>   CDf =  0.00707    CDp =  0.00395

 Side 1  free  transition at x/c =  0.3726   49
 Side 2  free  transition at x/c =  0.7872   66

 128   rms: 0.6786E+01   max: -.1115E+03   C at   66  2   RLX: 0.004
       a =  2.500      CL =  0.5192
      Cm = -0.0154     CD =  0.01094   =>   CDf =  0.00700    CDp =  0.00394

 Side 1  free  transition at x/c =  0.3725   49
 Side 2  free  transition at x/c =  0.8016   66

 129   rms: 0.9875E+00   max: 0.1451E+02   C at   66  2   RLX: 0.103
       a =  2.500      CL =  0.5200
      Cm = -0.0161     CD =  0.01115   =>   CDf =  0.00696    CDp =  0.00419

 Side 1  free  transition at x/c =  0.3726   49
 Side 2  free  transition at x/c =  0.7652   64

 130   rms: 0.1484E+01   max: -.2352E+02   C at   64  2   RLX: 0.021
       a =  2.500      CL =  0.5198
      Cm = -0.0159     CD =  0.01100   =>   CDf =  0.00705    CDp =  0.00395

 Side 1  free  transition at x/c =  0.3725   49
 Side 2  free  transition at x/c =  0.7888   66

 131   rms: 0.4367E+02   max: 0.7128E+03   C at   66  2   RLX: 0.002
       a =  2.500      CL =  0.5187
      Cm = -0.0154     CD =  0.01115   =>   CDf =  0.00698    CDp =  0.00416

 Side 1  free  transition at x/c =  0.3726   49
 Side 2  free  transition at x/c =  0.7475   64

 132   rms: 0.9378E+00   max: -.1620E+02   C at   64  2   RLX: 0.031
       a =  2.500      CL =  0.5185
      Cm = -0.0152     CD =  0.01104   =>   CDf =  0.00714    CDp =  0.00390

 Side 1  free  transition at x/c =  0.3726   49
 Side 2  free  transition at x/c =  0.7728   65

 133   rms: 0.1182E+01   max: -.1936E+02   C at   65  2   RLX: 0.026
       a =  2.500      CL =  0.5189
      Cm = -0.0153     CD =  0.01100   =>   CDf =  0.00707    CDp =  0.00393

 Side 1  free  transition at x/c =  0.3725   49
 Side 2  free  transition at x/c =  0.7933   66

 134   rms: 0.5220E+01   max: 0.8124E+02   C at   66  2   RLX: 0.018
       a =  2.500      CL =  0.5181
      Cm = -0.0151     CD =  0.01115   =>   CDf =  0.00700    CDp =  0.00415

 Side 1  free  transition at x/c =  0.3726   49
 Side 2  free  transition at x/c =  0.7548   64

 135   rms: 0.9325E+00   max: -.1553E+02   C at   64  2   RLX: 0.032
       a =  2.500      CL =  0.5180
      Cm = -0.0148     CD =  0.01104   =>   CDf =  0.00713    CDp =  0.00391

 Side 1  free  transition at x/c =  0.3725   49
 Side 2  free  transition at x/c =  0.7789   65

 136   rms: 0.1254E+01   max: -.1998E+02   C at   65  2   RLX: 0.025
       a =  2.500      CL =  0.5183
      Cm = -0.0149     CD =  0.01100   =>   CDf =  0.00706    CDp =  0.00394

 Side 1  free  transition at x/c =  0.3725   49
 Side 2  free  transition at x/c =  0.7987   66

 137   rms: 0.1805E+01   max: 0.2707E+02   C at   66  2   RLX: 0.055
       a =  2.500      CL =  0.5180
      Cm = -0.0149     CD =  0.01114   =>   CDf =  0.00699    CDp =  0.00415

 Side 1  free  transition at x/c =  0.3725   49
 Side 2  free  transition at x/c =  0.7617   64

 138   rms: 0.1122E+01   max: -.1800E+02   C at   64  2   RLX: 0.028
       a =  2.500      CL =  0.5179
      Cm = -0.0148     CD =  0.01101   =>   CDf =  0.00709    CDp =  0.00392

 Side 1  free  transition at x/c =  0.3725   49
 Side 2  free  transition at x/c =  0.7847   66

 139   rms: 0.2417E+01   max: -.4030E+02   C at   66  2   RLX: 0.012
       a =  2.500      CL =  0.5181
      Cm = -0.0148     CD =  0.01095   =>   CDf =  0.00703    CDp =  0.00392

 Side 1  free  transition at x/c =  0.3725   49
 Side 2  free  transition at x/c =  0.7999   66

 140   rms: 0.1546E+01   max: 0.2307E+02   C at   66  2   RLX: 0.065
       a =  2.500      CL =  0.5183
      Cm = -0.0152     CD =  0.01114   =>   CDf =  0.00698    CDp =  0.00416

 Side 1  free  transition at x/c =  0.3725   49
 Side 2  free  transition at x/c =  0.7623   64

 141   rms: 0.1190E+01   max: -.1906E+02   C at   64  2   RLX: 0.026
       a =  2.500      CL =  0.5183
      Cm = -0.0150     CD =  0.01101   =>   CDf =  0.00708    CDp =  0.00392

 Side 1  free  transition at x/c =  0.3725   49
 Side 2  free  transition at x/c =  0.7857   66

 142   rms: 0.3116E+01   max: -.5176E+02   C at   66  2   RLX: 0.010
       a =  2.500      CL =  0.5183
      Cm = -0.0150     CD =  0.01094   =>   CDf =  0.00702    CDp =  0.00392

 Side 1  free  transition at x/c =  0.3725   49
 Side 2  free  transition at x/c =  0.8010   66

 143   rms: 0.1374E+01   max: 0.2042E+02   C at   66  2   RLX: 0.073
       a =  2.500      CL =  0.5187
      Cm = -0.0154     CD =  0.01114   =>   CDf =  0.00697    CDp =  0.00416

 Side 1  free  transition at x/c =  0.3725   49
 Side 2  free  transition at x/c =  0.7629   64

 144   rms: 0.1273E+01   max: -.2037E+02   C at   64  2   RLX: 0.025
       a =  2.500      CL =  0.5187
      Cm = -0.0153     CD =  0.01100   =>   CDf =  0.00707    CDp =  0.00393

 Side 1  free  transition at x/c =  0.3725   49
 Side 2  free  transition at x/c =  0.7865   66

 145   rms: 0.4240E+01   max: -.7027E+02   C at   66  2   RLX: 0.007
       a =  2.500      CL =  0.5187
      Cm = -0.0152     CD =  0.01094   =>   CDf =  0.00701    CDp =  0.00392

 Side 1  free  transition at x/c =  0.3725   49
 Side 2  free  transition at x/c =  0.8020   66

 146   rms: 0.1245E+01   max: 0.1845E+02   C at   66  2   RLX: 0.081
       a =  2.500      CL =  0.5192
      Cm = -0.0157     CD =  0.01113   =>   CDf =  0.00696    CDp =  0.00417

 Side 1  free  transition at x/c =  0.3725   49
 Side 2  free  transition at x/c =  0.7631   64

 147   rms: 0.1365E+01   max: -.2184E+02   C at   64  2   RLX: 0.023
       a =  2.500      CL =  0.5191
      Cm = -0.0156     CD =  0.01100   =>   CDf =  0.00706    CDp =  0.00394

 Side 1  free  transition at x/c =  0.3725   49
 Side 2  free  transition at x/c =  0.7870   66

 148   rms: 0.6105E+01   max: -.1011E+03   C at   66  2   RLX: 0.005
       a =  2.500      CL =  0.5191
      Cm = -0.0155     CD =  0.01093   =>   CDf =  0.00700    CDp =  0.00393

 Side 1  free  transition at x/c =  0.3725   49
 Side 2  free  transition at x/c =  0.8027   66

 149   rms: 0.1020E+01   max: 0.1509E+02   C at   66  2   RLX: 0.099
       a =  2.500      CL =  0.5198
      Cm = -0.0161     CD =  0.01113   =>   CDf =  0.00696    CDp =  0.00418

 Side 1  free  transition at x/c =  0.3725   49
 Side 2  free  transition at x/c =  0.7631   64

 150   rms: 0.1491E+01   max: -.2388E+02   C at   64  2   RLX: 0.021
       a =  2.500      CL =  0.5197
      Cm = -0.0160     CD =  0.01100   =>   CDf =  0.00705    CDp =  0.00395

 Side 1  free  transition at x/c =  0.3725   49
 Side 2  free  transition at x/c =  0.7871   66

 151   rms: 0.1159E+02   max: -.1921E+03   C at   66  2   RLX: 0.003
       a =  2.500      CL =  0.5197
      Cm = -0.0158     CD =  0.01093   =>   CDf =  0.00699    CDp =  0.00394

 Side 1  free  transition at x/c =  0.3725   49
 Side 2  free  transition at x/c =  0.8033   66

 152   rms: 0.9440E+00   max: 0.1396E+02   C at   66  2   RLX: 0.107
       a =  2.500      CL =  0.5204
      Cm = -0.0165     CD =  0.01114   =>   CDf =  0.00694    CDp =  0.00419

 Side 1  free  transition at x/c =  0.3725   49
 Side 2  free  transition at x/c =  0.7627   64

 153   rms: 0.1618E+01   max: -.2596E+02   C at   64  2   RLX: 0.019
       a =  2.500      CL =  0.5203
      Cm = -0.0163     CD =  0.01100   =>   CDf =  0.00704    CDp =  0.00396

 Side 1  free  transition at x/c =  0.3725   49
 Side 2  free  transition at x/c =  0.7869   66

 154   rms: 0.6435E+01   max: -.1085E+03   C at   66  2   RLX: 0.005
       a =  2.500      CL =  0.5203
      Cm = -0.0162     CD =  0.01093   =>   CDf =  0.00698    CDp =  0.00395

 Side 1  free  transition at x/c =  0.3725   49
 Side 2  free  transition at x/c =  0.8037   66

 155   rms: 0.8838E+00   max: 0.1308E+02   C at   66  2   RLX: 0.115
       a =  2.500      CL =  0.5211
      Cm = -0.0169     CD =  0.01114   =>   CDf =  0.00693    CDp =  0.00421
 VISCAL:  Convergence failed
 Calculating wake trajectory ...
 Calculating source influence matrix ...

 Solving BL system ...

 Side 1  free  transition at x/c =  0.3725   49
 Side 2  free  transition at x/c =  0.7627   64

   1   rms: 0.3725E+01   max: -.5977E+02   C at   64  2   RLX: 0.008
       a =  3.000      CL =  0.5202
      Cm = -0.0164     CD =  0.01100   =>   CDf =  0.00704    CDp =  0.00396

 Side 1  free  transition at x/c =  0.3725   49
 Side 2  free  transition at x/c =  0.7871   66

   2   rms: 0.1839E+02   max: -.3103E+03   C at   66  2   RLX: 0.002
       a =  3.000      CL =  0.5200
      Cm = -0.0163     CD =  0.01093   =>   CDf =  0.00698    CDp =  0.00395

 Side 1  free  transition at x/c =  0.3724   49
 Side 2  free  transition at x/c =  0.8041   67

   3   rms: 0.1430E+01   max: 0.2314E+02   C at   67  2   RLX: 0.065
       a =  3.000      CL =  0.5149
      Cm = -0.0146     CD =  0.01112   =>   CDf =  0.00693    CDp =  0.00419

 Side 1  free  transition at x/c =  0.3722   49
 Side 2  free  transition at x/c =  0.7667   65

   4   rms: 0.2648E+01   max: -.4561E+02   C at   65  2   RLX: 0.011
       a =  3.000      CL =  0.5135
      Cm = -0.0138     CD =  0.01092   =>   CDf =  0.00705    CDp =  0.00388

 Side 1  free  transition at x/c =  0.3722   49
 Side 2  free  transition at x/c =  0.7903   66

   5   rms: 0.5511E+02   max: 0.8996E+03   C at   66  2   RLX: 0.002
       a =  3.000      CL =  0.5124
      Cm = -0.0133     CD =  0.01107   =>   CDf =  0.00699    CDp =  0.00408

 Side 1  free  transition at x/c =  0.3722   49
 Side 2  free  transition at x/c =  0.7445   63

   6   rms: 0.2337E+01   max: -.3733E+02   C at   63  2   RLX: 0.013
       a =  3.000      CL =  0.5110
      Cm = -0.0126     CD =  0.01097   =>   CDf =  0.00714    CDp =  0.00383

 Side 1  free  transition at x/c =  0.3722   49
 Side 2  free  transition at x/c =  0.7688   65

   7   rms: 0.1868E+01   max: -.3167E+02   C at   65  2   RLX: 0.016
       a =  3.000      CL =  0.5102
      Cm = -0.0123     CD =  0.01092   =>   CDf =  0.00709    CDp =  0.00383

 Side 1  free  transition at x/c =  0.3721   49
 Side 2  free  transition at x/c =  0.7907   66

   8   rms: 0.7157E+01   max: -.1156E+03   C at   66  2   RLX: 0.004
       a =  3.000      CL =  0.5099
      Cm = -0.0120     CD =  0.01085   =>   CDf =  0.00703    CDp =  0.00382

 Side 1  free  transition at x/c =  0.3721   49
 Side 2  free  transition at x/c =  0.8060   67

   9   rms: 0.1579E+01   max: 0.2454E+02   C at   67  2   RLX: 0.061
       a =  3.000      CL =  0.5058
      Cm = -0.0108     CD =  0.01105   =>   CDf =  0.00700    CDp =  0.00405

 Side 1  free  transition at x/c =  0.3719   49
 Side 2  free  transition at x/c =  0.7679   65

  10   rms: 0.2119E+01   max: -.3619E+02   C at   65  2   RLX: 0.014
       a =  3.000      CL =  0.5046
[...]

 Side 1  free  transition at x/c =  0.2131   53
 Side 2 forced transition at x/c =  1.0000   64

   3   rms: 0.5293E-03   max: -.2658E-02   D at   93  1
       a = 12.500      CL =  1.5624
      Cm = -0.0197     CD =  0.02503   =>   CDf =  0.00692    CDp =  0.01810

 Side 1  free  transition at x/c =  0.2130   53
 Side 2 forced transition at x/c =  1.0000   64

   4   rms: 0.2680E-05   max: 0.1750E-04   C at   64  2
       a = 12.500      CL =  1.5623
      Cm = -0.0197     CD =  0.02503   =>   CDf =  0.00692    CDp =  0.01811
 plradd ia,ip,cpol           37           0  3.82937789E-02

 Point added to stored polar  1
 Point written to save file  mue139_Re300k.base.pol                          
 Dump file unspecified or not available
 Calculating wake trajectory ...
 Calculating source influence matrix ...

 Solving BL system ...

 Side 1  free  transition at x/c =  0.2130   53
 Side 2 forced transition at x/c =  1.0000   64

   1   rms: 0.3221E-01   max: -.1295E+00   C at   53  1
       a = 12.750      CL =  1.5690
      Cm = -0.0176     CD =  0.02582   =>   CDf =  0.00693    CDp =  0.01889

 Side 1  free  transition at x/c =  0.2085   53
 Side 2 forced transition at x/c =  1.0000   64

   2   rms: 0.1932E-02   max: -.1347E-01   D at   53  1
       a = 12.750      CL =  1.5696
      Cm = -0.0178     CD =  0.02582   =>   CDf =  0.00680    CDp =  0.01902

 Side 1  free  transition at x/c =  0.2086   53
 Side 2 forced transition at x/c =  1.0000   64

   3   rms: 0.1185E-03   max: -.5499E-03   D at   91  1
       a = 12.750      CL =  1.5697
      Cm = -0.0178     CD =  0.02582   =>   CDf =  0.00679    CDp =  0.01903

 Side 1  free  transition at x/c =  0.2086   53
 Side 2 forced transition at x/c =  1.0000   64

   4   rms: 0.1054E-05   max: 0.9871E-05   C at   64  2
       a = 12.750      CL =  1.5697
      Cm = -0.0178     CD =  0.02582   =>   CDf =  0.00679    CDp =  0.01903
 plradd ia,ip,cpol           38           0  3.82937789E-02

 Point added to stored polar  1
 Point written to save file  mue139_Re300k.base.pol                          
 Dump file unspecified or not available
 Calculating wake trajectory ...
 Calculating source influence matrix ...

 Solving BL system ...

 Side 1  free  transition at x/c =  0.2086   53
 Side 2 forced transition at x/c =  1.0000   64

   1   rms: 0.3129E-01   max: 0.1139E+00   T at   53  1
       a = 13.000      CL =  1.5783
      Cm = -0.0161     CD =  0.02669   =>   CDf =  0.00679    CDp =  0.01989

 Side 1  free  transition at x/c =  0.2041   53
 Side 2 forced transition at x/c =  1.0000   64

   2   rms: 0.2715E-02   max: -.3411E-01   D at   53  1
       a = 13.000      CL =  1.5777
      Cm = -0.0161     CD =  0.02669   =>   CDf =  0.00676    CDp =  0.01993

 Side 1  free  transition at x/c =  0.2045   53
 Side 2 forced transition at x/c =  1.0000   64

   3   rms: 0.2965E-03   max: -.1413E-02   D at   90  1
       a = 13.000      CL =  1.5779
      Cm = -0.0162     CD =  0.02668   =>   CDf =  0.00674    CDp =  0.01994

 Side 1  free  transition at x/c =  0.2044   53
 Side 2 forced transition at x/c =  1.0000   64

   4   rms: 0.5939E-05   max: -.4744E-04   D at    4  2
       a = 13.000      CL =  1.5780
      Cm = -0.0162     CD =  0.02669   =>   CDf =  0.00674    CDp =  0.01994
 plradd ia,ip,cpol           39           0  3.82937789E-02

 Point added to stored polar  1
 Point written to save file  mue139_Re300k.base.pol                          
 Dump file unspecified or not available
 Calculating wake trajectory ...
 Calculating source influence matrix ...

 Solving BL system ...

 Side 1  free  transition at x/c =  0.2044   53
 Side 2 forced transition at x/c =  1.0000   64

   1   rms: 0.3221E-01   max: -.1070E+00   D at   54  1
       a = 13.250      CL =  1.5863
      Cm = -0.0147     CD =  0.02769   =>   CDf =  0.00644    CDp =  0.02124

 Side 1  free  transition at x/c =  0.2004   54
 Side 2 forced transition at x/c =  1.0000   63

   2   rms: 0.2306E-02   max: -.2462E-01   D at    3  1
       a = 13.250      CL =  1.5858
      Cm = -0.0147     CD =  0.02773   =>   CDf =  0.00679    CDp =  0.02094

 Side 1  free  transition at x/c =  0.2003   54
 Side 2 forced transition at x/c =  1.0000   63

   3   rms: 0.5861E-03   max: -.6752E-02   D at    4  1
       a = 13.250      CL =  1.5859
      Cm = -0.0147     CD =  0.02773   =>   CDf =  0.00679    CDp =  0.02094

 Side 1  free  transition at x/c =  0.2003   54
 Side 2 forced transition at x/c =  1.0000   63

   4   rms: 0.2442E-05   max: 0.1646E-04   C at   63  2
       a = 13.250      CL =  1.5859
      Cm = -0.0147     CD =  0.02773   =>   CDf =  0.00679    CDp =  0.02094
 plradd ia,ip,cpol           40           0  3.82937789E-02

 Point added to stored polar  1
 Point written to save file  mue139_Re300k.base.pol                          
 Dump file unspecified or not available
 Calculating wake trajectory ...
 Calculating source influence matrix ...

 Solving BL system ...

 Side 1  free  transition at x/c =  0.2003   54
 Side 2 forced transition at x/c =  1.0000   63

   1   rms: 0.3354E-01   max: -.1114E+00   D at   55  1
       a = 13.500      CL =  1.5962
      Cm = -0.0134     CD =  0.02892   =>   CDf =  0.00680    CDp =  0.02212

 Side 1  free  transition at x/c =  0.1962   53
 Side 2 forced transition at x/c =  1.0000   63

   2   rms: 0.1288E-01   max: -.1228E+00   D at   53  1
       a = 13.500      CL =  1.5906
      Cm = -0.0133     CD =  0.02901   =>   CDf =  0.00670    CDp =  0.02231

 Side 1  free  transition at x/c =  0.1963   53
 Side 2 forced transition at x/c =  1.0000   63

   3   rms: 0.1927E-02   max: -.1026E-01   D at   89  1
       a = 13.500      CL =  1.5919
      Cm = -0.0134     CD =  0.02895   =>   CDf =  0.00664    CDp =  0.02231

 Side 1  free  transition at x/c =  0.1961   53
 Side 2 forced transition at x/c =  1.0000   63

   4   rms: 0.2095E-04   max: 0.3205E-03   C at   63  2
       a = 13.500      CL =  1.5919
      Cm = -0.0134     CD =  0.02895   =>   CDf =  0.00664    CDp =  0.02231
 plradd ia,ip,cpol           41           0  3.82937789E-02

 Point added to stored polar  1
 Point written to save file  mue139_Re300k.base.pol                          
 Dump file unspecified or not available
 Calculating wake trajectory ...
 Calculating source influence matrix ...

 Solving BL system ...

 Side 1  free  transition at x/c =  0.1961   53
 Side 2 forced transition at x/c =  1.0000   63

   1   rms: 0.3320E-01   max: 0.1173E+00   T at   53  1   RLX: 0.977
       a = 13.750      CL =  1.5986
      Cm = -0.0124     CD =  0.03027   =>   CDf =  0.00665    CDp =  0.02363

 Side 1  free  transition at x/c =  0.1911   53
 Side 2 forced transition at x/c =  1.0000   63

   2   rms: 0.2939E-02   max: -.3675E-01   D at   53  1
       a = 13.750      CL =  1.5975
      Cm = -0.0123     CD =  0.03030   =>   CDf =  0.00658    CDp =  0.02372

 Side 1  free  transition at x/c =  0.1915   53
 Side 2 forced transition at x/c =  1.0000   63

   3   rms: 0.3015E-03   max: -.1481E-02   D at   87  1
       a = 13.750      CL =  1.5977
      Cm = -0.0123     CD =  0.03028   =>   CDf =  0.00656    CDp =  0.02373

 Side 1  free  transition at x/c =  0.1915   53
 Side 2 forced transition at x/c =  1.0000   63

   4   rms: 0.6748E-05   max: 0.6636E-04   C at   63  2
       a = 13.750      CL =  1.5977
      Cm = -0.0123     CD =  0.03029   =>   CDf =  0.00656    CDp =  0.02373
 plradd ia,ip,cpol           42           0  3.82937789E-02

 Point added to stored polar  1
 Point written to save file  mue139_Re300k.base.pol                          
 Dump file unspecified or not available
 Calculating wake trajectory ...
 Calculating source influence matrix ...

 Solving BL system ...

 Side 1  free  transition at x/c =  0.1915   53
 Side 2 forced transition at x/c =  1.0000   63

   1   rms: 0.3381E-01   max: 0.9970E-01   D at   84  1   RLX: 0.933
       a = 14.000      CL =  1.6037
      Cm = -0.0115     CD =  0.03169   =>   CDf =  0.00656    CDp =  0.02512

 Side 1  free  transition at x/c =  0.1875   53
 Side 2 forced transition at x/c =  1.0000   63

   2   rms: 0.2678E-02   max: -.2378E-01   D at   53  1
       a = 14.000      CL =  1.6025
      Cm = -0.0114     CD =  0.03181   =>   CDf =  0.00659    CDp =  0.02522

 Side 1  free  transition at x/c =  0.1875   53
 Side 2 forced transition at x/c =  1.0000   63

   3   rms: 0.6310E-04   max: -.6687E-03   C at   63  2
       a = 14.000      CL =  1.6025
      Cm = -0.0114     CD =  0.03179   =>   CDf =  0.00658    CDp =  0.02522
 plradd ia,ip,cpol           43           0  3.82937789E-02

 Point added to stored polar  1
 Point written to save file  mue139_Re300k.base.pol                          
 Dump file unspecified or not available
 Calculating wake trajectory ...
 Calculating source influence matrix ...

 Solving BL system ...

 Side 1  free  transition at x/c =  0.1875   53
 Side 2 forced transition at x/c =  1.0000   63

   1   rms: 0.3440E-01   max: -.1211E+00   D at   54  1   RLX: 0.891
       a = 14.250      CL =  1.6072
      Cm = -0.0107     CD =  0.03333   =>   CDf =  0.00658    CDp =  0.02675

 Side 1  free  transition at x/c =  0.1844   52
 Side 2 forced transition at x/c =  1.0000   63

   2   rms: 0.6533E-02   max: -.6487E-01   C at   52  1
       a = 14.250      CL =  1.6063
      Cm = -0.0106     CD =  0.03356   =>   CDf =  0.00656    CDp =  0.02700

 Side 1  free  transition at x/c =  0.1834   52
 Side 2 forced transition at x/c =  1.0000   63

   3   rms: 0.6859E-03   max: -.4173E-02   D at   84  1
       a = 14.250      CL =  1.6066
      Cm = -0.0106     CD =  0.03350   =>   CDf =  0.00651    CDp =  0.02700

 Side 1  free  transition at x/c =  0.1834   52
 Side 2 forced transition at x/c =  1.0000   63

   4   rms: 0.2728E-04   max: 0.2705E-03   C at   63  2
       a = 14.250      CL =  1.6066
      Cm = -0.0106     CD =  0.03351   =>   CDf =  0.00651    CDp =  0.02700
 plradd ia,ip,cpol           44           0  3.35472152E-02

 Point added to stored polar  1
 Point written to save file  mue139_Re300k.base.pol                          
 Dump file unspecified or not available
 Calculating wake trajectory ...
 Calculating source influence matrix ...

 Solving BL system ...

 Side 1  free  transition at x/c =  0.1834   52
 Side 2 forced transition at x/c =  1.0000   63

   1   rms: 0.3383E-01   max: 0.1086E+00   T at   52  1   RLX: 0.853
       a = 14.500      CL =  1.6116
      Cm = -0.0103     CD =  0.03510   =>   CDf =  0.00618    CDp =  0.02892

 Side 1  free  transition at x/c =  0.1796   53
 Side 2 forced transition at x/c =  1.0000   62

   2   rms: 0.5651E-02   max: 0.3424E-01   D at   83  1
       a = 14.500      CL =  1.6107
      Cm = -0.0101     CD =  0.03537   =>   CDf =  0.00641    CDp =  0.02895

 Side 1  free  transition at x/c =  0.1793   53
 Side 2 forced transition at x/c =  1.0000   62

   3   rms: 0.8280E-03   max: -.9928E-02   D at    4  1
       a = 14.500      CL =  1.6105
      Cm = -0.0101     CD =  0.03534   =>   CDf =  0.00639    CDp =  0.02895

 Side 1  free  transition at x/c =  0.1793   53
 Side 2 forced transition at x/c =  1.0000   62

   4   rms: 0.7161E-05   max: 0.3126E-04   D at   82  1
       a = 14.500      CL =  1.6105
      Cm = -0.0101     CD =  0.03534   =>   CDf =  0.00639    CDp =  0.02895
 plradd ia,ip,cpol           45           0  3.35472152E-02

 Point added to stored polar  1
 Point written to save file  mue139_Re300k.base.pol                          
 Dump file unspecified or not available
 Calculating wake trajectory ...
 Calculating source influence matrix ...

 Solving BL system ...

 Side 1  free  transition at x/c =  0.1793   53
 Side 2 forced transition at x/c =  1.0000   62

   1   rms: 0.3384E-01   max: 0.1107E+00   D at   80  1   RLX: 0.817
       a = 14.750      CL =  1.6142
      Cm = -0.0099     CD =  0.03702   =>   CDf =  0.00640    CDp =  0.03063

 Side 1  free  transition at x/c =  0.1760   53
 Side 2 forced transition at x/c =  1.0000   62

   2   rms: 0.6412E-02   max: -.3128E-01   D at   53  1
       a = 14.750      CL =  1.6132
      Cm = -0.0097     CD =  0.03736   =>   CDf =  0.00638    CDp =  0.03099

 Side 1  free  transition at x/c =  0.1756   53
 Side 2 forced transition at x/c =  1.0000   62

   3   rms: 0.4080E-03   max: 0.3258E-02   D at   72  2
       a = 14.750      CL =  1.6128
      Cm = -0.0096     CD =  0.03733   =>   CDf =  0.00637    CDp =  0.03097

 Side 1  free  transition at x/c =  0.1756   53
 Side 2 forced transition at x/c =  1.0000   62

   4   rms: 0.1397E-04   max: 0.8280E-04   D at   72  2
       a = 14.750      CL =  1.6128
      Cm = -0.0096     CD =  0.03733   =>   CDf =  0.00636    CDp =  0.03097
 plradd ia,ip,cpol           46           0  3.35472152E-02

 Point added to stored polar  1
 Point written to save file  mue139_Re300k.base.pol                          
 Dump file unspecified or not available
 Calculating wake trajectory ...
 Calculating source influence matrix ...

 Solving BL system ...

 Side 1  free  transition at x/c =  0.1756   53
 Side 2 forced transition at x/c =  1.0000   62

   1   rms: 0.3411E-01   max: 0.1129E+00   D at   79  1   RLX: 0.781
       a = 15.000      CL =  1.6153
      Cm = -0.0095     CD =  0.03910   =>   CDf =  0.00637    CDp =  0.03273

 Side 1  free  transition at x/c =  0.1729   53
 Side 2 forced transition at x/c =  1.0000   62

   2   rms: 0.6798E-02   max: -.2577E-01   D at   54  1
       a = 15.000      CL =  1.6149
      Cm = -0.0091     CD =  0.03941   =>   CDf =  0.00640    CDp =  0.03301

 Side 1  free  transition at x/c =  0.1720   52
 Side 2 forced transition at x/c =  1.0000   62

   3   rms: 0.2639E-03   max: -.2160E-02   C at   62  2
       a = 15.000      CL =  1.6147
      Cm = -0.0091     CD =  0.03937   =>   CDf =  0.00642    CDp =  0.03294

 Side 1  free  transition at x/c =  0.1719   52
 Side 2 forced transition at x/c =  1.0000   62

   4   rms: 0.4045E-05   max: 0.4556E-04   C at   62  2
       a = 15.000      CL =  1.6147
      Cm = -0.0091     CD =  0.03937   =>   CDf =  0.00642    CDp =  0.03294
 plradd ia,ip,cpol           47           0  3.35472152E-02

 Point added to stored polar  1
 Point written to save file  mue139_Re300k.base.pol                          
 Dump file unspecified or not available
 Calculating wake trajectory ...
 Calculating source influence matrix ...

 Solving BL system ...

 Side 1  free  transition at x/c =  0.1719   52
 Side 2 forced transition at x/c =  1.0000   62

   1   rms: 0.3612E-01   max: -.1306E+00   C at   52  1   RLX: 0.748
       a = 15.250      CL =  1.6162
      Cm = -0.0092     CD =  0.04133   =>   CDf =  0.00643    CDp =  0.03491

 Side 1  free  transition at x/c =  0.1693   52
 Side 2 forced transition at x/c =  1.0000   62

   2   rms: 0.8766E-02   max: 0.4201E-01   D at   79  1
       a = 15.250      CL =  1.6152
      Cm = -0.0090     CD =  0.04185   =>   CDf =  0.00629    CDp =  0.03556

 Side 1  free  transition at x/c =  0.1685   52
 Side 2 forced transition at x/c =  1.0000   62

   3   rms: 0.6843E-03   max: 0.3657E-02   D at   73  2
       a = 15.250      CL =  1.6146
      Cm = -0.0090     CD =  0.04181   =>   CDf =  0.00626    CDp =  0.03555

 Side 1  free  transition at x/c =  0.1686   52
 Side 2 forced transition at x/c =  1.0000   62

   4   rms: 0.1629E-04   max: -.1905E-03   C at   62  2
       a = 15.250      CL =  1.6146
      Cm = -0.0089     CD =  0.04180   =>   CDf =  0.00626    CDp =  0.03555
 plradd ia,ip,cpol           48           0  3.35472152E-02

 Point added to stored polar  1
 Point written to save file  mue139_Re300k.base.pol                          
 Dump file unspecified or not available
 Calculating wake trajectory ...
 Calculating source influence matrix ...

 Solving BL system ...

 Side 1  free  transition at x/c =  0.1686   52
 Side 2 forced transition at x/c =  1.0000   62

   1   rms: 0.3458E-01   max: 0.1214E+00   D at   77  1   RLX: 0.716
       a = 15.500      CL =  1.6161
      Cm = -0.0091     CD =  0.04371   =>   CDf =  0.00626    CDp =  0.03745

 Side 1  free  transition at x/c =  0.1658   52
 Side 2 forced transition at x/c =  1.0000   62

   2   rms: 0.1039E-01   max: 0.4947E-01   D at   78  1
       a = 15.500      CL =  1.6144
      Cm = -0.0090     CD =  0.04442   =>   CDf =  0.00619    CDp =  0.03822

 Side 1  free  transition at x/c =  0.1650   52
 Side 2 forced transition at x/c =  1.0000   62

   3   rms: 0.6448E-03   max: -.4776E-02   C at   62  2
       a = 15.500      CL =  1.6138
      Cm = -0.0089     CD =  0.04433   =>   CDf =  0.00617    CDp =  0.03816

 Side 1  free  transition at x/c =  0.1651   52
 Side 2 forced transition at x/c =  1.0000   62

   4   rms: 0.1210E-04   max: -.8835E-04   C at   62  2
       a = 15.500      CL =  1.6138
      Cm = -0.0089     CD =  0.04432   =>   CDf =  0.00617    CDp =  0.03816
 plradd ia,ip,cpol           49           0  2.92925239E-02

 Point added to stored polar  1
 Point written to save file  mue139_Re300k.base.pol                          
 Dump file unspecified or not available
 Calculating wake trajectory ...
 Calculating source influence matrix ...

 Solving BL system ...

 Side 1  free  transition at x/c =  0.1651   52
 Side 2 forced transition at x/c =  1.0000   62

   1   rms: 0.3298E-01   max: 0.1195E+00   D at   76  1   RLX: 0.687
       a = 15.750      CL =  1.6148
      Cm = -0.0090     CD =  0.04621   =>   CDf =  0.00617    CDp =  0.04004

 Side 1  free  transition at x/c =  0.1627   52
 Side 2 forced transition at x/c =  1.0000   62

   2   rms: 0.1070E-01   max: 0.4977E-01   D at   77  1
       a = 15.750      CL =  1.6131
      Cm = -0.0089     CD =  0.04700   =>   CDf =  0.00616    CDp =  0.04085

 Side 1  free  transition at x/c =  0.1619   52
 Side 2 forced transition at x/c =  1.0000   62

   3   rms: 0.6992E-03   max: -.5199E-02   C at   62  2
       a = 15.750      CL =  1.6125
      Cm = -0.0088     CD =  0.04690   =>   CDf =  0.00615    CDp =  0.04075

 Side 1  free  transition at x/c =  0.1619   52
 Side 2 forced transition at x/c =  1.0000   62

   4   rms: 0.6592E-05   max: -.8388E-04   C at   62  2
       a = 15.750      CL =  1.6125
      Cm = -0.0088     CD =  0.04690   =>   CDf =  0.00615    CDp =  0.04075
 plradd ia,ip,cpol           50           0  3.35472152E-02

 Point added to stored polar  1
 Point written to save file  mue139_Re300k.base.pol                          
 Dump file unspecified or not available
 Calculating wake trajectory ...
 Calculating source influence matrix ...

 Solving BL system ...

 Side 1  free  transition at x/c =  0.1619   52
 Side 2 forced transition at x/c =  1.0000   62

   1   rms: 0.3224E-01   max: 0.1143E+00   D at   75  1   RLX: 0.659
       a = 16.000      CL =  1.6130
      Cm = -0.0089     CD =  0.04875   =>   CDf =  0.00580    CDp =  0.04294

 Side 1  free  transition at x/c =  0.1598   53
 Side 2 forced transition at x/c =  1.0000   61

   2   rms: 0.1046E-01   max: 0.4857E-01   T at    2  1
       a = 16.000      CL =  1.6132
      Cm = -0.0086     CD =  0.04930   =>   CDf =  0.00617    CDp =  0.04313

 Side 1  free  transition at x/c =  0.1586   52
 Side 2 forced transition at x/c =  1.0000   61

   3   rms: 0.8615E-03   max: -.5652E-02   D at    4  1
       a = 16.000      CL =  1.6127
      Cm = -0.0085     CD =  0.04923   =>   CDf =  0.00620    CDp =  0.04302

 Side 1  free  transition at x/c =  0.1585   52
 Side 2 forced transition at x/c =  1.0000   61

   4   rms: 0.5081E-04   max: -.2578E-03   D at   77  1
       a = 16.000      CL =  1.6128
      Cm = -0.0085     CD =  0.04922   =>   CDf =  0.00620    CDp =  0.04302
 plradd ia,ip,cpol           51           0  3.35472152E-02

 Point added to stored polar  1
 Point written to save file  mue139_Re300k.base.pol                          
 Dump file unspecified or not available

.OPERva   c>  
 Polar accumulation disabled

.OPERv   c>  
 XFOIL   c>  
 XFOIL   c>  