
 ===================================================
  XFOIL Version 6.99
  Copyright (C) 2000   Mark Drela, Harold Youngren

  This software comes with ABSOLUTELY NO WARRANTY,
    subject to the GNU General Public License.

  Caveat computor
 ===================================================

 File  xfoil.def  not found

   QUIT    Exit program

  .OPER    Direct operating point(s)
  .MDES    Complex mapping design routine
  .QDES    Surface speed design routine
  .GDES    Geometry design routine

   SAVE f  Write airfoil to labeled coordinate file
   PSAV f  Write airfoil to plain coordinate file
   ISAV f  Write airfoil to ISES coordinate file
   MSAV f  Write airfoil to MSES coordinate file
   REVE    Reverse written-airfoil node ordering

   LOAD f  Read buffer airfoil from coordinate file
   NACA i  Set NACA 4,5-digit airfoil and buffer airfoil
   INTE    Set buffer airfoil by interpolating two airfoils
   NORM    Buffer airfoil normalization toggle
   XYCM rr Change CM reference location, currently  0.25000 0.00000

   BEND    Display structural properties of current airfoil

   PCOP    Set current-airfoil panel nodes directly from buffer airfoil points
   PANE    Set current-airfoil panel nodes ( 160 ) based on curvature
  .PPAR    Show/change paneling

  .PLOP    Plotting options

   WDEF f  Write  current-settings file
   RDEF f  Reread current-settings file
   NAME s  Specify new airfoil name
   NINC    Increment name version number

   Z       Zoom    | (available in all menus)
   U       Unzoom  | 

 XFOIL   c>  
 Labeled airfoil file.  Name:  N-10                                            

 Number of input coordinate points:  33
 Counterclockwise ordering
 Max thickness =     0.112250  at x =   0.297
 Max camber    =     0.035201  at x =   0.403

  LE  x,y  =  -0.00005   0.03128  |   Chord =   1.00049
  TE  x,y  =   1.00000   0.00170  |

 Current airfoil nodes set from buffer airfoil nodes (  33 )

 WARNING: Poor input coordinate distribution
          Excessive panel angle   74.4  at i =  17
          Repaneling with PANE and/or PPAR suggested
           (doing GDES,CADD before repaneling _may_
            improve excessively coarse LE spacing

 XFOIL   c>  
 XFOIL   c>  
 Blunt trailing edge.  Gap =  0.00340

 Paneling parameters used...
   Number of panel nodes       160
   Panel bunching parameter    1.000
   TE/LE panel density ratio   0.150
   Refined-area/LE panel density ratio    0.200
   Top    side refined area x/c limits  1.000 1.000
   Bottom side refined area x/c limits  1.000 1.000

 XFOIL   c>  
.OPERi   c>  
 Xtr/c     =  1.0000    top    side
 Xtr/c     =  1.0000    bottom side
 Ncrit     =    9.00   ( 0.070 % turb. level )
 Vacc      =  0.0100

 Klag  =  5.6000     Uxwt  =    1.00
 A     =  6.7000     B     =  0.7500       KCt = 0.01485
 CtiniK=  1.8000     CtiniX=  3.3000

..VPAR   c>  
..VPAR   c>  
.OPERi   c>  
 M  =    0.0000
 Re =    500000

.OPERv   c>  
.OPERv   c>  
.OPERv   c>  
 Polar  1 newly created for accumulation
 Airfoil archived with polar: N-10                                            

Enter  polar save filename  OR  <return> for no file   s>  
 New polar save file available

Enter  polar dump filename  OR  <return> for no file   s>  
 Polar dump file will NOT be written

 Polar accumulation enabled

.OPERva   c>   Calculating unit vorticity distributions ...
 Calculating wake trajectory ...
 Calculating source influence matrix ...

 Solving BL system ...

 Initializing BL ...
    side            1  ...
 MRCHUE: Inverse mode at  48     Hk =   4.029
 MRCHUE: Inverse mode at  49     Hk =   4.711
 MRCHUE: Inverse mode at  50     Hk =   5.382
 MRCHUE: Inverse mode at  51     Hk =   6.043
 MRCHUE: Inverse mode at  52     Hk =   6.691
 MRCHUE: Inverse mode at  53     Hk =   7.328
 MRCHUE: Inverse mode at  54     Hk =   7.952
 MRCHUE: Inverse mode at  55     Hk =   7.140
 MRCHUE: Inverse mode at  56     Hk =   4.648
 MRCHUE: Inverse mode at  57     Hk =   3.082
    side            2  ...
 MRCHUE: Inverse mode at  18     Hk =   4.142
 MRCHUE: Inverse mode at  19     Hk =   5.525
 MRCHUE: Inverse mode at  20     Hk =   6.986
 MRCHUE: Inverse mode at  21     Hk =   8.562
 MRCHUE: Inverse mode at  22     Hk =  10.227
 MRCHUE: Inverse mode at  23     Hk =   2.500
 MRCHUE: Inverse mode at  84     Hk =   2.500

 Side 1  free  transition at x/c =  0.6686   55
 Side 2  free  transition at x/c =  0.0568   23

   1   rms: 0.1436E+00   max: -.1252E+01   T at   55  1   RLX: 0.399
       a = -4.000      CL =  0.1372
      Cm = -0.0827     CD =  0.01061   =>   CDf =  0.00765    CDp =  0.00295

 MRCHDU: Convergence failed at  57  side 1    Res =  0.2313E+01
 Side 1  free  transition at x/c =  0.6904   57
 Side 2  free  transition at x/c =  0.0596   23

   2   rms: 0.1867E+00   max: -.8951E+00   D at   78  1   RLX: 0.559
       a = -4.000      CL =  0.2139
      Cm = -0.0995     CD =  0.00863   =>   CDf =  0.00723    CDp =  0.00140

 MRCHDU: Convergence failed at  79  side 1    Res =  0.2291E+00
 Side 1  free  transition at x/c =  0.7421   61
 Side 2  free  transition at x/c =  0.0779   23
 idif Ue xi dudx           1  0.15940917      2.09939480E-03   75.931007    
 Uenew xinew           2  1.71800908E-02  2.26259232E-04

   3   rms: 0.2972E+00   max: 0.4521E+01   T at    2  1   RLX: 0.237
       a = -4.000      CL =  0.1957
      Cm = -0.0955     CD =  0.00773   =>   CDf =  0.00689    CDp =  0.00084

 Side 1  free  transition at x/c =  0.7484   60
 Side 2  free  transition at x/c =  0.0758   24

   4   rms: 0.8691E-01   max: -.5026E+00   D at   84  2   RLX: 0.995
       a = -4.000      CL =  0.1433
      Cm = -0.0818     CD =  0.00918   =>   CDf =  0.00699    CDp =  0.00219

 MRCHDU: Convergence failed at  62  side 1    Res =  0.4714E+01
 MRCHDU: Convergence failed at  63  side 1    Res =  0.1100E+01
 MRCHDU: Convergence failed at  64  side 1    Res =  0.1556E+01
 MRCHDU: Convergence failed at  65  side 1    Res =  0.1989E+01
 MRCHDU: Convergence failed at  66  side 1    Res =  0.2316E+01
 MRCHDU: Convergence failed at  67  side 1    Res =  0.2448E+01
 MRCHDU: Convergence failed at  68  side 1    Res =  0.2453E+01
 MRCHDU: Convergence failed at  69  side 1    Res =  0.2412E+01
 MRCHDU: Convergence failed at  70  side 1    Res =  0.2364E+01
 MRCHDU: Convergence failed at  71  side 1    Res =  0.2348E+01
 MRCHDU: Convergence failed at  72  side 1    Res =  0.2340E+01
 MRCHDU: Convergence failed at  73  side 1    Res =  0.2365E+01
 MRCHDU: Convergence failed at  74  side 1    Res =  0.2396E+01
 MRCHDU: Convergence failed at  75  side 1    Res =  0.2284E+01
 MRCHDU: Convergence failed at  76  side 1    Res =  0.2977E+01
 MRCHDU: Convergence failed at  77  side 1    Res =  0.4207E+01
 MRCHDU: Convergence failed at  78  side 1    Res =  0.4499E+01
 Side 1 forced transition at x/c =  0.9999   78
 Side 2  free  transition at x/c =  0.0681   24

   5   rms: 0.2194E+00   max: 0.2103E+01   C at   78  1   RLX: 0.713
       a = -4.000      CL =  0.1530
      Cm = -0.0918     CD =  0.00779   =>   CDf =  0.00646    CDp =  0.00134

 Side 1  free  transition at x/c =  0.8297   66
 Side 2  free  transition at x/c =  0.0643   23

   6   rms: 0.7648E-01   max: -.7046E+00   D at   67  1   RLX: 0.710
       a = -4.000      CL =  0.1650
      Cm = -0.0890     CD =  0.00900   =>   CDf =  0.00666    CDp =  0.00233

 Side 1  free  transition at x/c =  0.8013   64
 Side 2  free  transition at x/c =  0.0677   24

   7   rms: 0.4099E-01   max: -.3953E+00   D at   67  1
       a = -4.000      CL =  0.1654
      Cm = -0.0871     CD =  0.00921   =>   CDf =  0.00675    CDp =  0.00246

 Side 1  free  transition at x/c =  0.7904   63
 Side 2  free  transition at x/c =  0.0782   24

   8   rms: 0.2739E-01   max: 0.5769E+00   C at   24  2
       a = -4.000      CL =  0.1656
      Cm = -0.0871     CD =  0.00930   =>   CDf =  0.00671    CDp =  0.00258

 Side 1  free  transition at x/c =  0.7905   63
 Side 2  free  transition at x/c =  0.0718   24

   9   rms: 0.2045E-02   max: -.3316E-01   D at   25  2
       a = -4.000      CL =  0.1656
      Cm = -0.0871     CD =  0.00930   =>   CDf =  0.00673    CDp =  0.00257

 Side 1  free  transition at x/c =  0.7904   63
 Side 2  free  transition at x/c =  0.0718   24

  10   rms: 0.1631E-04   max: -.2612E-03   D at   25  2
       a = -4.000      CL =  0.1656
      Cm = -0.0871     CD =  0.00930   =>   CDf =  0.00674    CDp =  0.00257
 plradd ia,ip,cpol            1           0  1.38135990E-02

 Point added to stored polar  1
 Point written to save file  n10_Re500k.base.pol                             
 Dump file unspecified or not available
 Calculating wake trajectory ...
 Calculating source influence matrix ...

 Solving BL system ...

 Side 1  free  transition at x/c =  0.7904   63
 Side 2  free  transition at x/c =  0.0718   24

   1   rms: 0.1513E+00   max: 0.1385E+01   D at   24  2   RLX: 0.525
       a = -3.500      CL =  0.1937
      Cm = -0.0869     CD =  0.00895   =>   CDf =  0.00676    CDp =  0.00218

 MRCHDU: Convergence failed at  24  side 2    Res =  0.1111E+01
 MRCHDU: Convergence failed at  25  side 2    Res =  0.1395E+01
 MRCHDU: Convergence failed at  26  side 2    Res =  0.1464E+01
 MRCHDU: Convergence failed at  27  side 2    Res =  0.1647E+01
 MRCHDU: Convergence failed at  28  side 2    Res =  0.1671E+01
 MRCHDU: Convergence failed at  29  side 2    Res =  0.1686E+01
 MRCHDU: Convergence failed at  30  side 2    Res =  0.1637E+01
 MRCHDU: Convergence failed at  31  side 2    Res =  0.1524E+01
 MRCHDU: Convergence failed at  32  side 2    Res =  0.1726E+01
 MRCHDU: Convergence failed at  33  side 2    Res =  0.1852E+01
 MRCHDU: Convergence failed at  34  side 2    Res =  0.1946E+01
 MRCHDU: Convergence failed at  35  side 2    Res =  0.2021E+01
 MRCHDU: Convergence failed at  36  side 2    Res =  0.2093E+01
 MRCHDU: Convergence failed at  37  side 2    Res =  0.2169E+01
 MRCHDU: Convergence failed at  38  side 2    Res =  0.2264E+01
 MRCHDU: Convergence failed at  39  side 2    Res =  0.2376E+01
 MRCHDU: Convergence failed at  40  side 2    Res =  0.2524E+01
 MRCHDU: Convergence failed at  41  side 2    Res =  0.2658E+01
 MRCHDU: Convergence failed at  42  side 2    Res =  0.2800E+01
 MRCHDU: Convergence failed at  43  side 2    Res =  0.2943E+01
 MRCHDU: Convergence failed at  44  side 2    Res =  0.3091E+01
 MRCHDU: Convergence failed at  45  side 2    Res =  0.3239E+01
 MRCHDU: Convergence failed at  46  side 2    Res =  0.3388E+01
 MRCHDU: Convergence failed at  47  side 2    Res =  0.3539E+01
 MRCHDU: Convergence failed at  48  side 2    Res =  0.3688E+01
 MRCHDU: Convergence failed at  49  side 2    Res =  0.3837E+01
 MRCHDU: Convergence failed at  50  side 2    Res =  0.3981E+01
 MRCHDU: Convergence failed at  51  side 2    Res =  0.4127E+01
 MRCHDU: Convergence failed at  52  side 2    Res =  0.4268E+01
 MRCHDU: Convergence failed at  53  side 2    Res =  0.4397E+01
 MRCHDU: Convergence failed at  54  side 2    Res =  0.4527E+01
 MRCHDU: Convergence failed at  55  side 2    Res =  0.4640E+01
 MRCHDU: Convergence failed at  56  side 2    Res =  0.4780E+01
 MRCHDU: Convergence failed at  57  side 2    Res =  0.4900E+01
 MRCHDU: Convergence failed at  58  side 2    Res =  0.4959E+01
 MRCHDU: Convergence failed at  59  side 2    Res =  0.5010E+01
 MRCHDU: Convergence failed at  60  side 2    Res =  0.5096E+01
 MRCHDU: Convergence failed at  61  side 2    Res =  0.5163E+01
 MRCHDU: Convergence failed at  62  side 2    Res =  0.5252E+01
 MRCHDU: Convergence failed at  63  side 2    Res =  0.5386E+01
 MRCHDU: Convergence failed at  64  side 2    Res =  0.5566E+01
 MRCHDU: Convergence failed at  65  side 2    Res =  0.5779E+01
 MRCHDU: Convergence failed at  66  side 2    Res =  0.6021E+01
 MRCHDU: Convergence failed at  67  side 2    Res =  0.6285E+01
 MRCHDU: Convergence failed at  68  side 2    Res =  0.6560E+01
 MRCHDU: Convergence failed at  69  side 2    Res =  0.6842E+01
 MRCHDU: Convergence failed at  70  side 2    Res =  0.7110E+01
 MRCHDU: Convergence failed at  71  side 2    Res =  0.7396E+01
 MRCHDU: Convergence failed at  72  side 2    Res =  0.7700E+01
 MRCHDU: Convergence failed at  73  side 2    Res =  0.8075E+01
 MRCHDU: Convergence failed at  74  side 2    Res =  0.8510E+01
 MRCHDU: Convergence failed at  75  side 2    Res =  0.9098E+01
 MRCHDU: Convergence failed at  76  side 2    Res =  0.9864E+01
 MRCHDU: Convergence failed at  77  side 2    Res =  0.1140E+02
 MRCHDU: Convergence failed at  78  side 2    Res =  0.1382E+02
 MRCHDU: Convergence failed at  79  side 2    Res =  0.1684E+02
 MRCHDU: Convergence failed at  80  side 2    Res =  0.2176E+02
 MRCHDU: Convergence failed at  81  side 2    Res =  0.3115E+02
 MRCHDU: Convergence failed at  82  side 2    Res =  0.7040E+02
 MRCHDU: Convergence failed at  83  side 2    Res =  0.5302E+01
 Side 1  free  transition at x/c =  0.7776   63
 Side 2 forced transition at x/c =  1.0001   83

   2   rms: 0.3557E+00   max: -.3715E+00   U at   83  2   RLX: 0.601
       a = -3.500      CL =  0.0059
      Cm = -0.0176     CD =  0.00530   =>   CDf =  0.00585    CDp = -0.00055

 Side 1  free  transition at x/c =  0.7712   63
 Side 2  free  transition at x/c =  0.4112   45

   3   rms: 0.4249E+00   max: 0.8149E+01   C at   45  2   RLX: 0.184
       a = -3.500      CL =  0.0406
      Cm = -0.0319     CD =  0.00729   =>   CDf =  0.00642    CDp =  0.00087

 Side 1  free  transition at x/c =  0.7705   63
 Side 2  free  transition at x/c =  0.3318   40

   4   rms: 0.4135E+00   max: 0.8230E+01   C at   40  2   RLX: 0.182
       a = -3.500      CL =  0.0748
      Cm = -0.0423     CD =  0.00762   =>   CDf =  0.00656    CDp =  0.00106

 Side 1  free  transition at x/c =  0.7700   63
 Side 2  free  transition at x/c =  0.2804   37

   5   rms: 0.2803E+00   max: 0.5254E+01   C at   37  2   RLX: 0.285
       a = -3.500      CL =  0.1175
      Cm = -0.0553     CD =  0.00797   =>   CDf =  0.00663    CDp =  0.00133

 Side 1  free  transition at x/c =  0.7693   63
 Side 2  free  transition at x/c =  0.2418   34

   6   rms: 0.1128E+00   max: 0.1717E+01   C at   34  2   RLX: 0.874
       a = -3.500      CL =  0.2063
      Cm = -0.0828     CD =  0.00846   =>   CDf =  0.00662    CDp =  0.00184

 Side 1  free  transition at x/c =  0.7678   63
 Side 2  free  transition at x/c =  0.1931   31

   7   rms: 0.1770E-01   max: -.1785E+00   D at   31  2
       a = -3.500      CL =  0.2193
      Cm = -0.0867     CD =  0.00863   =>   CDf =  0.00643    CDp =  0.00220

 Side 1  free  transition at x/c =  0.7677   63
 Side 2  free  transition at x/c =  0.1782   30

   8   rms: 0.2237E-02   max: -.2760E-01   D at   30  2
       a = -3.500      CL =  0.2194
      Cm = -0.0867     CD =  0.00866   =>   CDf =  0.00641    CDp =  0.00226

 Side 1  free  transition at x/c =  0.7677   63
 Side 2  free  transition at x/c =  0.1757   30

   9   rms: 0.8617E-04   max: -.1546E-02   C at   30  2
       a = -3.500      CL =  0.2194
      Cm = -0.0867     CD =  0.00866   =>   CDf =  0.00641    CDp =  0.00225
 plradd ia,ip,cpol            2           0  1.38135990E-02

 Point added to stored polar  1
 Point written to save file  n10_Re500k.base.pol                             
 Dump file unspecified or not available
 Calculating wake trajectory ...
 Calculating source influence matrix ...

 Solving BL system ...

 Side 1  free  transition at x/c =  0.7677   63
 Side 2  free  transition at x/c =  0.1757   30

   1   rms: 0.2277E+00   max: -.4452E+01   C at   30  2   RLX: 0.112
       a = -3.000      CL =  0.2255
      Cm = -0.0867     CD =  0.00862   =>   CDf =  0.00641    CDp =  0.00221

 Side 1  free  transition at x/c =  0.7654   63
 Side 2  free  transition at x/c =  0.1947   31

   2   rms: 0.9243E-01   max: 0.5611E+00   D at   31  2
       a = -3.000      CL =  0.2750
      Cm = -0.0864     CD =  0.00871   =>   CDf =  0.00640    CDp =  0.00231

 MRCHDU: Convergence failed at  32  side 2    Res =  0.3406E+01
 MRCHDU: Convergence failed at  33  side 2    Res =  0.1375E+01
 MRCHDU: Convergence failed at  34  side 2    Res =  0.2114E+01
 MRCHDU: Convergence failed at  35  side 2    Res =  0.2270E+01
 MRCHDU: Convergence failed at  36  side 2    Res =  0.2095E+01
 MRCHDU: Convergence failed at  37  side 2    Res =  0.1868E+01
 MRCHDU: Convergence failed at  38  side 2    Res =  0.1732E+01
 MRCHDU: Convergence failed at  39  side 2    Res =  0.1617E+01
 MRCHDU: Convergence failed at  40  side 2    Res =  0.1542E+01
 MRCHDU: Convergence failed at  41  side 2    Res =  0.1487E+01
 MRCHDU: Convergence failed at  42  side 2    Res =  0.1162E+01
 MRCHDU: Convergence failed at  43  side 2    Res =  0.1351E+01
 MRCHDU: Convergence failed at  44  side 2    Res =  0.1436E+01
 MRCHDU: Convergence failed at  45  side 2    Res =  0.1528E+01
 MRCHDU: Convergence failed at  46  side 2    Res =  0.1619E+01
 MRCHDU: Convergence failed at  47  side 2    Res =  0.1712E+01
 MRCHDU: Convergence failed at  48  side 2    Res =  0.1806E+01
 MRCHDU: Convergence failed at  49  side 2    Res =  0.1923E+01
 MRCHDU: Convergence failed at  50  side 2    Res =  0.2019E+01
 MRCHDU: Convergence failed at  51  side 2    Res =  0.2117E+01
 MRCHDU: Convergence failed at  52  side 2    Res =  0.2297E+01
 MRCHDU: Convergence failed at  53  side 2    Res =  0.2411E+01
 MRCHDU: Convergence failed at  54  side 2    Res =  0.2506E+01
 MRCHDU: Convergence failed at  55  side 2    Res =  0.2593E+01
 MRCHDU: Convergence failed at  56  side 2    Res =  0.2668E+01
 MRCHDU: Convergence failed at  57  side 2    Res =  0.2737E+01
 MRCHDU: Convergence failed at  58  side 2    Res =  0.2804E+01
 MRCHDU: Convergence failed at  59  side 2    Res =  0.2867E+01
 MRCHDU: Convergence failed at  60  side 2    Res =  0.2940E+01
 MRCHDU: Convergence failed at  61  side 2    Res =  0.3025E+01
 MRCHDU: Convergence failed at  62  side 2    Res =  0.3135E+01
 MRCHDU: Convergence failed at  63  side 2    Res =  0.3302E+01
 MRCHDU: Convergence failed at  64  side 2    Res =  0.3455E+01
 MRCHDU: Convergence failed at  65  side 2    Res =  0.3745E+01
 MRCHDU: Convergence failed at  66  side 2    Res =  0.3938E+01
 MRCHDU: Convergence failed at  67  side 2    Res =  0.4138E+01
 MRCHDU: Convergence failed at  68  side 2    Res =  0.4345E+01
 MRCHDU: Convergence failed at  69  side 2    Res =  0.4545E+01
 MRCHDU: Convergence failed at  70  side 2    Res =  0.4754E+01
 MRCHDU: Convergence failed at  71  side 2    Res =  0.5078E+01
 MRCHDU: Convergence failed at  72  side 2    Res =  0.5356E+01
 MRCHDU: Convergence failed at  73  side 2    Res =  0.5673E+01
 MRCHDU: Convergence failed at  74  side 2    Res =  0.6088E+01
 MRCHDU: Convergence failed at  75  side 2    Res =  0.6615E+01
 MRCHDU: Convergence failed at  76  side 2    Res =  0.7373E+01
 MRCHDU: Convergence failed at  77  side 2    Res =  0.9180E+01
 MRCHDU: Convergence failed at  78  side 2    Res =  0.1229E+02
 MRCHDU: Convergence failed at  79  side 2    Res =  0.1579E+02
 MRCHDU: Convergence failed at  80  side 2    Res =  0.2733E+02
 MRCHDU: Convergence failed at  81  side 2    Res =  0.5469E+02
 MRCHDU: Convergence failed at  82  side 2    Res =  0.5195E+02
 Side 1  free  transition at x/c =  0.7455   62
 Side 2  free  transition at x/c =  0.3856   42

   3   rms: 0.5014E+01   max: 0.3139E+02   C at   82  2   RLX: 0.048
       a = -3.000      CL =  0.0704
      Cm = -0.0034     CD =  0.00552   =>   CDf =  0.00417    CDp =  0.00135

 Side 1  free  transition at x/c =  0.7455   62
 Side 2  free  transition at x/c =  0.8798   73

   4   rms: 0.4340E+00   max: 0.7807E+01   C at   73  2   RLX: 0.192
       a = -3.000      CL =  0.1157
      Cm = -0.0220     CD =  0.00588   =>   CDf =  0.00479    CDp =  0.00109

 Side 1  free  transition at x/c =  0.7453   62
 Side 2  free  transition at x/c =  0.6902   61

   5   rms: 0.8845E+00   max: 0.1634E+02   C at   61  2   RLX: 0.092
       a = -3.000      CL =  0.1322
      Cm = -0.0290     CD =  0.00638   =>   CDf =  0.00540    CDp =  0.00098

 Side 1  free  transition at x/c =  0.7452   62
 Side 2  free  transition at x/c =  0.6052   56

   6   rms: 0.9542E+00   max: 0.1832E+02   C at   56  2   RLX: 0.082
       a = -3.000      CL =  0.1451
      Cm = -0.0342     CD =  0.00665   =>   CDf =  0.00567    CDp =  0.00098

 Side 1  free  transition at x/c =  0.7451   62
 Side 2  free  transition at x/c =  0.5535   53

   7   rms: 0.6405E+00   max: 0.1244E+02   C at   53  2   RLX: 0.121
       a = -3.000      CL =  0.1615
      Cm = -0.0408     CD =  0.00684   =>   CDf =  0.00581    CDp =  0.00103

 Side 1  free  transition at x/c =  0.7450   62
 Side 2  free  transition at x/c =  0.4944   49

   8   rms: 0.5503E+00   max: 0.1069E+02   C at   49  2   RLX: 0.140
       a = -3.000      CL =  0.1780
      Cm = -0.0475     CD =  0.00706   =>   CDf =  0.00596    CDp =  0.00110

 Side 1  free  transition at x/c =  0.7449   62
 Side 2  free  transition at x/c =  0.4325   45

   9   rms: 0.4724E+00   max: 0.9229E+01   C at   45  2   RLX: 0.163
       a = -3.000      CL =  0.1943
      Cm = -0.0541     CD =  0.00730   =>   CDf =  0.00609    CDp =  0.00120

 Side 1  free  transition at x/c =  0.7447   62
 Side 2  free  transition at x/c =  0.3727   42

  10   rms: 0.3179E+00   max: 0.6200E+01   C at   42  2   RLX: 0.242
       a = -3.000      CL =  0.2144
      Cm = -0.0621     CD =  0.00763   =>   CDf =  0.00623    CDp =  0.00140

 Side 1  free  transition at x/c =  0.7445   62
 Side 2  free  transition at x/c =  0.3235   38

  11   rms: 0.1806E+00   max: 0.3499E+01   C at   38  2   RLX: 0.429
       a = -3.000      CL =  0.2402
      Cm = -0.0726     CD =  0.00791   =>   CDf =  0.00631    CDp =  0.00161

 Side 1  free  transition at x/c =  0.7443   62
 Side 2  free  transition at x/c =  0.2778   36

  12   rms: 0.7222E-01   max: 0.1095E+01   C at   36  2
       a = -3.000      CL =  0.2743
      Cm = -0.0864     CD =  0.00843   =>   CDf =  0.00635    CDp =  0.00209

 Side 1  free  transition at x/c =  0.7440   62
 Side 2  free  transition at x/c =  0.2500   34

  13   rms: 0.1039E-01   max: -.1494E+00   D at   36  2
       a = -3.000      CL =  0.2744
      Cm = -0.0865     CD =  0.00841   =>   CDf =  0.00629    CDp =  0.00212

 Side 1  free  transition at x/c =  0.7440   62
 Side 2  free  transition at x/c =  0.2483   34

  14   rms: 0.6840E-03   max: 0.1018E-01   C at   34  2
       a = -3.000      CL =  0.2744
      Cm = -0.0865     CD =  0.00841   =>   CDf =  0.00629    CDp =  0.00211

 Side 1  free  transition at x/c =  0.7440   62
 Side 2  free  transition at x/c =  0.2480   34

  15   rms: 0.3632E-05   max: -.5044E-04   D at   36  2
       a = -3.000      CL =  0.2744
      Cm = -0.0865     CD =  0.00841   =>   CDf =  0.00630    CDp =  0.00211
 plradd ia,ip,cpol            3           0  1.76640470E-02

 Point added to stored polar  1
 Point written to save file  n10_Re500k.base.pol                             
 Dump file unspecified or not available
 Calculating wake trajectory ...
 Calculating source influence matrix ...

 Solving BL system ...

 Side 1  free  transition at x/c =  0.7440   62
 Side 2  free  transition at x/c =  0.2480   34

   1   rms: 0.1316E+00   max: -.1653E+01   C at   34  2   RLX: 0.302
       a = -2.500      CL =  0.2909
      Cm = -0.0864     CD =  0.00830   =>   CDf =  0.00630    CDp =  0.00200

 Side 1  free  transition at x/c =  0.7352   62
 Side 2  free  transition at x/c =  0.2601   34

   2   rms: 0.6479E-01   max: -.2737E+00   T at   34  2
       a = -2.500      CL =  0.3295
      Cm = -0.0861     CD =  0.00841   =>   CDf =  0.00634    CDp =  0.00207

 Side 1  free  transition at x/c =  0.7181   60
 Side 2  free  transition at x/c =  0.3370   39

   3   rms: 0.9347E-01   max: -.1902E+01   C at   39  2   RLX: 0.263
       a = -2.500      CL =  0.3270
      Cm = -0.0858     CD =  0.00807   =>   CDf =  0.00611    CDp =  0.00196

 Side 1  free  transition at x/c =  0.7181   60
 Side 2  free  transition at x/c =  0.3402   39

   4   rms: 0.4151E-01   max: -.8495E+00   C at   39  2   RLX: 0.589
       a = -2.500      CL =  0.3281
      Cm = -0.0860     CD =  0.00806   =>   CDf =  0.00612    CDp =  0.00194

 Side 1  free  transition at x/c =  0.7181   60
 Side 2  free  transition at x/c =  0.3553   40

   5   rms: 0.9466E-02   max: -.1609E+00   C at   40  2
       a = -2.500      CL =  0.3283
      Cm = -0.0862     CD =  0.00800   =>   CDf =  0.00603    CDp =  0.00197

 Side 1  free  transition at x/c =  0.7180   60
 Side 2  free  transition at x/c =  0.3569   41

   6   rms: 0.2257E-02   max: -.4146E-01   C at   41  2
       a = -2.500      CL =  0.3284
      Cm = -0.0862     CD =  0.00802   =>   CDf =  0.00603    CDp =  0.00199

 Side 1  free  transition at x/c =  0.7180   60
 Side 2  free  transition at x/c =  0.3570   41

   7   rms: 0.2803E-04   max: -.5450E-03   C at   41  2
       a = -2.500      CL =  0.3284
      Cm = -0.0862     CD =  0.00802   =>   CDf =  0.00603    CDp =  0.00199
 plradd ia,ip,cpol            4           0  0.21657141    

 Point added to stored polar  1
 Point written to save file  n10_Re500k.base.pol                             
 Dump file unspecified or not available
 Calculating wake trajectory ...
 Calculating source influence matrix ...

 Solving BL system ...

 Side 1  free  transition at x/c =  0.7180   60
 Side 2  free  transition at x/c =  0.3570   41

   1   rms: 0.3507E+00   max: -.6875E+01   C at   41  2   RLX: 0.073
       a = -2.000      CL =  0.3322
      Cm = -0.0862     CD =  0.00795   =>   CDf =  0.00603    CDp =  0.00192

 Side 1  free  transition at x/c =  0.7158   61
 Side 2  free  transition at x/c =  0.3711   40

   2   rms: 0.4508E+00   max: -.6685E+01   C at   40  2   RLX: 0.075
       a = -2.000      CL =  0.3362
      Cm = -0.0862     CD =  0.00793   =>   CDf =  0.00599    CDp =  0.00194

 Side 1  free  transition at x/c =  0.7137   61
 Side 2  free  transition at x/c =  0.3888   42

   3   rms: 0.3415E+00   max: -.6699E+01   C at   42  2   RLX: 0.075
       a = -2.000      CL =  0.3394
      Cm = -0.0861     CD =  0.00786   =>   CDf =  0.00594    CDp =  0.00192

 Side 1  free  transition at x/c =  0.7118   61
 Side 2  free  transition at x/c =  0.4032   42

   4   rms: 0.3273E+00   max: -.6440E+01   C at   42  2   RLX: 0.078
       a = -2.000      CL =  0.3429
      Cm = -0.0861     CD =  0.00784   =>   CDf =  0.00590    CDp =  0.00194

 Side 1  free  transition at x/c =  0.7100   61
 Side 2  free  transition at x/c =  0.4206   44

   5   rms: 0.3085E+00   max: -.6006E+01   C at   44  2   RLX: 0.083
       a = -2.000      CL =  0.3459
      Cm = -0.0861     CD =  0.00777   =>   CDf =  0.00585    CDp =  0.00192

 Side 1  free  transition at x/c =  0.7082   61
 Side 2  free  transition at x/c =  0.4352   44

   6   rms: 0.2839E+00   max: -.5547E+01   C at   44  2   RLX: 0.090
       a = -2.000      CL =  0.3493
      Cm = -0.0861     CD =  0.00775   =>   CDf =  0.00581    CDp =  0.00194

 Side 1  free  transition at x/c =  0.7066   61
 Side 2  free  transition at x/c =  0.4539   46

   7   rms: 0.2823E+00   max: -.5515E+01   C at   46  2   RLX: 0.091
       a = -2.000      CL =  0.3519
      Cm = -0.0860     CD =  0.00768   =>   CDf =  0.00576    CDp =  0.00192

 Side 1  free  transition at x/c =  0.7052   61
 Side 2  free  transition at x/c =  0.4684   47

   8   rms: 0.2503E+00   max: -.4857E+01   C at   47  2   RLX: 0.103
       a = -2.000      CL =  0.3549
      Cm = -0.0860     CD =  0.00764   =>   CDf =  0.00573    CDp =  0.00192

 Side 1  free  transition at x/c =  0.7038   60
 Side 2  free  transition at x/c =  0.4836   47

   9   rms: 0.2266E+00   max: -.4378E+01   C at   47  2   RLX: 0.114
       a = -2.000      CL =  0.3581
      Cm = -0.0861     CD =  0.00761   =>   CDf =  0.00568    CDp =  0.00193

 Side 1  free  transition at x/c =  0.7021   60
 Side 2  free  transition at x/c =  0.5040   49

  10   rms: 0.2361E+00   max: -.4604E+01   C at   49  2   RLX: 0.109
       a = -2.000      CL =  0.3603
      Cm = -0.0860     CD =  0.00754   =>   CDf =  0.00561    CDp =  0.00192

 Side 1  free  transition at x/c =  0.7007   60
 Side 2  free  transition at x/c =  0.5200   50

  11   rms: 0.2082E+00   max: -.4042E+01   C at   50  2   RLX: 0.124
       a = -2.000      CL =  0.3627
      Cm = -0.0860     CD =  0.00749   =>   CDf =  0.00556    CDp =  0.00192

 Side 1  free  transition at x/c =  0.6993   60
 Side 2  free  transition at x/c =  0.5379   51

  12   rms: 0.1781E+00   max: -.3440E+01   C at   51  2   RLX: 0.145
       a = -2.000      CL =  0.3652
      Cm = -0.0859     CD =  0.00743   =>   CDf =  0.00551    CDp =  0.00193

 Side 1  free  transition at x/c =  0.6978   60
 Side 2  free  transition at x/c =  0.5582   52

  13   rms: 0.1451E+00   max: -.2772E+01   C at   52  2   RLX: 0.180
       a = -2.000      CL =  0.3677
      Cm = -0.0858     CD =  0.00738   =>   CDf =  0.00545    CDp =  0.00193

 Side 1  free  transition at x/c =  0.6962   60
 Side 2  free  transition at x/c =  0.5829   54

  14   rms: 0.1380E+00   max: -.2648E+01   C at   54  2   RLX: 0.189
       a = -2.000      CL =  0.3694
      Cm = -0.0857     CD =  0.00730   =>   CDf =  0.00537    CDp =  0.00192

 Side 1  free  transition at x/c =  0.6949   60
 Side 2  free  transition at x/c =  0.5991   55

  15   rms: 0.1149E+00   max: -.2211E+01   C at   55  2   RLX: 0.226
       a = -2.000      CL =  0.3715
      Cm = -0.0856     CD =  0.00725   =>   CDf =  0.00533    CDp =  0.00192

 Side 1  free  transition at x/c =  0.6937   60
 Side 2  free  transition at x/c =  0.6162   56

  16   rms: 0.1009E+00   max: -.1930E+01   C at   56  2   RLX: 0.259
       a = -2.000      CL =  0.3731
      Cm = -0.0855     CD =  0.00720   =>   CDf =  0.00527    CDp =  0.00193

 Side 1  free  transition at x/c =  0.6926   60
 Side 2  free  transition at x/c =  0.6344   57

  17   rms: 0.8672E-01   max: -.1643E+01   C at   57  2   RLX: 0.304
       a = -2.000      CL =  0.3744
      Cm = -0.0854     CD =  0.00714   =>   CDf =  0.00521    CDp =  0.00193

 Side 1  free  transition at x/c =  0.6917   60
 Side 2  free  transition at x/c =  0.6532   58

  18   rms: 0.6708E-01   max: -.1253E+01   C at   58  2   RLX: 0.399
       a = -2.000      CL =  0.3755
      Cm = -0.0852     CD =  0.00709   =>   CDf =  0.00515    CDp =  0.00194

 Side 1  free  transition at x/c =  0.6909   60
 Side 2  free  transition at x/c =  0.6732   59

  19   rms: 0.4306E-01   max: -.7881E+00   C at   59  2   RLX: 0.634
       a = -2.000      CL =  0.3763
      Cm = -0.0850     CD =  0.00703   =>   CDf =  0.00509    CDp =  0.00195

 Side 1  free  transition at x/c =  0.6902   60
 Side 2  free  transition at x/c =  0.6954   61

  20   rms: 0.1400E-01   max: -.2627E+00   C at   61  2
       a = -2.000      CL =  0.3765
      Cm = -0.0848     CD =  0.00699   =>   CDf =  0.00501    CDp =  0.00197

 Side 1  free  transition at x/c =  0.6898   60
 Side 2  free  transition at x/c =  0.7055   61

  21   rms: 0.1707E-02   max: -.3103E-01   C at   61  2
       a = -2.000      CL =  0.3766
      Cm = -0.0848     CD =  0.00699   =>   CDf =  0.00498    CDp =  0.00201

 Side 1  free  transition at x/c =  0.6898   60
 Side 2  free  transition at x/c =  0.7067   61

  22   rms: 0.1867E-04   max: -.3345E-03   C at   61  2
       a = -2.000      CL =  0.3766
      Cm = -0.0848     CD =  0.00699   =>   CDf =  0.00498    CDp =  0.00201
 plradd ia,ip,cpol            5           0  0.20282707    

 Point added to stored polar  1
 Point written to save file  n10_Re500k.base.pol                             
 Dump file unspecified or not available
 Calculating wake trajectory ...
 Calculating source influence matrix ...

 Solving BL system ...

 Side 1  free  transition at x/c =  0.6898   60
 Side 2  free  transition at x/c =  0.7068   61

   1   rms: 0.7281E+00   max: -.1309E+02   C at   61  2   RLX: 0.038
       a = -1.500      CL =  0.3780
      Cm = -0.0847     CD =  0.00694   =>   CDf =  0.00498    CDp =  0.00196

 Side 1  free  transition at x/c =  0.6889   59
 Side 2  free  transition at x/c =  0.7297   63

   2   rms: 0.6506E+00   max: -.1206E+02   C at   63  2   RLX: 0.041
       a = -1.500      CL =  0.3793
      Cm = -0.0844     CD =  0.00686   =>   CDf =  0.00491    CDp =  0.00196

 Side 1  free  transition at x/c =  0.6878   59
 Side 2  free  transition at x/c =  0.7512   64

   3   rms: 0.4964E+00   max: -.9043E+01   C at   64  2   RLX: 0.055
       a = -1.500      CL =  0.3814
      Cm = -0.0842     CD =  0.00681   =>   CDf =  0.00484    CDp =  0.00197

 Side 1  free  transition at x/c =  0.6863   59
 Side 2  free  transition at x/c =  0.7808   66

   4   rms: 0.3666E+00   max: -.6698E+01   C at   66  2   RLX: 0.075
       a = -1.500      CL =  0.3836
      Cm = -0.0838     CD =  0.00674   =>   CDf =  0.00475    CDp =  0.00199

 Side 1  free  transition at x/c =  0.6844   59
 Side 2  free  transition at x/c =  0.8134   68

   5   rms: 0.2453E+00   max: -.4389E+01   C at   68  2   RLX: 0.114
       a = -1.500      CL =  0.3869
      Cm = -0.0832     CD =  0.00666   =>   CDf =  0.00465    CDp =  0.00201

 Side 1  free  transition at x/c =  0.6816   59
 Side 2  free  transition at x/c =  0.8553   71

   6   rms: 0.2311E+00   max: -.4164E+01   C at   71  2   RLX: 0.120
       a = -1.500      CL =  0.3889
      Cm = -0.0821     CD =  0.00658   =>   CDf =  0.00453    CDp =  0.00204

 Side 1  free  transition at x/c =  0.6792   59
 Side 2  free  transition at x/c =  0.8785   72

   7   rms: 0.1180E+00   max: -.1923E+01   C at   72  2   RLX: 0.260
       a = -1.500      CL =  0.3959
      Cm = -0.0816     CD =  0.00657   =>   CDf =  0.00449    CDp =  0.00208

 Side 1  free  transition at x/c =  0.6747   60
 Side 2  free  transition at x/c =  0.9320   75

   8   rms: 0.1359E+00   max: -.1777E+01   C at   75  2   RLX: 0.281
       a = -1.500      CL =  0.4074
      Cm = -0.0818     CD =  0.00653   =>   CDf =  0.00444    CDp =  0.00209

 Side 1  free  transition at x/c =  0.6713   59
 Side 2  free  transition at x/c =  0.9496   76

   9   rms: 0.4410E-01   max: -.2617E+00   C at   76  2
       a = -1.500      CL =  0.4334
      Cm = -0.0837     CD =  0.00659   =>   CDf =  0.00444    CDp =  0.00215

 Side 1  free  transition at x/c =  0.6597   59
 Side 2  free  transition at x/c =  0.9925   79

  10   rms: 0.1629E-01   max: 0.2053E+00   D at   78  2
       a = -1.500      CL =  0.4423
      Cm = -0.0859     CD =  0.00659   =>   CDf =  0.00452    CDp =  0.00206

 Side 1  free  transition at x/c =  0.6606   59
 Side 2  free  transition at x/c =  0.9834   78

  11   rms: 0.4603E-02   max: -.5338E-01   D at   80  2
       a = -1.500      CL =  0.4389
      Cm = -0.0851     CD =  0.00662   =>   CDf =  0.00451    CDp =  0.00211

 Side 1  free  transition at x/c =  0.6608   59
 Side 2  free  transition at x/c =  0.9840   78

  12   rms: 0.2198E-03   max: 0.1957E-02   D at   80  2
       a = -1.500      CL =  0.4390
      Cm = -0.0851     CD =  0.00662   =>   CDf =  0.00451    CDp =  0.00212

 Side 1  free  transition at x/c =  0.6608   59
 Side 2  free  transition at x/c =  0.9840   78

  13   rms: 0.1143E-05   max: 0.9964E-05   C at   78  2
       a = -1.500      CL =  0.4390
      Cm = -0.0851     CD =  0.00662   =>   CDf =  0.00451    CDp =  0.00212
 plradd ia,ip,cpol            6           0  0.20282707    

 Point added to stored polar  1
 Point written to save file  n10_Re500k.base.pol                             
 Dump file unspecified or not available
 Calculating wake trajectory ...
 Calculating source influence matrix ...

 Solving BL system ...

 Side 1  free  transition at x/c =  0.6608   59
 Side 2  free  transition at x/c =  0.9840   78

   1   rms: 0.1414E+00   max: 0.8104E+00   C at   79  2
       a = -1.000      CL =  0.5212
      Cm = -0.0906     CD =  0.00695   =>   CDf =  0.00453    CDp =  0.00242

 Side 1  free  transition at x/c =  0.6263   57
 Side 2 forced transition at x/c =  1.0001   79

   2   rms: 0.3704E-01   max: -.3309E+00   C at   79  2
       a = -1.000      CL =  0.5076
      Cm = -0.0880     CD =  0.00689   =>   CDf =  0.00480    CDp =  0.00209

 Side 1  free  transition at x/c =  0.6301   58
 Side 2 forced transition at x/c =  1.0001   79

   3   rms: 0.5214E-02   max: -.5147E-01   C at   58  1
       a = -1.000      CL =  0.5088
      Cm = -0.0882     CD =  0.00685   =>   CDf =  0.00477    CDp =  0.00207

 Side 1  free  transition at x/c =  0.6301   58
 Side 2 forced transition at x/c =  1.0001   79

   4   rms: 0.3005E-03   max: 0.4362E-02   C at   58  1
       a = -1.000      CL =  0.5089
      Cm = -0.0882     CD =  0.00685   =>   CDf =  0.00475    CDp =  0.00210

 Side 1  free  transition at x/c =  0.6301   58
 Side 2 forced transition at x/c =  1.0001   79

   5   rms: 0.1910E-05   max: 0.2858E-04   C at   58  1
       a = -1.000      CL =  0.5089
      Cm = -0.0882     CD =  0.00685   =>   CDf =  0.00475    CDp =  0.00210
 plradd ia,ip,cpol            7           0  0.20282707    

 Point added to stored polar  1
 Point written to save file  n10_Re500k.base.pol                             
 Dump file unspecified or not available
 Calculating wake trajectory ...
 Calculating source influence matrix ...

 Solving BL system ...

 Side 1  free  transition at x/c =  0.6301   58
 Side 2 forced transition at x/c =  1.0001   79

   1   rms: 0.9484E-01   max: 0.6564E+00   C at   58  1
       a = -0.500      CL =  0.5572
      Cm = -0.0867     CD =  0.00719   =>   CDf =  0.00476    CDp =  0.00243

 Side 1  free  transition at x/c =  0.5969   57
 Side 2 forced transition at x/c =  1.0001   78

   2   rms: 0.1746E-01   max: 0.2541E+00   D at   58  1
       a = -0.500      CL =  0.5583
      Cm = -0.0869     CD =  0.00712   =>   CDf =  0.00499    CDp =  0.00213

 Side 1  free  transition at x/c =  0.5980   57
 Side 2 forced transition at x/c =  1.0001   78

   3   rms: 0.2525E-02   max: 0.3903E-01   C at   57  1
       a = -0.500      CL =  0.5584
      Cm = -0.0869     CD =  0.00711   =>   CDf =  0.00496    CDp =  0.00215

 Side 1  free  transition at x/c =  0.5971   57
 Side 2 forced transition at x/c =  1.0001   78

   4   rms: 0.6127E-04   max: -.1333E-02   D at   58  1
       a = -0.500      CL =  0.5584
      Cm = -0.0869     CD =  0.00711   =>   CDf =  0.00497    CDp =  0.00214
 plradd ia,ip,cpol            8           0  0.20282707    

 Point added to stored polar  1
 Point written to save file  n10_Re500k.base.pol                             
 Dump file unspecified or not available
 Calculating wake trajectory ...
 Calculating source influence matrix ...

 Solving BL system ...

 Side 1  free  transition at x/c =  0.5971   57
 Side 2 forced transition at x/c =  1.0001   78

   1   rms: 0.9438E-01   max: 0.6664E+00   C at   57  1
       a =  0.000      CL =  0.6069
      Cm = -0.0854     CD =  0.00752   =>   CDf =  0.00497    CDp =  0.00255

 Side 1  free  transition at x/c =  0.5593   54
 Side 2 forced transition at x/c =  1.0001   78

   2   rms: 0.1776E-01   max: 0.2333E+00   D at   56  1
       a =  0.000      CL =  0.6087
      Cm = -0.0858     CD =  0.00736   =>   CDf =  0.00516    CDp =  0.00220

 Side 1  free  transition at x/c =  0.5562   54
 Side 2 forced transition at x/c =  1.0001   78

   3   rms: 0.1316E-02   max: -.2149E-01   D at   56  1
       a =  0.000      CL =  0.6087
      Cm = -0.0858     CD =  0.00737   =>   CDf =  0.00516    CDp =  0.00222

 Side 1  free  transition at x/c =  0.5555   54
 Side 2 forced transition at x/c =  1.0001   78

   4   rms: 0.1209E-04   max: -.2011E-03   D at   56  1
       a =  0.000      CL =  0.6087
      Cm = -0.0858     CD =  0.00737   =>   CDf =  0.00516    CDp =  0.00221
 plradd ia,ip,cpol            9           0  0.20282707    

 Point added to stored polar  1
 Point written to save file  n10_Re500k.base.pol                             
 Dump file unspecified or not available
 Calculating wake trajectory ...
 Calculating source influence matrix ...

 Solving BL system ...

 Side 1  free  transition at x/c =  0.5555   54
 Side 2 forced transition at x/c =  1.0001   78

   1   rms: 0.1029E+00   max: 0.1043E+01   C at   54  1   RLX: 0.955
       a =  0.500      CL =  0.6556
      Cm = -0.0846     CD =  0.00770   =>   CDf =  0.00515    CDp =  0.00256

 Side 1  free  transition at x/c =  0.4636   49
 Side 2 forced transition at x/c =  1.0001   77

   2   rms: 0.1786E-01   max: -.1581E+00   D at   56  1
       a =  0.500      CL =  0.6547
      Cm = -0.0840     CD =  0.00796   =>   CDf =  0.00564    CDp =  0.00232

 Side 1  free  transition at x/c =  0.4614   49
 Side 2 forced transition at x/c =  1.0001   77

   3   rms: 0.1031E-02   max: 0.1823E-01   C at   49  1
       a =  0.500      CL =  0.6544
      Cm = -0.0839     CD =  0.00798   =>   CDf =  0.00563    CDp =  0.00235

 Side 1  free  transition at x/c =  0.4608   49
 Side 2 forced transition at x/c =  1.0001   77

   4   rms: 0.1350E-04   max: -.2684E-03   C at   49  1
       a =  0.500      CL =  0.6544
      Cm = -0.0839     CD =  0.00798   =>   CDf =  0.00563    CDp =  0.00235
 plradd ia,ip,cpol           10           0  0.20282707    

 Point added to stored polar  1
 Point written to save file  n10_Re500k.base.pol                             
 Dump file unspecified or not available
 Calculating wake trajectory ...
 Calculating source influence matrix ...

 Solving BL system ...

 Side 1  free  transition at x/c =  0.4608   49
 Side 2 forced transition at x/c =  1.0001   77

   1   rms: 0.1738E+00   max: 0.3069E+01   C at   49  1   RLX: 0.489
       a =  1.000      CL =  0.6753
      Cm = -0.0829     CD =  0.00846   =>   CDf =  0.00564    CDp =  0.00283

 Side 1  free  transition at x/c =  0.4256   46
 Side 2 forced transition at x/c =  1.0001   77

   2   rms: 0.5122E-01   max: 0.5541E+00   C at   46  1
       a =  1.000      CL =  0.7025
      Cm = -0.0827     CD =  0.00863   =>   CDf =  0.00583    CDp =  0.00280

 Side 1  free  transition at x/c =  0.4019   46
 Side 2 forced transition at x/c =  1.0001   76

   3   rms: 0.8275E-02   max: -.1398E+00   C at   46  1
       a =  1.000      CL =  0.7019
      Cm = -0.0826     CD =  0.00867   =>   CDf =  0.00603    CDp =  0.00263

 Side 1  free  transition at x/c =  0.4052   46
 Side 2 forced transition at x/c =  1.0001   76

   4   rms: 0.5955E-03   max: -.5635E-02   D at    4  1
       a =  1.000      CL =  0.7019
      Cm = -0.0826     CD =  0.00867   =>   CDf =  0.00600    CDp =  0.00267

 Side 1  free  transition at x/c =  0.4051   46
 Side 2 forced transition at x/c =  1.0001   76

   5   rms: 0.1584E-05   max: 0.2125E-04   C at   46  1
       a =  1.000      CL =  0.7019
      Cm = -0.0826     CD =  0.00867   =>   CDf =  0.00600    CDp =  0.00267
 plradd ia,ip,cpol           11           0  7.87529275E-02

 Point added to stored polar  1
 Point written to save file  n10_Re500k.base.pol                             
 Dump file unspecified or not available
 Calculating wake trajectory ...
 Calculating source influence matrix ...

 Solving BL system ...

 Side 1  free  transition at x/c =  0.4051   46
 Side 2 forced transition at x/c =  1.0001   76

   1   rms: 0.9652E-01   max: 0.1047E+01   C at   46  1
       a =  1.500      CL =  0.7520
      Cm = -0.0817     CD =  0.00921   =>   CDf =  0.00600    CDp =  0.00321

 Side 1  free  transition at x/c =  0.3787   44
 Side 2 forced transition at x/c =  1.0001   76

   2   rms: 0.1167E-01   max: 0.2084E+00   D at   45  1
       a =  1.500      CL =  0.7523
      Cm = -0.0818     CD =  0.00918   =>   CDf =  0.00622    CDp =  0.00296

 Side 1  free  transition at x/c =  0.3807   44
 Side 2 forced transition at x/c =  1.0001   76

   3   rms: 0.1078E-02   max: 0.1853E-01   C at   44  1
       a =  1.500      CL =  0.7524
      Cm = -0.0818     CD =  0.00917   =>   CDf =  0.00619    CDp =  0.00299

 Side 1  free  transition at x/c =  0.3802   44
 Side 2 forced transition at x/c =  1.0001   76

   4   rms: 0.7163E-05   max: -.1034E-03   D at   45  1
       a =  1.500      CL =  0.7524
      Cm = -0.0818     CD =  0.00917   =>   CDf =  0.00619    CDp =  0.00298
 plradd ia,ip,cpol           12           0  7.87529275E-02

 Point added to stored polar  1
 Point written to save file  n10_Re500k.base.pol                             
 Dump file unspecified or not available
 Calculating wake trajectory ...
 Calculating source influence matrix ...

 Solving BL system ...

 Side 1  free  transition at x/c =  0.3802   44
 Side 2 forced transition at x/c =  1.0001   76

   1   rms: 0.8106E-01   max: -.1269E+00   C at   76  2
       a =  2.000      CL =  0.8057
      Cm = -0.0815     CD =  0.00947   =>   CDf =  0.00613    CDp =  0.00334

 Side 1  free  transition at x/c =  0.3639   44
 Side 2 forced transition at x/c =  1.0001   75

   2   rms: 0.7122E-02   max: -.8074E-01   C at   44  1
       a =  2.000      CL =  0.8040
      Cm = -0.0813     CD =  0.00960   =>   CDf =  0.00631    CDp =  0.00329

 Side 1  free  transition at x/c =  0.3644   44
 Side 2 forced transition at x/c =  1.0001   75

   3   rms: 0.9933E-02   max: -.1597E+00   C at   44  1
       a =  2.000      CL =  0.8039
      Cm = -0.0813     CD =  0.00960   =>   CDf =  0.00634    CDp =  0.00326

 Side 1  free  transition at x/c =  0.3646   44
 Side 2 forced transition at x/c =  1.0001   75

   4   rms: 0.9665E-02   max: -.1590E+00   C at   44  1
       a =  2.000      CL =  0.8039
      Cm = -0.0813     CD =  0.00960   =>   CDf =  0.00634    CDp =  0.00327

 Side 1  free  transition at x/c =  0.3645   44
 Side 2 forced transition at x/c =  1.0001   75

   5   rms: 0.9736E-02   max: -.1592E+00   C at   44  1
       a =  2.000      CL =  0.8039
      Cm = -0.0813     CD =  0.00960   =>   CDf =  0.00634    CDp =  0.00326

 Side 1  free  transition at x/c =  0.3645   44
 Side 2 forced transition at x/c =  1.0001   75

   6   rms: 0.9729E-02   max: -.1591E+00   C at   44  1
       a =  2.000      CL =  0.8039
      Cm = -0.0813     CD =  0.00960   =>   CDf =  0.00634    CDp =  0.00326

 Side 1  free  transition at x/c =  0.3645   44
 Side 2 forced transition at x/c =  1.0001   75

   7   rms: 0.9730E-02   max: -.1591E+00   C at   44  1
       a =  2.000      CL =  0.8039
      Cm = -0.0813     CD =  0.00960   =>   CDf =  0.00634    CDp =  0.00326

 Side 1  free  transition at x/c =  0.3645   44
 Side 2 forced transition at x/c =  1.0001   75

   8   rms: 0.9729E-02   max: -.1591E+00   C at   44  1
       a =  2.000      CL =  0.8039
      Cm = -0.0813     CD =  0.00960   =>   CDf =  0.00634    CDp =  0.00326

 Side 1  free  transition at x/c =  0.3645   44
 Side 2 forced transition at x/c =  1.0001   75

   9   rms: 0.9729E-02   max: -.1591E+00   C at   44  1
       a =  2.000      CL =  0.8039
      Cm = -0.0813     CD =  0.00960   =>   CDf =  0.00634    CDp =  0.00326

 Side 1  free  transition at x/c =  0.3645   44
 Side 2 forced transition at x/c =  1.0001   75

  10   rms: 0.9730E-02   max: -.1591E+00   C at   44  1
       a =  2.000      CL =  0.8039
      Cm = -0.0813     CD =  0.00960   =>   CDf =  0.00634    CDp =  0.00326

 Side 1  free  transition at x/c =  0.3645   44
 Side 2 forced transition at x/c =  1.0001   75

  11   rms: 0.9730E-02   max: -.1591E+00   C at   44  1
       a =  2.000      CL =  0.8039
      Cm = -0.0813     CD =  0.00960   =>   CDf =  0.00634    CDp =  0.00326

 Side 1  free  transition at x/c =  0.3645   44
 Side 2 forced transition at x/c =  1.0001   75

  12   rms: 0.9730E-02   max: -.1591E+00   C at   44  1
       a =  2.000      CL =  0.8039
      Cm = -0.0813     CD =  0.00960   =>   CDf =  0.00634    CDp =  0.00326

 Side 1  free  transition at x/c =  0.3645   44
 Side 2 forced transition at x/c =  1.0001   75

  13   rms: 0.9729E-02   max: -.1591E+00   C at   44  1
       a =  2.000      CL =  0.8039
      Cm = -0.0813     CD =  0.00960   =>   CDf =  0.00634    CDp =  0.00326

 Side 1  free  transition at x/c =  0.3645   44
 Side 2 forced transition at x/c =  1.0001   75

  14   rms: 0.9729E-02   max: -.1591E+00   C at   44  1
       a =  2.000      CL =  0.8039
      Cm = -0.0813     CD =  0.00960   =>   CDf =  0.00634    CDp =  0.00326

 Side 1  free  transition at x/c =  0.3645   44
 Side 2 forced transition at x/c =  1.0001   75

  15   rms: 0.9730E-02   max: -.1591E+00   C at   44  1
       a =  2.000      CL =  0.8039
      Cm = -0.0813     CD =  0.00960   =>   CDf =  0.00634    CDp =  0.00326

 Side 1  free  transition at x/c =  0.3645   44
 Side 2 forced transition at x/c =  1.0001   75

  16   rms: 0.9730E-02   max: -.1591E+00   C at   44  1
       a =  2.000      CL =  0.8039
      Cm = -0.0813     CD =  0.00960   =>   CDf =  0.00634    CDp =  0.00326

 Side 1  free  transition at x/c =  0.3645   44
 Side 2 forced transition at x/c =  1.0001   75

  17   rms: 0.9729E-02   max: -.1591E+00   C at   44  1
       a =  2.000      CL =  0.8039
      Cm = -0.0813     CD =  0.00960   =>   CDf =  0.00634    CDp =  0.00326

 Side 1  free  transition at x/c =  0.3645   44
 Side 2 forced transition at x/c =  1.0001   75

  18   rms: 0.9730E-02   max: -.1591E+00   C at   44  1
       a =  2.000      CL =  0.8039
      Cm = -0.0813     CD =  0.00960   =>   CDf =  0.00634    CDp =  0.00326

 Side 1  free  transition at x/c =  0.3645   44
 Side 2 forced transition at x/c =  1.0001   75

  19   rms: 0.9730E-02   max: -.1591E+00   C at   44  1
       a =  2.000      CL =  0.8039
      Cm = -0.0813     CD =  0.00960   =>   CDf =  0.00634    CDp =  0.00326

 Side 1  free  transition at x/c =  0.3645   44
 Side 2 forced transition at x/c =  1.0001   75

  20   rms: 0.9730E-02   max: -.1591E+00   C at   44  1
       a =  2.000      CL =  0.8039
      Cm = -0.0813     CD =  0.00960   =>   CDf =  0.00634    CDp =  0.00326

 Side 1  free  transition at x/c =  0.3645   44
 Side 2 forced transition at x/c =  1.0001   75

  21   rms: 0.9729E-02   max: -.1591E+00   C at   44  1
       a =  2.000      CL =  0.8039
      Cm = -0.0813     CD =  0.00960   =>   CDf =  0.00634    CDp =  0.00326

 Side 1  free  transition at x/c =  0.3645   44
 Side 2 forced transition at x/c =  1.0001   75

  22   rms: 0.9730E-02   max: -.1591E+00   C at   44  1
       a =  2.000      CL =  0.8039
      Cm = -0.0813     CD =  0.00960   =>   CDf =  0.00634    CDp =  0.00326

 Side 1  free  transition at x/c =  0.3645   44
 Side 2 forced transition at x/c =  1.0001   75

  23   rms: 0.9730E-02   max: -.1591E+00   C at   44  1
       a =  2.000      CL =  0.8039
      Cm = -0.0813     CD =  0.00960   =>   CDf =  0.00634    CDp =  0.00326

 Side 1  free  transition at x/c =  0.3645   44
 Side 2 forced transition at x/c =  1.0001   75

  24   rms: 0.9730E-02   max: -.1591E+00   C at   44  1
       a =  2.000      CL =  0.8039
      Cm = -0.0813     CD =  0.00960   =>   CDf =  0.00634    CDp =  0.00326

 Side 1  free  transition at x/c =  0.3645   44
 Side 2 forced transition at x/c =  1.0001   75

  25   rms: 0.9729E-02   max: -.1591E+00   C at   44  1
       a =  2.000      CL =  0.8039
      Cm = -0.0813     CD =  0.00960   =>   CDf =  0.00634    CDp =  0.00326

 Side 1  free  transition at x/c =  0.3645   44
 Side 2 forced transition at x/c =  1.0001   75

  26   rms: 0.9730E-02   max: -.1591E+00   C at   44  1
       a =  2.000      CL =  0.8039
      Cm = -0.0813     CD =  0.00960   =>   CDf =  0.00634    CDp =  0.00326

 Side 1  free  transition at x/c =  0.3645   44
 Side 2 forced transition at x/c =  1.0001   75

  27   rms: 0.9729E-02   max: -.1591E+00   C at   44  1
       a =  2.000      CL =  0.8039
      Cm = -0.0813     CD =  0.00960   =>   CDf =  0.00634    CDp =  0.00326

 Side 1  free  transition at x/c =  0.3645   44
 Side 2 forced transition at x/c =  1.0001   75

  28   rms: 0.9730E-02   max: -.1591E+00   C at   44  1
       a =  2.000      CL =  0.8039
      Cm = -0.0813     CD =  0.00960   =>   CDf =  0.00634    CDp =  0.00326

 Side 1  free  transition at x/c =  0.3645   44
 Side 2 forced transition at x/c =  1.0001   75

  29   rms: 0.9729E-02   max: -.1591E+00   C at   44  1
       a =  2.000      CL =  0.8039
      Cm = -0.0813     CD =  0.00960   =>   CDf =  0.00634    CDp =  0.00326

 Side 1  free  transition at x/c =  0.3645   44
 Side 2 forced transition at x/c =  1.0001   75

  30   rms: 0.9729E-02   max: -.1591E+00   C at   44  1
       a =  2.000      CL =  0.8039
      Cm = -0.0813     CD =  0.00960   =>   CDf =  0.00634    CDp =  0.00326

 Side 1  free  transition at x/c =  0.3645   44
 Side 2 forced transition at x/c =  1.0001   75

  31   rms: 0.9730E-02   max: -.1591E+00   C at   44  1
       a =  2.000      CL =  0.8039
      Cm = -0.0813     CD =  0.00960   =>   CDf =  0.00634    CDp =  0.00326

 Side 1  free  transition at x/c =  0.3645   44
 Side 2 forced transition at x/c =  1.0001   75

  32   rms: 0.9730E-02   max: -.1591E+00   C at   44  1
       a =  2.000      CL =  0.8039
      Cm = -0.0813     CD =  0.00960   =>   CDf =  0.00634    CDp =  0.00326

 Side 1  free  transition at x/c =  0.3645   44
 Side 2 forced transition at x/c =  1.0001   75

  33   rms: 0.9730E-02   max: -.1591E+00   C at   44  1
       a =  2.000      CL =  0.8039
      Cm = -0.0813     CD =  0.00960   =>   CDf =  0.00634    CDp =  0.00326

 Side 1  free  transition at x/c =  0.3645   44
 Side 2 forced transition at x/c =  1.0001   75

  34   rms: 0.9730E-02   max: -.1591E+00   C at   44  1
       a =  2.000      CL =  0.8039
      Cm = -0.0813     CD =  0.00960   =>   CDf =  0.00634    CDp =  0.00326

 Side 1  free  transition at x/c =  0.3645   44
 Side 2 forced transition at x/c =  1.0001   75

  35   rms: 0.9730E-02   max: -.1591E+00   C at   44  1
       a =  2.000      CL =  0.8039
      Cm = -0.0813     CD =  0.00960   =>   CDf =  0.00634    CDp =  0.00326

 Side 1  free  transition at x/c =  0.3645   44
 Side 2 forced transition at x/c =  1.0001   75

  36   rms: 0.9730E-02   max: -.1591E+00   C at   44  1
       a =  2.000      CL =  0.8039
      Cm = -0.0813     CD =  0.00960   =>   CDf =  0.00634    CDp =  0.00326

 Side 1  free  transition at x/c =  0.3645   44
 Side 2 forced transition at x/c =  1.0001   75

  37   rms: 0.9730E-02   max: -.1591E+00   C at   44  1
       a =  2.000      CL =  0.8039
      Cm = -0.0813     CD =  0.00960   =>   CDf =  0.00634    CDp =  0.00326

 Side 1  free  transition at x/c =  0.3645   44
 Side 2 forced transition at x/c =  1.0001   75

  38   rms: 0.9730E-02   max: -.1591E+00   C at   44  1
       a =  2.000      CL =  0.8039
      Cm = -0.0813     CD =  0.00960   =>   CDf =  0.00634    CDp =  0.00326

 Side 1  free  transition at x/c =  0.3645   44
 Side 2 forced transition at x/c =  1.0001   75

  39   rms: 0.9730E-02   max: -.1591E+00   C at   44  1
       a =  2.000      CL =  0.8039
      Cm = -0.0813     CD =  0.00960   =>   CDf =  0.00634    CDp =  0.00326

 Side 1  free  transition at x/c =  0.3645   44
 Side 2 forced transition at x/c =  1.0001   75

  40   rms: 0.9730E-02   max: -.1591E+00   C at   44  1
       a =  2.000      CL =  0.8039
      Cm = -0.0813     CD =  0.00960   =>   CDf =  0.00634    CDp =  0.00326

 Side 1  free  transition at x/c =  0.3645   44
 Side 2 forced transition at x/c =  1.0001   75

  41   rms: 0.9730E-02   max: -.1591E+00   C at   44  1
       a =  2.000      CL =  0.8039
      Cm = -0.0813     CD =  0.00960   =>   CDf =  0.00634    CDp =  0.00326

 Side 1  free  transition at x/c =  0.3645   44
 Side 2 forced transition at x/c =  1.0001   75

  42   rms: 0.9729E-02   max: -.1591E+00   C at   44  1
       a =  2.000      CL =  0.8039
      Cm = -0.0813     CD =  0.00960   =>   CDf =  0.00634    CDp =  0.00326

 Side 1  free  transition at x/c =  0.3645   44
 Side 2 forced transition at x/c =  1.0001   75

  43   rms: 0.9730E-02   max: -.1591E+00   C at   44  1
       a =  2.000      CL =  0.8039
      Cm = -0.0813     CD =  0.00960   =>   CDf =  0.00634    CDp =  0.00326

 Side 1  free  transition at x/c =  0.3645   44
 Side 2 forced transition at x/c =  1.0001   75

  44   rms: 0.9730E-02   max: -.1591E+00   C at   44  1
       a =  2.000      CL =  0.8039
      Cm = -0.0813     CD =  0.00960   =>   CDf =  0.00634    CDp =  0.00326

 Side 1  free  transition at x/c =  0.3645   44
 Side 2 forced transition at x/c =  1.0001   75

  45   rms: 0.9730E-02   max: -.1591E+00   C at   44  1
       a =  2.000      CL =  0.8039
      Cm = -0.0813     CD =  0.00960   =>   CDf =  0.00634    CDp =  0.00326

 Side 1  free  transition at x/c =  0.3645   44
 Side 2 forced transition at x/c =  1.0001   75

  46   rms: 0.9730E-02   max: -.1591E+00   C at   44  1
       a =  2.000      CL =  0.8039
      Cm = -0.0813     CD =  0.00960   =>   CDf =  0.00634    CDp =  0.00326

 Side 1  free  transition at x/c =  0.3645   44
 Side 2 forced transition at x/c =  1.0001   75

  47   rms: 0.9730E-02   max: -.1591E+00   C at   44  1
       a =  2.000      CL =  0.8039
      Cm = -0.0813     CD =  0.00960   =>   CDf =  0.00634    CDp =  0.00326

 Side 1  free  transition at x/c =  0.3645   44
 Side 2 forced transition at x/c =  1.0001   75

  48   rms: 0.9729E-02   max: -.1591E+00   C at   44  1
       a =  2.000      CL =  0.8039
      Cm = -0.0813     CD =  0.00960   =>   CDf =  0.00634    CDp =  0.00326

 Side 1  free  transition at x/c =  0.3645   44
 Side 2 forced transition at x/c =  1.0001   75

  49   rms: 0.9730E-02   max: -.1591E+00   C at   44  1
       a =  2.000      CL =  0.8039
      Cm = -0.0813     CD =  0.00960   =>   CDf =  0.00634    CDp =  0.00326

 Side 1  free  transition at x/c =  0.3645   44
 Side 2 forced transition at x/c =  1.0001   75

  50   rms: 0.9729E-02   max: -.1591E+00   C at   44  1
       a =  2.000      CL =  0.8039
      Cm = -0.0813     CD =  0.00960   =>   CDf =  0.00634    CDp =  0.00326

 Side 1  free  transition at x/c =  0.3645   44
 Side 2 forced transition at x/c =  1.0001   75

  51   rms: 0.9730E-02   max: -.1591E+00   C at   44  1
       a =  2.000      CL =  0.8039
      Cm = -0.0813     CD =  0.00960   =>   CDf =  0.00634    CDp =  0.00326

 Side 1  free  transition at x/c =  0.3645   44
 Side 2 forced transition at x/c =  1.0001   75

  52   rms: 0.9729E-02   max: -.1591E+00   C at   44  1
       a =  2.000      CL =  0.8039
      Cm = -0.0813     CD =  0.00960   =>   CDf =  0.00634    CDp =  0.00326

 Side 1  free  transition at x/c =  0.3645   44
 Side 2 forced transition at x/c =  1.0001   75

  53   rms: 0.9730E-02   max: -.1591E+00   C at   44  1
       a =  2.000      CL =  0.8039
      Cm = -0.0813     CD =  0.00960   =>   CDf =  0.00634    CDp =  0.00326

 Side 1  free  transition at x/c =  0.3645   44
 Side 2 forced transition at x/c =  1.0001   75

  54   rms: 0.9730E-02   max: -.1591E+00   C at   44  1
       a =  2.000      CL =  0.8039
      Cm = -0.0813     CD =  0.00960   =>   CDf =  0.00634    CDp =  0.00326

 Side 1  free  transition at x/c =  0.3645   44
 Side 2 forced transition at x/c =  1.0001   75

  55   rms: 0.9730E-02   max: -.1591E+00   C at   44  1
       a =  2.000      CL =  0.8039
      Cm = -0.0813     CD =  0.00960   =>   CDf =  0.00634    CDp =  0.00326

 Side 1  free  transition at x/c =  0.3645   44
 Side 2 forced transition at x/c =  1.0001   75

  56   rms: 0.9730E-02   max: -.1591E+00   C at   44  1
       a =  2.000      CL =  0.8039
      Cm = -0.0813     CD =  0.00960   =>   CDf =  0.00634    CDp =  0.00326

 Side 1  free  transition at x/c =  0.3645   44
 Side 2 forced transition at x/c =  1.0001   75

  57   rms: 0.9730E-02   max: -.1591E+00   C at   44  1
       a =  2.000      CL =  0.8039
      Cm = -0.0813     CD =  0.00960   =>   CDf =  0.00634    CDp =  0.00326

 Side 1  free  transition at x/c =  0.3645   44
 Side 2 forced transition at x/c =  1.0001   75

  58   rms: 0.9730E-02   max: -.1591E+00   C at   44  1
       a =  2.000      CL =  0.8039
      Cm = -0.0813     CD =  0.00960   =>   CDf =  0.00634    CDp =  0.00326

 Side 1  free  transition at x/c =  0.3645   44
 Side 2 forced transition at x/c =  1.0001   75

  59   rms: 0.9730E-02   max: -.1591E+00   C at   44  1
       a =  2.000      CL =  0.8039
      Cm = -0.0813     CD =  0.00960   =>   CDf =  0.00634    CDp =  0.00326

 Side 1  free  transition at x/c =  0.3645   44
 Side 2 forced transition at x/c =  1.0001   75

  60   rms: 0.9730E-02   max: -.1591E+00   C at   44  1
       a =  2.000      CL =  0.8039
      Cm = -0.0813     CD =  0.00960   =>   CDf =  0.00634    CDp =  0.00326

 Side 1  free  transition at x/c =  0.3645   44
 Side 2 forced transition at x/c =  1.0001   75

  61   rms: 0.9729E-02   max: -.1591E+00   C at   44  1
       a =  2.000      CL =  0.8039
      Cm = -0.0813     CD =  0.00960   =>   CDf =  0.00634    CDp =  0.00326

 Side 1  free  transition at x/c =  0.3645   44
 Side 2 forced transition at x/c =  1.0001   75

  62   rms: 0.9730E-02   max: -.1591E+00   C at   44  1
       a =  2.000      CL =  0.8039
      Cm = -0.0813     CD =  0.00960   =>   CDf =  0.00634    CDp =  0.00326

 Side 1  free  transition at x/c =  0.3645   44
 Side 2 forced transition at x/c =  1.0001   75

  63   rms: 0.9730E-02   max: -.1591E+00   C at   44  1
       a =  2.000      CL =  0.8039
      Cm = -0.0813     CD =  0.00960   =>   CDf =  0.00634    CDp =  0.00326

 Side 1  free  transition at x/c =  0.3645   44
 Side 2 forced transition at x/c =  1.0001   75

  64   rms: 0.9729E-02   max: -.1591E+00   C at   44  1
       a =  2.000      CL =  0.8039
      Cm = -0.0813     CD =  0.00960   =>   CDf =  0.00634    CDp =  0.00326

 Side 1  free  transition at x/c =  0.3645   44
 Side 2 forced transition at x/c =  1.0001   75

  65   rms: 0.9730E-02   max: -.1591E+00   C at   44  1
       a =  2.000      CL =  0.8039
      Cm = -0.0813     CD =  0.00960   =>   CDf =  0.00634    CDp =  0.00326

 Side 1  free  transition at x/c =  0.3645   44
 Side 2 forced transition at x/c =  1.0001   75

  66   rms: 0.9730E-02   max: -.1591E+00   C at   44  1
       a =  2.000      CL =  0.8039
      Cm = -0.0813     CD =  0.00960   =>   CDf =  0.00634    CDp =  0.00326

 Side 1  free  transition at x/c =  0.3645   44
 Side 2 forced transition at x/c =  1.0001   75

  67   rms: 0.9730E-02   max: -.1591E+00   C at   44  1
       a =  2.000      CL =  0.8039
      Cm = -0.0813     CD =  0.00960   =>   CDf =  0.00634    CDp =  0.00326

 Side 1  free  transition at x/c =  0.3645   44
 Side 2 forced transition at x/c =  1.0001   75

  68   rms: 0.9730E-02   max: -.1591E+00   C at   44  1
       a =  2.000      CL =  0.8039
      Cm = -0.0813     CD =  0.00960   =>   CDf =  0.00634    CDp =  0.00326

 Side 1  free  transition at x/c =  0.3645   44
 Side 2 forced transition at x/c =  1.0001   75

  69   rms: 0.9730E-02   max: -.1591E+00   C at   44  1
       a =  2.000      CL =  0.8039
      Cm = -0.0813     CD =  0.00960   =>   CDf =  0.00634    CDp =  0.00326

 Side 1  free  transition at x/c =  0.3645   44
 Side 2 forced transition at x/c =  1.0001   75

  70   rms: 0.9729E-02   max: -.1591E+00   C at   44  1
       a =  2.000      CL =  0.8039
      Cm = -0.0813     CD =  0.00960   =>   CDf =  0.00634    CDp =  0.00326

 Side 1  free  transition at x/c =  0.3645   44
 Side 2 forced transition at x/c =  1.0001   75

  71   rms: 0.9730E-02   max: -.1591E+00   C at   44  1
       a =  2.000      CL =  0.8039
      Cm = -0.0813     CD =  0.00960   =>   CDf =  0.00634    CDp =  0.00326

 Side 1  free  transition at x/c =  0.3645   44
 Side 2 forced transition at x/c =  1.0001   75

  72   rms: 0.9730E-02   max: -.1591E+00   C at   44  1
       a =  2.000      CL =  0.8039
      Cm = -0.0813     CD =  0.00960   =>   CDf =  0.00634    CDp =  0.00326

 Side 1  free  transition at x/c =  0.3645   44
 Side 2 forced transition at x/c =  1.0001   75

  73   rms: 0.9729E-02   max: -.1591E+00   C at   44  1
       a =  2.000      CL =  0.8039
      Cm = -0.0813     CD =  0.00960   =>   CDf =  0.00634    CDp =  0.00326

 Side 1  free  transition at x/c =  0.3645   44
 Side 2 forced transition at x/c =  1.0001   75

  74   rms: 0.9730E-02   max: -.1591E+00   C at   44  1
       a =  2.000      CL =  0.8039
      Cm = -0.0813     CD =  0.00960   =>   CDf =  0.00634    CDp =  0.00326

 Side 1  free  transition at x/c =  0.3645   44
 Side 2 forced transition at x/c =  1.0001   75

  75   rms: 0.9730E-02   max: -.1591E+00   C at   44  1
       a =  2.000      CL =  0.8039
      Cm = -0.0813     CD =  0.00960   =>   CDf =  0.00634    CDp =  0.00326

 Side 1  free  transition at x/c =  0.3645   44
 Side 2 forced transition at x/c =  1.0001   75

  76   rms: 0.9729E-02   max: -.1591E+00   C at   44  1
       a =  2.000      CL =  0.8039
      Cm = -0.0813     CD =  0.00960   =>   CDf =  0.00634    CDp =  0.00326

 Side 1  free  transition at x/c =  0.3645   44
 Side 2 forced transition at x/c =  1.0001   75

  77   rms: 0.9730E-02   max: -.1591E+00   C at   44  1
       a =  2.000      CL =  0.8039
      Cm = -0.0813     CD =  0.00960   =>   CDf =  0.00634    CDp =  0.00326

 Side 1  free  transition at x/c =  0.3645   44
 Side 2 forced transition at x/c =  1.0001   75

  78   rms: 0.9730E-02   max: -.1591E+00   C at   44  1
       a =  2.000      CL =  0.8039
      Cm = -0.0813     CD =  0.00960   =>   CDf =  0.00634    CDp =  0.00326

 Side 1  free  transition at x/c =  0.3645   44
 Side 2 forced transition at x/c =  1.0001   75

  79   rms: 0.9730E-02   max: -.1591E+00   C at   44  1
       a =  2.000      CL =  0.8039
      Cm = -0.0813     CD =  0.00960   =>   CDf =  0.00634    CDp =  0.00326

 Side 1  free  transition at x/c =  0.3645   44
 Side 2 forced transition at x/c =  1.0001   75

  80   rms: 0.9730E-02   max: -.1591E+00   C at   44  1
       a =  2.000      CL =  0.8039
      Cm = -0.0813     CD =  0.00960   =>   CDf =  0.00634    CDp =  0.00326

 Side 1  free  transition at x/c =  0.3645   44
 Side 2 forced transition at x/c =  1.0001   75

  81   rms: 0.9729E-02   max: -.1591E+00   C at   44  1
       a =  2.000      CL =  0.8039
      Cm = -0.0813     CD =  0.00960   =>   CDf =  0.00634    CDp =  0.00326

 Side 1  free  transition at x/c =  0.3645   44
 Side 2 forced transition at x/c =  1.0001   75

  82   rms: 0.9730E-02   max: -.1591E+00   C at   44  1
       a =  2.000      CL =  0.8039
      Cm = -0.0813     CD =  0.00960   =>   CDf =  0.00634    CDp =  0.00326

 Side 1  free  transition at x/c =  0.3645   44
 Side 2 forced transition at x/c =  1.0001   75

  83   rms: 0.9729E-02   max: -.1591E+00   C at   44  1
       a =  2.000      CL =  0.8039
      Cm = -0.0813     CD =  0.00960   =>   CDf =  0.00634    CDp =  0.00326

 Side 1  free  transition at x/c =  0.3645   44
 Side 2 forced transition at x/c =  1.0001   75

  84   rms: 0.9730E-02   max: -.1591E+00   C at   44  1
       a =  2.000      CL =  0.8039
      Cm = -0.0813     CD =  0.00960   =>   CDf =  0.00634    CDp =  0.00326

 Side 1  free  transition at x/c =  0.3645   44
 Side 2 forced transition at x/c =  1.0001   75

  85   rms: 0.9730E-02   max: -.1591E+00   C at   44  1
       a =  2.000      CL =  0.8039
      Cm = -0.0813     CD =  0.00960   =>   CDf =  0.00634    CDp =  0.00326

 Side 1  free  transition at x/c =  0.3645   44
 Side 2 forced transition at x/c =  1.0001   75

  86   rms: 0.9730E-02   max: -.1591E+00   C at   44  1
       a =  2.000      CL =  0.8039
      Cm = -0.0813     CD =  0.00960   =>   CDf =  0.00634    CDp =  0.00326

 Side 1  free  transition at x/c =  0.3645   44
 Side 2 forced transition at x/c =  1.0001   75

  87   rms: 0.9730E-02   max: -.1591E+00   C at   44  1
       a =  2.000      CL =  0.8039
      Cm = -0.0813     CD =  0.00960   =>   CDf =  0.00634    CDp =  0.00326

 Side 1  free  transition at x/c =  0.3645   44
 Side 2 forced transition at x/c =  1.0001   75

  88   rms: 0.9730E-02   max: -.1591E+00   C at   44  1
       a =  2.000      CL =  0.8039
      Cm = -0.0813     CD =  0.00960   =>   CDf =  0.00634    CDp =  0.00326

 Side 1  free  transition at x/c =  0.3645   44
 Side 2 forced transition at x/c =  1.0001   75

  89   rms: 0.9730E-02   max: -.1591E+00   C at   44  1
       a =  2.000      CL =  0.8039
      Cm = -0.0813     CD =  0.00960   =>   CDf =  0.00634    CDp =  0.00326

 Side 1  free  transition at x/c =  0.3645   44
 Side 2 forced transition at x/c =  1.0001   75

  90   rms: 0.9730E-02   max: -.1591E+00   C at   44  1
       a =  2.000      CL =  0.8039
      Cm = -0.0813     CD =  0.00960   =>   CDf =  0.00634    CDp =  0.00326

 Side 1  free  transition at x/c =  0.3645   44
 Side 2 forced transition at x/c =  1.0001   75

  91   rms: 0.9729E-02   max: -.1591E+00   C at   44  1
       a =  2.000      CL =  0.8039
      Cm = -0.0813     CD =  0.00960   =>   CDf =  0.00634    CDp =  0.00326

 Side 1  free  transition at x/c =  0.3645   44
 Side 2 forced transition at x/c =  1.0001   75

  92   rms: 0.9730E-02   max: -.1591E+00   C at   44  1
       a =  2.000      CL =  0.8039
      Cm = -0.0813     CD =  0.00960   =>   CDf =  0.00634    CDp =  0.00326

 Side 1  free  transition at x/c =  0.3645   44
 Side 2 forced transition at x/c =  1.0001   75

  93   rms: 0.9729E-02   max: -.1591E+00   C at   44  1
       a =  2.000      CL =  0.8039
      Cm = -0.0813     CD =  0.00960   =>   CDf =  0.00634    CDp =  0.00326

 Side 1  free  transition at x/c =  0.3645   44
 Side 2 forced transition at x/c =  1.0001   75

  94   rms: 0.9730E-02   max: -.1591E+00   C at   44  1
       a =  2.000      CL =  0.8039
      Cm = -0.0813     CD =  0.00960   =>   CDf =  0.00634    CDp =  0.00326

 Side 1  free  transition at x/c =  0.3645   44
 Side 2 forced transition at x/c =  1.0001   75

  95   rms: 0.9729E-02   max: -.1591E+00   C at   44  1
       a =  2.000      CL =  0.8039
      Cm = -0.0813     CD =  0.00960   =>   CDf =  0.00634    CDp =  0.00326

 Side 1  free  transition at x/c =  0.3645   44
 Side 2 forced transition at x/c =  1.0001   75

  96   rms: 0.9730E-02   max: -.1591E+00   C at   44  1
       a =  2.000      CL =  0.8039
      Cm = -0.0813     CD =  0.00960   =>   CDf =  0.00634    CDp =  0.00326

 Side 1  free  transition at x/c =  0.3645   44
 Side 2 forced transition at x/c =  1.0001   75

  97   rms: 0.9730E-02   max: -.1591E+00   C at   44  1
       a =  2.000      CL =  0.8039
      Cm = -0.0813     CD =  0.00960   =>   CDf =  0.00634    CDp =  0.00326

 Side 1  free  transition at x/c =  0.3645   44
 Side 2 forced transition at x/c =  1.0001   75

  98   rms: 0.9730E-02   max: -.1591E+00   C at   44  1
       a =  2.000      CL =  0.8039
      Cm = -0.0813     CD =  0.00960   =>   CDf =  0.00634    CDp =  0.00326

 Side 1  free  transition at x/c =  0.3645   44
 Side 2 forced transition at x/c =  1.0001   75

  99   rms: 0.9729E-02   max: -.1591E+00   C at   44  1
       a =  2.000      CL =  0.8039
      Cm = -0.0813     CD =  0.00960   =>   CDf =  0.00634    CDp =  0.00326

 Side 1  free  transition at x/c =  0.3645   44
 Side 2 forced transition at x/c =  1.0001   75

 100   rms: 0.9730E-02   max: -.1591E+00   C at   44  1
       a =  2.000      CL =  0.8039
      Cm = -0.0813     CD =  0.00960   =>   CDf =  0.00634    CDp =  0.00326

 Side 1  free  transition at x/c =  0.3645   44
 Side 2 forced transition at x/c =  1.0001   75

 101   rms: 0.9730E-02   max: -.1591E+00   C at   44  1
       a =  2.000      CL =  0.8039
      Cm = -0.0813     CD =  0.00960   =>   CDf =  0.00634    CDp =  0.00326

 Side 1  free  transition at x/c =  0.3645   44
 Side 2 forced transition at x/c =  1.0001   75

 102   rms: 0.9729E-02   max: -.1591E+00   C at   44  1
       a =  2.000      CL =  0.8039
      Cm = -0.0813     CD =  0.00960   =>   CDf =  0.00634    CDp =  0.00326

 Side 1  free  transition at x/c =  0.3645   44
 Side 2 forced transition at x/c =  1.0001   75

 103   rms: 0.9730E-02   max: -.1591E+00   C at   44  1
       a =  2.000      CL =  0.8039
      Cm = -0.0813     CD =  0.00960   =>   CDf =  0.00634    CDp =  0.00326

 Side 1  free  transition at x/c =  0.3645   44
 Side 2 forced transition at x/c =  1.0001   75

 104   rms: 0.9730E-02   max: -.1591E+00   C at   44  1
       a =  2.000      CL =  0.8039
      Cm = -0.0813     CD =  0.00960   =>   CDf =  0.00634    CDp =  0.00326

 Side 1  free  transition at x/c =  0.3645   44
 Side 2 forced transition at x/c =  1.0001   75

 105   rms: 0.9730E-02   max: -.1591E+00   C at   44  1
       a =  2.000      CL =  0.8039
      Cm = -0.0813     CD =  0.00960   =>   CDf =  0.00634    CDp =  0.00326

 Side 1  free  transition at x/c =  0.3645   44
 Side 2 forced transition at x/c =  1.0001   75

 106   rms: 0.9730E-02   max: -.1591E+00   C at   44  1
       a =  2.000      CL =  0.8039
      Cm = -0.0813     CD =  0.00960   =>   CDf =  0.00634    CDp =  0.00326

 Side 1  free  transition at x/c =  0.3645   44
 Side 2 forced transition at x/c =  1.0001   75

 107   rms: 0.9730E-02   max: -.1591E+00   C at   44  1
       a =  2.000      CL =  0.8039
      Cm = -0.0813     CD =  0.00960   =>   CDf =  0.00634    CDp =  0.00326

 Side 1  free  transition at x/c =  0.3645   44
 Side 2 forced transition at x/c =  1.0001   75

 108   rms: 0.9730E-02   max: -.1591E+00   C at   44  1
       a =  2.000      CL =  0.8039
      Cm = -0.0813     CD =  0.00960   =>   CDf =  0.00634    CDp =  0.00326

 Side 1  free  transition at x/c =  0.3645   44
 Side 2 forced transition at x/c =  1.0001   75

 109   rms: 0.9730E-02   max: -.1591E+00   C at   44  1
       a =  2.000      CL =  0.8039
      Cm = -0.0813     CD =  0.00960   =>   CDf =  0.00634    CDp =  0.00326

 Side 1  free  transition at x/c =  0.3645   44
 Side 2 forced transition at x/c =  1.0001   75

 110   rms: 0.9729E-02   max: -.1591E+00   C at   44  1
       a =  2.000      CL =  0.8039
      Cm = -0.0813     CD =  0.00960   =>   CDf =  0.00634    CDp =  0.00326

 Side 1  free  transition at x/c =  0.3645   44
 Side 2 forced transition at x/c =  1.0001   75

 111   rms: 0.9729E-02   max: -.1591E+00   C at   44  1
       a =  2.000      CL =  0.8039
      Cm = -0.0813     CD =  0.00960   =>   CDf =  0.00634    CDp =  0.00326

 Side 1  free  transition at x/c =  0.3645   44
 Side 2 forced transition at x/c =  1.0001   75

 112   rms: 0.9730E-02   max: -.1591E+00   C at   44  1
       a =  2.000      CL =  0.8039
      Cm = -0.0813     CD =  0.00960   =>   CDf =  0.00634    CDp =  0.00326

 Side 1  free  transition at x/c =  0.3645   44
 Side 2 forced transition at x/c =  1.0001   75

 113   rms: 0.9730E-02   max: -.1591E+00   C at   44  1
       a =  2.000      CL =  0.8039
      Cm = -0.0813     CD =  0.00960   =>   CDf =  0.00634    CDp =  0.00326

 Side 1  free  transition at x/c =  0.3645   44
 Side 2 forced transition at x/c =  1.0001   75

 114   rms: 0.9730E-02   max: -.1591E+00   C at   44  1
       a =  2.000      CL =  0.8039
      Cm = -0.0813     CD =  0.00960   =>   CDf =  0.00634    CDp =  0.00326

 Side 1  free  transition at x/c =  0.3645   44
 Side 2 forced transition at x/c =  1.0001   75

 115   rms: 0.9730E-02   max: -.1591E+00   C at   44  1
       a =  2.000      CL =  0.8039
      Cm = -0.0813     CD =  0.00960   =>   CDf =  0.00634    CDp =  0.00326

 Side 1  free  transition at x/c =  0.3645   44
 Side 2 forced transition at x/c =  1.0001   75

 116   rms: 0.9730E-02   max: -.1591E+00   C at   44  1
       a =  2.000      CL =  0.8039
      Cm = -0.0813     CD =  0.00960   =>   CDf =  0.00634    CDp =  0.00326

 Side 1  free  transition at x/c =  0.3645   44
 Side 2 forced transition at x/c =  1.0001   75

 117   rms: 0.9730E-02   max: -.1591E+00   C at   44  1
       a =  2.000      CL =  0.8039
      Cm = -0.0813     CD =  0.00960   =>   CDf =  0.00634    CDp =  0.00326

 Side 1  free  transition at x/c =  0.3645   44
 Side 2 forced transition at x/c =  1.0001   75

 118   rms: 0.9730E-02   max: -.1591E+00   C at   44  1
       a =  2.000      CL =  0.8039
      Cm = -0.0813     CD =  0.00960   =>   CDf =  0.00634    CDp =  0.00326

 Side 1  free  transition at x/c =  0.3645   44
 Side 2 forced transition at x/c =  1.0001   75

 119   rms: 0.9730E-02   max: -.1591E+00   C at   44  1
       a =  2.000      CL =  0.8039
      Cm = -0.0813     CD =  0.00960   =>   CDf =  0.00634    CDp =  0.00326

 Side 1  free  transition at x/c =  0.3645   44
 Side 2 forced transition at x/c =  1.0001   75

 120   rms: 0.9730E-02   max: -.1591E+00   C at   44  1
       a =  2.000      CL =  0.8039
      Cm = -0.0813     CD =  0.00960   =>   CDf =  0.00634    CDp =  0.00326

 Side 1  free  transition at x/c =  0.3645   44
 Side 2 forced transition at x/c =  1.0001   75

 121   rms: 0.9730E-02   max: -.1591E+00   C at   44  1
       a =  2.000      CL =  0.8039
      Cm = -0.0813     CD =  0.00960   =>   CDf =  0.00634    CDp =  0.00326

 Side 1  free  transition at x/c =  0.3645   44
 Side 2 forced transition at x/c =  1.0001   75

 122   rms: 0.9730E-02   max: -.1591E+00   C at   44  1
       a =  2.000      CL =  0.8039
      Cm = -0.0813     CD =  0.00960   =>   CDf =  0.00634    CDp =  0.00326

 Side 1  free  transition at x/c =  0.3645   44
 Side 2 forced transition at x/c =  1.0001   75

 123   rms: 0.9730E-02   max: -.1591E+00   C at   44  1
       a =  2.000      CL =  0.8039
      Cm = -0.0813     CD =  0.00960   =>   CDf =  0.00634    CDp =  0.00326

 Side 1  free  transition at x/c =  0.3645   44
 Side 2 forced transition at x/c =  1.0001   75

 124   rms: 0.9730E-02   max: -.1591E+00   C at   44  1
       a =  2.000      CL =  0.8039
      Cm = -0.0813     CD =  0.00960   =>   CDf =  0.00634    CDp =  0.00326

 Side 1  free  transition at x/c =  0.3645   44
 Side 2 forced transition at x/c =  1.0001   75

 125   rms: 0.9729E-02   max: -.1591E+00   C at   44  1
       a =  2.000      CL =  0.8039
      Cm = -0.0813     CD =  0.00960   =>   CDf =  0.00634    CDp =  0.00326

 Side 1  free  transition at x/c =  0.3645   44
 Side 2 forced transition at x/c =  1.0001   75

 126   rms: 0.9730E-02   max: -.1591E+00   C at   44  1
       a =  2.000      CL =  0.8039
      Cm = -0.0813     CD =  0.00960   =>   CDf =  0.00634    CDp =  0.00326

 Side 1  free  transition at x/c =  0.3645   44
 Side 2 forced transition at x/c =  1.0001   75

 127   rms: 0.9730E-02   max: -.1591E+00   C at   44  1
       a =  2.000      CL =  0.8039
      Cm = -0.0813     CD =  0.00960   =>   CDf =  0.00634    CDp =  0.00326

 Side 1  free  transition at x/c =  0.3645   44
 Side 2 forced transition at x/c =  1.0001   75

 128   rms: 0.9730E-02   max: -.1591E+00   C at   44  1
       a =  2.000      CL =  0.8039
      Cm = -0.0813     CD =  0.00960   =>   CDf =  0.00634    CDp =  0.00326

 Side 1  free  transition at x/c =  0.3645   44
 Side 2 forced transition at x/c =  1.0001   75

 129   rms: 0.9730E-02   max: -.1591E+00   C at   44  1
       a =  2.000      CL =  0.8039
      Cm = -0.0813     CD =  0.00960   =>   CDf =  0.00634    CDp =  0.00326

 Side 1  free  transition at x/c =  0.3645   44
 Side 2 forced transition at x/c =  1.0001   75

 130   rms: 0.9730E-02   max: -.1591E+00   C at   44  1
       a =  2.000      CL =  0.8039
      Cm = -0.0813     CD =  0.00960   =>   CDf =  0.00634    CDp =  0.00326

 Side 1  free  transition at x/c =  0.3645   44
 Side 2 forced transition at x/c =  1.0001   75

 131   rms: 0.9730E-02   max: -.1591E+00   C at   44  1
       a =  2.000      CL =  0.8039
      Cm = -0.0813     CD =  0.00960   =>   CDf =  0.00634    CDp =  0.00326

 Side 1  free  transition at x/c =  0.3645   44
 Side 2 forced transition at x/c =  1.0001   75

 132   rms: 0.9730E-02   max: -.1591E+00   C at   44  1
       a =  2.000      CL =  0.8039
      Cm = -0.0813     CD =  0.00960   =>   CDf =  0.00634    CDp =  0.00326

 Side 1  free  transition at x/c =  0.3645   44
 Side 2 forced transition at x/c =  1.0001   75

 133   rms: 0.9730E-02   max: -.1591E+00   C at   44  1
       a =  2.000      CL =  0.8039
      Cm = -0.0813     CD =  0.00960   =>   CDf =  0.00634    CDp =  0.00326

 Side 1  free  transition at x/c =  0.3645   44
[...]
 Calculating wake trajectory ...
 Calculating source influence matrix ...

 Solving BL system ...

 Side 1  free  transition at x/c =  0.0114   25
 Side 2 forced transition at x/c =  1.0001   66

   1   rms: 0.3983E-01   max: 0.1481E+00   D at   62  1   RLX: 0.599
       a = 13.250      CL =  1.3768
      Cm = -0.0404     CD =  0.06687   =>   CDf =  0.00568    CDp =  0.06118

 Side 1  free  transition at x/c =  0.0113   25
 Side 2 forced transition at x/c =  1.0001   66

   2   rms: 0.1685E-01   max: 0.7063E-01   D at   64  1
       a = 13.250      CL =  1.3717
      Cm = -0.0403     CD =  0.06858   =>   CDf =  0.00563    CDp =  0.06295

 Side 1  free  transition at x/c =  0.0112   25
 Side 2 forced transition at x/c =  1.0001   66

   3   rms: 0.2916E-02   max: 0.1380E-01   D at   81  2
       a = 13.250      CL =  1.3700
      Cm = -0.0403     CD =  0.06834   =>   CDf =  0.00559    CDp =  0.06275

 Side 1  free  transition at x/c =  0.0112   25
 Side 2 forced transition at x/c =  1.0001   66

   4   rms: 0.1614E-03   max: 0.1889E-02   D at   81  2
       a = 13.250      CL =  1.3700
      Cm = -0.0402     CD =  0.06828   =>   CDf =  0.00558    CDp =  0.06269

 Side 1  free  transition at x/c =  0.0112   25
 Side 2 forced transition at x/c =  1.0001   66

   5   rms: 0.2646E-04   max: -.8916E-04   D at   80  2
       a = 13.250      CL =  1.3700
      Cm = -0.0402     CD =  0.06828   =>   CDf =  0.00558    CDp =  0.06270
 plradd ia,ip,cpol           42           0  9.11571187E-05

 Point added to stored polar  1
 Point written to save file  n10_Re500k.base.pol                             
 Dump file unspecified or not available
 Calculating wake trajectory ...
 Calculating source influence matrix ...

 Solving BL system ...

 Side 1  free  transition at x/c =  0.0112   25
 Side 2 forced transition at x/c =  1.0001   66

   1   rms: 0.3935E-01   max: 0.1300E+00   D at   61  1   RLX: 0.572
       a = 13.500      CL =  1.3665
      Cm = -0.0402     CD =  0.07100   =>   CDf =  0.00559    CDp =  0.06542

 Side 1  free  transition at x/c =  0.0112   24
 Side 2 forced transition at x/c =  1.0001   66

   2   rms: 0.1498E-01   max: 0.5968E-01   D at   63  1
       a = 13.500      CL =  1.3667
      Cm = -0.0407     CD =  0.07244   =>   CDf =  0.00554    CDp =  0.06690

 Side 1  free  transition at x/c =  0.0111   24
 Side 2 forced transition at x/c =  1.0001   66

   3   rms: 0.2763E-02   max: 0.1304E-01   D at   81  2
       a = 13.500      CL =  1.3644
      Cm = -0.0405     CD =  0.07223   =>   CDf =  0.00549    CDp =  0.06673

 Side 1  free  transition at x/c =  0.0111   24
 Side 2 forced transition at x/c =  1.0001   66

   4   rms: 0.2266E-03   max: 0.1261E-02   D at   81  2
       a = 13.500      CL =  1.3642
      Cm = -0.0405     CD =  0.07219   =>   CDf =  0.00549    CDp =  0.06670

 Side 1  free  transition at x/c =  0.0111   24
 Side 2 forced transition at x/c =  1.0001   66

   5   rms: 0.1526E-04   max: 0.9825E-04   D at   81  2
       a = 13.500      CL =  1.3642
      Cm = -0.0405     CD =  0.07219   =>   CDf =  0.00549    CDp =  0.06670
 plradd ia,ip,cpol           43           0  9.11571187E-05

 Point added to stored polar  1
 Point written to save file  n10_Re500k.base.pol                             
 Dump file unspecified or not available
 Calculating wake trajectory ...
 Calculating source influence matrix ...

 Solving BL system ...

 Side 1  free  transition at x/c =  0.0111   24
 Side 2 forced transition at x/c =  1.0001   66

   1   rms: 0.3046E-01   max: 0.1074E+00   D at   60  1   RLX: 0.556
       a = 13.750      CL =  1.3659
      Cm = -0.0411     CD =  0.07444   =>   CDf =  0.00549    CDp =  0.06895

 Side 1  free  transition at x/c =  0.0111   24
 Side 2 forced transition at x/c =  1.0001   66

   2   rms: 0.1425E-01   max: 0.5561E-01   D at   61  1
       a = 13.750      CL =  1.3647
      Cm = -0.0414     CD =  0.07612   =>   CDf =  0.00543    CDp =  0.07069

 Side 1  free  transition at x/c =  0.0110   24
 Side 2 forced transition at x/c =  1.0001   66

   3   rms: 0.2976E-02   max: 0.1257E-01   D at   82  2
       a = 13.750      CL =  1.3624
      Cm = -0.0413     CD =  0.07596   =>   CDf =  0.00538    CDp =  0.07057

 Side 1  free  transition at x/c =  0.0110   24
 Side 2 forced transition at x/c =  1.0001   66

   4   rms: 0.2799E-03   max: 0.1603E-02   D at   82  2
       a = 13.750      CL =  1.3622
      Cm = -0.0413     CD =  0.07591   =>   CDf =  0.00538    CDp =  0.07052

 Side 1  free  transition at x/c =  0.0110   24
 Side 2 forced transition at x/c =  1.0001   66

   5   rms: 0.1455E-04   max: 0.1029E-03   D at   81  2
       a = 13.750      CL =  1.3622
      Cm = -0.0413     CD =  0.07590   =>   CDf =  0.00538    CDp =  0.07052
 plradd ia,ip,cpol           44           0  9.11571187E-05

 Point added to stored polar  1
 Point written to save file  n10_Re500k.base.pol                             
 Dump file unspecified or not available
 Calculating wake trajectory ...
 Calculating source influence matrix ...

 Solving BL system ...

 Side 1  free  transition at x/c =  0.0110   24
 Side 2 forced transition at x/c =  1.0001   66

   1   rms: 0.3003E-01   max: 0.1068E+00   D at   59  1   RLX: 0.538
       a = 14.000      CL =  1.3636
      Cm = -0.0419     CD =  0.07817   =>   CDf =  0.00538    CDp =  0.07278

 Side 1  free  transition at x/c =  0.0110   24
 Side 2 forced transition at x/c =  1.0001   66

   2   rms: 0.1446E-01   max: 0.5580E-01   D at   60  1
       a = 14.000      CL =  1.3625
      Cm = -0.0422     CD =  0.07994   =>   CDf =  0.00533    CDp =  0.07462

 Side 1  free  transition at x/c =  0.0109   24
 Side 2 forced transition at x/c =  1.0001   66

   3   rms: 0.3307E-02   max: 0.1516E-01   D at   60  1
       a = 14.000      CL =  1.3600
      Cm = -0.0422     CD =  0.07979   =>   CDf =  0.00528    CDp =  0.07452

 Side 1  free  transition at x/c =  0.0109   24
 Side 2 forced transition at x/c =  1.0001   66

   4   rms: 0.3257E-03   max: 0.2025E-02   D at   82  2
       a = 14.000      CL =  1.3598
      Cm = -0.0421     CD =  0.07973   =>   CDf =  0.00527    CDp =  0.07445

 Side 1  free  transition at x/c =  0.0109   24
 Side 2 forced transition at x/c =  1.0001   66

   5   rms: 0.1522E-04   max: 0.1222E-03   D at   82  2
       a = 14.000      CL =  1.3597
      Cm = -0.0421     CD =  0.07972   =>   CDf =  0.00527    CDp =  0.07445
 plradd ia,ip,cpol           45           0  9.11571187E-05

 Point added to stored polar  1
 Point written to save file  n10_Re500k.base.pol                             
 Dump file unspecified or not available
 Calculating wake trajectory ...
 Calculating source influence matrix ...

 Solving BL system ...

 Side 1  free  transition at x/c =  0.0109   24
 Side 2 forced transition at x/c =  1.0001   66

   1   rms: 0.2946E-01   max: 0.1046E+00   D at   58  1   RLX: 0.520
       a = 14.250      CL =  1.3608
      Cm = -0.0427     CD =  0.08196   =>   CDf =  0.00528    CDp =  0.07669

 Side 1  free  transition at x/c =  0.0109   24
 Side 2 forced transition at x/c =  1.0001   66

   2   rms: 0.1468E-01   max: 0.5648E-01   D at   59  1
       a = 14.250      CL =  1.3598
      Cm = -0.0431     CD =  0.08384   =>   CDf =  0.00522    CDp =  0.07862

 Side 1  free  transition at x/c =  0.0108   24
 Side 2 forced transition at x/c =  1.0001   66

   3   rms: 0.3475E-02   max: 0.1494E-01   D at   82  2
       a = 14.250      CL =  1.3573
      Cm = -0.0431     CD =  0.08369   =>   CDf =  0.00517    CDp =  0.07852

 Side 1  free  transition at x/c =  0.0108   24
 Side 2 forced transition at x/c =  1.0001   66

   4   rms: 0.3710E-03   max: 0.3230E-02   D at   82  2
       a = 14.250      CL =  1.3570
      Cm = -0.0430     CD =  0.08362   =>   CDf =  0.00517    CDp =  0.07845

 Side 1  free  transition at x/c =  0.0108   24
 Side 2 forced transition at x/c =  1.0001   66

   5   rms: 0.1707E-04   max: 0.1950E-03   D at   82  2
       a = 14.250      CL =  1.3570
      Cm = -0.0430     CD =  0.08361   =>   CDf =  0.00517    CDp =  0.07844
 plradd ia,ip,cpol           46           0  9.11571187E-05

 Point added to stored polar  1
 Point written to save file  n10_Re500k.base.pol                             
 Dump file unspecified or not available
 Calculating wake trajectory ...
 Calculating source influence matrix ...

 Solving BL system ...

 Side 1  free  transition at x/c =  0.0108   24
 Side 2 forced transition at x/c =  1.0001   66

   1   rms: 0.2881E-01   max: 0.1006E+00   D at   57  1   RLX: 0.504
       a = 14.500      CL =  1.3580
      Cm = -0.0436     CD =  0.08580   =>   CDf =  0.00517    CDp =  0.08063

 Side 1  free  transition at x/c =  0.0108   24
 Side 2 forced transition at x/c =  1.0001   66

   2   rms: 0.1496E-01   max: 0.5775E-01   D at   58  1
       a = 14.500      CL =  1.3569
      Cm = -0.0441     CD =  0.08782   =>   CDf =  0.00512    CDp =  0.08270

 Side 1  free  transition at x/c =  0.0107   24
 Side 2 forced transition at x/c =  1.0001   66

   3   rms: 0.3593E-02   max: 0.1520E-01   D at   82  2
       a = 14.500      CL =  1.3543
      Cm = -0.0440     CD =  0.08763   =>   CDf =  0.00506    CDp =  0.08257

 Side 1  free  transition at x/c =  0.0107   24
 Side 2 forced transition at x/c =  1.0001   66

   4   rms: 0.3472E-03   max: 0.2139E-02   D at   82  2
       a = 14.500      CL =  1.3540
      Cm = -0.0439     CD =  0.08754   =>   CDf =  0.00506    CDp =  0.08248

 Side 1  free  transition at x/c =  0.0107   24
 Side 2 forced transition at x/c =  1.0001   66

   5   rms: 0.1215E-04   max: 0.1138E-03   D at   82  2
       a = 14.500      CL =  1.3540
      Cm = -0.0439     CD =  0.08754   =>   CDf =  0.00506    CDp =  0.08247
 plradd ia,ip,cpol           47           0  9.11571187E-05

 Point added to stored polar  1
 Point written to save file  n10_Re500k.base.pol                             
 Dump file unspecified or not available
 Calculating wake trajectory ...
 Calculating source influence matrix ...

 Solving BL system ...

 Side 1  free  transition at x/c =  0.0107   24
 Side 2 forced transition at x/c =  1.0001   66

   1   rms: 0.2839E-01   max: 0.9900E-01   D at   56  1   RLX: 0.489
       a = 14.750      CL =  1.3550
      Cm = -0.0445     CD =  0.08971   =>   CDf =  0.00507    CDp =  0.08465

 Side 1  free  transition at x/c =  0.0107   24
 Side 2 forced transition at x/c =  1.0001   66

   2   rms: 0.1518E-01   max: 0.5858E-01   D at   57  1
       a = 14.750      CL =  1.3539
      Cm = -0.0451     CD =  0.09187   =>   CDf =  0.00501    CDp =  0.08685

 Side 1  free  transition at x/c =  0.0106   24
 Side 2 forced transition at x/c =  1.0001   66

   3   rms: 0.3735E-02   max: 0.1457E-01   D at   82  2
       a = 14.750      CL =  1.3512
      Cm = -0.0450     CD =  0.09164   =>   CDf =  0.00496    CDp =  0.08669

 Side 1  free  transition at x/c =  0.0106   24
 Side 2 forced transition at x/c =  1.0001   66

   4   rms: 0.3450E-03   max: 0.2112E-02   D at   82  2
       a = 14.750      CL =  1.3509
      Cm = -0.0450     CD =  0.09155   =>   CDf =  0.00496    CDp =  0.08659

 Side 1  free  transition at x/c =  0.0106   24
 Side 2 forced transition at x/c =  1.0001   66

   5   rms: 0.1058E-04   max: 0.9065E-04   D at   82  2
       a = 14.750      CL =  1.3509
      Cm = -0.0450     CD =  0.09154   =>   CDf =  0.00496    CDp =  0.08658
 plradd ia,ip,cpol           48           0  9.11571187E-05

 Point added to stored polar  1
 Point written to save file  n10_Re500k.base.pol                             
 Dump file unspecified or not available
 Calculating wake trajectory ...
 Calculating source influence matrix ...

 Solving BL system ...

 Side 1  free  transition at x/c =  0.0106   24
 Side 2 forced transition at x/c =  1.0001   66

   1   rms: 0.2801E-01   max: 0.9841E-01   D at   55  1   RLX: 0.474
       a = 15.000      CL =  1.3518
      Cm = -0.0456     CD =  0.09369   =>   CDf =  0.00496    CDp =  0.08873

 Side 1  free  transition at x/c =  0.0105   24
 Side 2 forced transition at x/c =  1.0001   66

   2   rms: 0.1534E-01   max: 0.5917E-01   D at   56  1
       a = 15.000      CL =  1.3508
      Cm = -0.0463     CD =  0.09596   =>   CDf =  0.00491    CDp =  0.09105

 Side 1  free  transition at x/c =  0.0104   24
 Side 2 forced transition at x/c =  1.0001   66

   3   rms: 0.3794E-02   max: 0.1537E-01   D at   83  2
       a = 15.000      CL =  1.3481
      Cm = -0.0462     CD =  0.09574   =>   CDf =  0.00485    CDp =  0.09089

 Side 1  free  transition at x/c =  0.0104   24
 Side 2 forced transition at x/c =  1.0001   66

   4   rms: 0.3431E-03   max: 0.2377E-02   D at   83  2
       a = 15.000      CL =  1.3478
      Cm = -0.0461     CD =  0.09564   =>   CDf =  0.00485    CDp =  0.09078

 Side 1  free  transition at x/c =  0.0105   24
 Side 2 forced transition at x/c =  1.0001   66

   5   rms: 0.1142E-04   max: 0.7423E-04   D at   83  2
       a = 15.000      CL =  1.3478
      Cm = -0.0461     CD =  0.09563   =>   CDf =  0.00485    CDp =  0.09078
 plradd ia,ip,cpol           49           0  9.11571187E-05

 Point added to stored polar  1
 Point written to save file  n10_Re500k.base.pol                             
 Dump file unspecified or not available
 Calculating wake trajectory ...
 Calculating source influence matrix ...

 Solving BL system ...

 Side 1  free  transition at x/c =  0.0105   24
 Side 2 forced transition at x/c =  1.0001   66

   1   rms: 0.2762E-01   max: 0.9748E-01   D at   54  1   RLX: 0.460
       a = 15.250      CL =  1.3485
      Cm = -0.0468     CD =  0.09776   =>   CDf =  0.00442    CDp =  0.09335

 Side 1  free  transition at x/c =  0.0104   25
 Side 2 forced transition at x/c =  1.0001   65

   2   rms: 0.4940E-01   max: 0.8129E+00   T at    2  1
       a = 15.250      CL =  1.3476
      Cm = -0.0475     CD =  0.10010   =>   CDf =  0.00480    CDp =  0.09531

 Side 1  free  transition at x/c =  0.0103   25
 Side 2 forced transition at x/c =  1.0001   65

   3   rms: 0.4179E-02   max: 0.2119E-01   D at    4  1
       a = 15.250      CL =  1.3448
      Cm = -0.0474     CD =  0.09988   =>   CDf =  0.00474    CDp =  0.09514

 Side 1  free  transition at x/c =  0.0103   25
 Side 2 forced transition at x/c =  1.0001   65

   4   rms: 0.3541E-03   max: 0.2324E-02   D at   82  2
       a = 15.250      CL =  1.3445
      Cm = -0.0474     CD =  0.09977   =>   CDf =  0.00474    CDp =  0.09504

 Side 1  free  transition at x/c =  0.0103   25
 Side 2 forced transition at x/c =  1.0001   65

   5   rms: 0.1054E-04   max: 0.9942E-04   D at   82  2
       a = 15.250      CL =  1.3445
      Cm = -0.0474     CD =  0.09976   =>   CDf =  0.00474    CDp =  0.09503
 plradd ia,ip,cpol           50           0  9.11571187E-05

 Point added to stored polar  1
 Point written to save file  n10_Re500k.base.pol                             
 Dump file unspecified or not available
 Calculating wake trajectory ...
 Calculating source influence matrix ...

 Solving BL system ...

 Side 1  free  transition at x/c =  0.0103   25
 Side 2 forced transition at x/c =  1.0001   65

   1   rms: 0.2721E-01   max: 0.9752E-01   D at   54  1   RLX: 0.447
       a = 15.500      CL =  1.3450
      Cm = -0.0480     CD =  0.10192   =>   CDf =  0.00474    CDp =  0.09718

 Side 1  free  transition at x/c =  0.0102   25
 Side 2 forced transition at x/c =  1.0001   65

   2   rms: 0.1540E-01   max: 0.5837E-01   D at   55  1
       a = 15.500      CL =  1.3441
      Cm = -0.0488     CD =  0.10436   =>   CDf =  0.00469    CDp =  0.09967

 Side 1  free  transition at x/c =  0.0101   25
 Side 2 forced transition at x/c =  1.0001   65

   3   rms: 0.3842E-02   max: 0.1816E-01   D at   82  2
       a = 15.500      CL =  1.3415
      Cm = -0.0487     CD =  0.10406   =>   CDf =  0.00464    CDp =  0.09943

 Side 1  free  transition at x/c =  0.0101   25
 Side 2 forced transition at x/c =  1.0001   65

   4   rms: 0.3772E-03   max: 0.3110E-02   D at   82  2
       a = 15.500      CL =  1.3412
      Cm = -0.0487     CD =  0.10394   =>   CDf =  0.00463    CDp =  0.09931

 Side 1  free  transition at x/c =  0.0101   25
 Side 2 forced transition at x/c =  1.0001   65

   5   rms: 0.1229E-04   max: 0.1156E-03   D at   82  2
       a = 15.500      CL =  1.3412
      Cm = -0.0487     CD =  0.10393   =>   CDf =  0.00463    CDp =  0.09930
 plradd ia,ip,cpol           51           0  9.11571187E-05

 Point added to stored polar  1
 Point written to save file  n10_Re500k.base.pol                             
 Dump file unspecified or not available
 Calculating wake trajectory ...
 Calculating source influence matrix ...

 Solving BL system ...

 Side 1  free  transition at x/c =  0.0101   25
 Side 2 forced transition at x/c =  1.0001   65

   1   rms: 0.2700E-01   max: 0.9880E-01   D at   53  1   RLX: 0.435
       a = 15.750      CL =  1.3415
      Cm = -0.0494     CD =  0.10609   =>   CDf =  0.00464    CDp =  0.10145

 Side 1  free  transition at x/c =  0.0101   25
 Side 2 forced transition at x/c =  1.0001   65

   2   rms: 0.1570E-01   max: 0.6061E-01   D at   54  1
       a = 15.750      CL =  1.3404
      Cm = -0.0503     CD =  0.10869   =>   CDf =  0.00459    CDp =  0.10410

 Side 1  free  transition at x/c =  0.0100   25
 Side 2 forced transition at x/c =  1.0001   65

   3   rms: 0.3513E-02   max: 0.1369E-01   D at   82  2
       a = 15.750      CL =  1.3378
      Cm = -0.0502     CD =  0.10830   =>   CDf =  0.00453    CDp =  0.10377

 Side 1  free  transition at x/c =  0.0100   25
 Side 2 forced transition at x/c =  1.0001   65

   4   rms: 0.2943E-03   max: 0.1909E-02   D at   82  2
       a = 15.750      CL =  1.3376
      Cm = -0.0501     CD =  0.10818   =>   CDf =  0.00453    CDp =  0.10365

 Side 1  free  transition at x/c =  0.0100   25
 Side 2 forced transition at x/c =  1.0001   65

   5   rms: 0.1041E-04   max: 0.6815E-04   D at   82  2
       a = 15.750      CL =  1.3376
      Cm = -0.0501     CD =  0.10818   =>   CDf =  0.00453    CDp =  0.10364
 plradd ia,ip,cpol           52           0  9.11571187E-05

 Point added to stored polar  1
 Point written to save file  n10_Re500k.base.pol                             
 Dump file unspecified or not available
 Calculating wake trajectory ...
 Calculating source influence matrix ...

 Solving BL system ...

 Side 1  free  transition at x/c =  0.0100   25
 Side 2 forced transition at x/c =  1.0001   65

   1   rms: 0.2682E-01   max: 0.9984E-01   D at   52  1   RLX: 0.423
       a = 16.000      CL =  1.3378
      Cm = -0.0509     CD =  0.11035   =>   CDf =  0.00454    CDp =  0.10582

 Side 1  free  transition at x/c =  0.0099   25
 Side 2 forced transition at x/c =  1.0001   65

   2   rms: 0.1600E-01   max: 0.6259E-01   D at   53  1
       a = 16.000      CL =  1.3366
      Cm = -0.0519     CD =  0.11313   =>   CDf =  0.00449    CDp =  0.10864

 Side 1  free  transition at x/c =  0.0098   25
 Side 2 forced transition at x/c =  1.0001   65

   3   rms: 0.3374E-02   max: 0.1376E-01   D at   83  2
       a = 16.000      CL =  1.3341
      Cm = -0.0517     CD =  0.11263   =>   CDf =  0.00443    CDp =  0.10819

 Side 1  free  transition at x/c =  0.0098   25
 Side 2 forced transition at x/c =  1.0001   65

   4   rms: 0.2425E-03   max: 0.1687E-02   D at   82  2
       a = 16.000      CL =  1.3339
      Cm = -0.0517     CD =  0.11250   =>   CDf =  0.00443    CDp =  0.10806

 Side 1  free  transition at x/c =  0.0098   25
 Side 2 forced transition at x/c =  1.0001   65

   5   rms: 0.1194E-04   max: -.4075E-04   D at   52  1
       a = 16.000      CL =  1.3339
      Cm = -0.0517     CD =  0.11249   =>   CDf =  0.00443    CDp =  0.10806
 plradd ia,ip,cpol           53           0  9.11571187E-05

 Point added to stored polar  1
 Point written to save file  n10_Re500k.base.pol                             
 Dump file unspecified or not available

.OPERva   c>  
 Polar accumulation disabled

.OPERv   c>  
 XFOIL   c>  
 XFOIL   c>  