
 ===================================================
  XFOIL Version 6.99
  Copyright (C) 2000   Mark Drela, Harold Youngren

  This software comes with ABSOLUTELY NO WARRANTY,
    subject to the GNU General Public License.

  Caveat computor
 ===================================================

 File  xfoil.def  not found

   QUIT    Exit program

  .OPER    Direct operating point(s)
  .MDES    Complex mapping design routine
  .QDES    Surface speed design routine
  .GDES    Geometry design routine

   SAVE f  Write airfoil to labeled coordinate file
   PSAV f  Write airfoil to plain coordinate file
   ISAV f  Write airfoil to ISES coordinate file
   MSAV f  Write airfoil to MSES coordinate file
   REVE    Reverse written-airfoil node ordering

   LOAD f  Read buffer airfoil from coordinate file
   NACA i  Set NACA 4,5-digit airfoil and buffer airfoil
   INTE    Set buffer airfoil by interpolating two airfoils
   NORM    Buffer airfoil normalization toggle
   XYCM rr Change CM reference location, currently  0.25000 0.00000

   BEND    Display structural properties of current airfoil

   PCOP    Set current-airfoil panel nodes directly from buffer airfoil points
   PANE    Set current-airfoil panel nodes ( 160 ) based on curvature
  .PPAR    Show/change paneling

  .PLOP    Plotting options

   WDEF f  Write  current-settings file
   RDEF f  Reread current-settings file
   NAME s  Specify new airfoil name
   NINC    Increment name version number

   Z       Zoom    | (available in all menus)
   U       Unzoom  | 

 XFOIL   c>  
 Labeled airfoil file.  Name:  N-11                                            

 Number of input coordinate points:  33
 Counterclockwise ordering
 Max thickness =     0.109473  at x =   0.297
 Max camber    =     0.042642  at x =   0.402

  LE  x,y  =  -0.00009   0.02452  |   Chord =   1.00036
  TE  x,y  =   1.00000   0.00100  |

 Current airfoil nodes set from buffer airfoil nodes (  33 )

 WARNING: Poor input coordinate distribution
          Excessive panel angle   74.6  at i =  17
          Repaneling with PANE and/or PPAR suggested
           (doing GDES,CADD before repaneling _may_
            improve excessively coarse LE spacing

 XFOIL   c>  
 XFOIL   c>  
 Blunt trailing edge.  Gap =  0.00200

 Paneling parameters used...
   Number of panel nodes       160
   Panel bunching parameter    1.000
   TE/LE panel density ratio   0.150
   Refined-area/LE panel density ratio    0.200
   Top    side refined area x/c limits  1.000 1.000
   Bottom side refined area x/c limits  1.000 1.000

 XFOIL   c>  
.OPERi   c>  
 Xtr/c     =  1.0000    top    side
 Xtr/c     =  1.0000    bottom side
 Ncrit     =    9.00   ( 0.070 % turb. level )
 Vacc      =  0.0100

 Klag  =  5.6000     Uxwt  =    1.00
 A     =  6.7000     B     =  0.7500       KCt = 0.01485
 CtiniK=  1.8000     CtiniX=  3.3000

..VPAR   c>  
..VPAR   c>  
.OPERi   c>  
 M  =    0.0000
 Re =    200000

.OPERv   c>  
.OPERv   c>  
.OPERv   c>  
 Polar  1 newly created for accumulation
 Airfoil archived with polar: N-11                                            

Enter  polar save filename  OR  <return> for no file   s>  
 New polar save file available

Enter  polar dump filename  OR  <return> for no file   s>  
 Polar dump file will NOT be written

 Polar accumulation enabled

.OPERva   c>   Calculating unit vorticity distributions ...
 Calculating wake trajectory ...
 Calculating source influence matrix ...

 Solving BL system ...

 Initializing BL ...
    side            1  ...
 MRCHUE: Inverse mode at  57     Hk =   3.892
 MRCHUE: Inverse mode at  58     Hk =   4.250
 MRCHUE: Inverse mode at  59     Hk =   4.606
 MRCHUE: Inverse mode at  60     Hk =   4.959
 MRCHUE: Inverse mode at  61     Hk =   5.311
 MRCHUE: Inverse mode at  62     Hk =   5.659
 MRCHUE: Inverse mode at  63     Hk =   6.004
 MRCHUE: Inverse mode at  64     Hk =   6.342
 MRCHUE: Inverse mode at  65     Hk =   6.671
 MRCHUE: Inverse mode at  66     Hk =   6.993
 MRCHUE: Inverse mode at  67     Hk =   7.306
 MRCHUE: Inverse mode at  68     Hk =   7.614
 MRCHUE: Inverse mode at  69     Hk =   7.919
 MRCHUE: Inverse mode at  70     Hk =   8.225
 MRCHUE: Inverse mode at  71     Hk =   7.976
 MRCHUE: Inverse mode at  72     Hk =   6.544
 MRCHUE: Inverse mode at  73     Hk =   5.505
 MRCHUE: Inverse mode at  74     Hk =   4.733
 MRCHUE: Inverse mode at  75     Hk =   4.155
 MRCHUE: Inverse mode at  76     Hk =   3.713
 MRCHUE: Inverse mode at  77     Hk =   3.366
 MRCHUE: Convergence failed at  78  side 1    Res =  0.5839E+01
    side            2  ...
 MRCHUE: Inverse mode at  18     Hk =   3.800
 MRCHUE: Convergence failed at  19  side 2    Res =  0.1216E+01
 MRCHUE: Inverse mode at  20     Hk =   4.824
 MRCHUE: Inverse mode at  21     Hk =   5.867
 MRCHUE: Inverse mode at  22     Hk =   6.878
 MRCHUE: Inverse mode at  23     Hk =   7.857
 MRCHUE: Inverse mode at  24     Hk =   8.882
 MRCHUE: Inverse mode at  25     Hk =   9.787
 MRCHUE: Inverse mode at  26     Hk =   4.386
 MRCHUE: Inverse mode at  27     Hk =   2.500
 MRCHUE: Inverse mode at  84     Hk =   2.500

 MRCHDU: Convergence failed at  78  side 1    Res =  0.6654E+01
 MRCHDU: Convergence failed at  26  side 2    Res =  0.1375E+02
 MRCHDU: Convergence failed at  27  side 2    Res =  0.7819E+02
 MRCHDU: Convergence failed at  28  side 2    Res =  0.1915E+02
 MRCHDU: Convergence failed at  29  side 2    Res =  0.3685E+02
 MRCHDU: Convergence failed at  30  side 2    Res =  0.4459E+02
 MRCHDU: Convergence failed at  31  side 2    Res =  0.4588E+02
 MRCHDU: Convergence failed at  32  side 2    Res =  0.3951E+02
 MRCHDU: Convergence failed at  33  side 2    Res =  0.3344E+02
 MRCHDU: Convergence failed at  34  side 2    Res =  0.2961E+02
 MRCHDU: Convergence failed at  35  side 2    Res =  0.2664E+02
 MRCHDU: Convergence failed at  36  side 2    Res =  0.2467E+02
 MRCHDU: Convergence failed at  37  side 2    Res =  0.2270E+02
 MRCHDU: Convergence failed at  38  side 2    Res =  0.2179E+02
 MRCHDU: Convergence failed at  39  side 2    Res =  0.2055E+02
 MRCHDU: Convergence failed at  40  side 2    Res =  0.2004E+02
 MRCHDU: Convergence failed at  41  side 2    Res =  0.1934E+02
 MRCHDU: Convergence failed at  42  side 2    Res =  0.1899E+02
 MRCHDU: Convergence failed at  43  side 2    Res =  0.1856E+02
 MRCHDU: Convergence failed at  44  side 2    Res =  0.1828E+02
 MRCHDU: Convergence failed at  45  side 2    Res =  0.1664E+02
 MRCHDU: Convergence failed at  46  side 2    Res =  0.1691E+02
 MRCHDU: Convergence failed at  47  side 2    Res =  0.1717E+02
 MRCHDU: Convergence failed at  48  side 2    Res =  0.1846E+02
 MRCHDU: Convergence failed at  49  side 2    Res =  0.2207E+02
 MRCHDU: Convergence failed at  50  side 2    Res =  0.1801E+02
 MRCHDU: Convergence failed at  51  side 2    Res =  0.1840E+02
 MRCHDU: Convergence failed at  52  side 2    Res =  0.1897E+02
 MRCHDU: Convergence failed at  53  side 2    Res =  0.1960E+02
 MRCHDU: Convergence failed at  54  side 2    Res =  0.2029E+02
 MRCHDU: Convergence failed at  55  side 2    Res =  0.2098E+02
 MRCHDU: Convergence failed at  56  side 2    Res =  0.2161E+02
 MRCHDU: Convergence failed at  57  side 2    Res =  0.2217E+02
 MRCHDU: Convergence failed at  58  side 2    Res =  0.2250E+02
 MRCHDU: Convergence failed at  59  side 2    Res =  0.2262E+02
 MRCHDU: Convergence failed at  60  side 2    Res =  0.2264E+02
 MRCHDU: Convergence failed at  61  side 2    Res =  0.2260E+02
 MRCHDU: Convergence failed at  62  side 2    Res =  0.2255E+02
 MRCHDU: Convergence failed at  63  side 2    Res =  0.2252E+02
 MRCHDU: Convergence failed at  64  side 2    Res =  0.2254E+02
 MRCHDU: Convergence failed at  65  side 2    Res =  0.2273E+02
 MRCHDU: Convergence failed at  66  side 2    Res =  0.2297E+02
 MRCHDU: Convergence failed at  67  side 2    Res =  0.2323E+02
 MRCHDU: Convergence failed at  68  side 2    Res =  0.2359E+02
 MRCHDU: Convergence failed at  69  side 2    Res =  0.2387E+02
 MRCHDU: Convergence failed at  70  side 2    Res =  0.2428E+02
 MRCHDU: Convergence failed at  71  side 2    Res =  0.2471E+02
 MRCHDU: Convergence failed at  72  side 2    Res =  0.2511E+02
 MRCHDU: Convergence failed at  73  side 2    Res =  0.2566E+02
 MRCHDU: Convergence failed at  74  side 2    Res =  0.2630E+02
 MRCHDU: Convergence failed at  75  side 2    Res =  0.2721E+02
 MRCHDU: Convergence failed at  76  side 2    Res =  0.2842E+02
 MRCHDU: Convergence failed at  77  side 2    Res =  0.6350E+02
 MRCHDU: Convergence failed at  78  side 2    Res =  0.6677E+02
 MRCHDU: Convergence failed at  79  side 2    Res =  0.3887E+02
 MRCHDU: Convergence failed at  80  side 2    Res =  0.4796E+02
 MRCHDU: Convergence failed at  81  side 2    Res =  0.6706E+02
 MRCHDU: Convergence failed at  82  side 2    Res =  0.1250E+03
 MRCHDU: Convergence failed at  83  side 2    Res =  0.1232E+03
 MRCHDU: Convergence failed at  84  side 2    Res =  0.4934E+02
 Side 1  free  transition at x/c =  0.9131   71
 Side 2  free  transition at x/c =  0.0897   26

   1   rms: 0.8243E+00   max: 0.3478E+01   D at   86  2   RLX: 0.431
       a = -4.000      CL = -0.2195
      Cm =  0.0303     CD =  0.00684   =>   CDf =  0.00345    CDp =  0.00339

 Side 1  free  transition at x/c =  0.9332   73
 Side 2  free  transition at x/c =  0.0856   25

   2   rms: 0.3502E+00   max: 0.1522E+01   T at   25  2   RLX: 0.371
       a = -4.000      CL =  0.0642
      Cm = -0.0649     CD =  0.01796   =>   CDf =  0.00555    CDp =  0.01240

 Side 1  free  transition at x/c =  0.9264   72
 Side 2  free  transition at x/c =  0.0784   25

   3   rms: 0.3701E+00   max: -.1387E+01   D at   40  2   RLX: 0.361
       a = -4.000      CL =  0.0830
      Cm = -0.0791     CD =  0.01854   =>   CDf =  0.00527    CDp =  0.01327

 Side 1  free  transition at x/c =  0.9013   70
 Side 2  free  transition at x/c =  0.0734   25

   4   rms: 0.5049E+00   max: -.2460E+01   D at   36  2   RLX: 0.203
       a = -4.000      CL =  0.0738
      Cm = -0.0812     CD =  0.01788   =>   CDf =  0.00543    CDp =  0.01245

 MRCHDU: Convergence failed at  33  side 2    Res =  0.3081E+00
 Side 1  free  transition at x/c =  0.8874   69
 Side 2  free  transition at x/c =  0.0717   24

   5   rms: 0.5075E+00   max: -.2515E+01   D at   46  2   RLX: 0.199
       a = -4.000      CL =  0.0560
      Cm = -0.0820     CD =  0.01774   =>   CDf =  0.00600    CDp =  0.01175

 MRCHDU: Convergence failed at  42  side 2    Res =  0.3965E+00
 Side 1  free  transition at x/c =  0.8789   69
 Side 2  free  transition at x/c =  0.0710   24

   6   rms: 0.4244E+00   max: -.1814E+01   D at   62  2   RLX: 0.276
       a = -4.000      CL =  0.0649
      Cm = -0.0869     CD =  0.01673   =>   CDf =  0.00659    CDp =  0.01013

 Side 1  free  transition at x/c =  0.8774   69
 Side 2  free  transition at x/c =  0.0707   24
 idif Ue xi dudx           1  0.16299297      2.74896622E-03   59.292461    
 Uenew xinew           2  2.99904235E-02  5.05805016E-04

   7   rms: 0.4130E+00   max: -.2008E+01   D at   78  2   RLX: 0.249
       a = -4.000      CL =  0.0377
      Cm = -0.0831     CD =  0.01657   =>   CDf =  0.00710    CDp =  0.00946

 Side 1  free  transition at x/c =  0.8728   67
 Side 2  free  transition at x/c =  0.0695   25

   8   rms: 0.5678E+01   max: 0.4074E+02   T at   67  1   RLX: 0.018
       a = -4.000      CL = -0.0341
      Cm = -0.0702     CD =  0.01841   =>   CDf =  0.00776    CDp =  0.01065

 Side 1  free  transition at x/c =  0.8438   66
 Side 2  free  transition at x/c =  0.0668   25

   9   rms: 0.2456E+00   max: -.4809E+00   D at   86  2   RLX: 0.592
       a = -4.000      CL =  0.0839
      Cm = -0.0880     CD =  0.01840   =>   CDf =  0.00770    CDp =  0.01070

 Side 1  free  transition at x/c =  0.8617   67
 Side 2  free  transition at x/c =  0.0698   25

  10   rms: 0.1491E+00   max: -.6415E+00   D at   52  2   RLX: 0.779
       a = -4.000      CL =  0.1686
      Cm = -0.1024     CD =  0.01650   =>   CDf =  0.00769    CDp =  0.00881

 Side 1  free  transition at x/c =  0.8790   69
 Side 2  free  transition at x/c =  0.0716   24

  11   rms: 0.4955E-01   max: -.2876E+00   D at   51  2
       a = -4.000      CL =  0.1959
      Cm = -0.1073     CD =  0.01545   =>   CDf =  0.00773    CDp =  0.00772

 Side 1  free  transition at x/c =  0.8886   70
 Side 2  free  transition at x/c =  0.0722   24

  12   rms: 0.3427E-02   max: -.2789E-01   D at   51  2
       a = -4.000      CL =  0.1963
      Cm = -0.1073     CD =  0.01546   =>   CDf =  0.00776    CDp =  0.00770

 Side 1  free  transition at x/c =  0.8886   70
 Side 2  free  transition at x/c =  0.0722   24

  13   rms: 0.1426E-03   max: -.1046E-02   D at   78  1
       a = -4.000      CL =  0.1962
      Cm = -0.1073     CD =  0.01546   =>   CDf =  0.00776    CDp =  0.00771

 Side 1  free  transition at x/c =  0.8886   70
 Side 2  free  transition at x/c =  0.0722   24

  14   rms: 0.6916E-06   max: 0.4004E-05   D at   25  2
       a = -4.000      CL =  0.1962
      Cm = -0.1073     CD =  0.01546   =>   CDf =  0.00776    CDp =  0.00771
 plradd ia,ip,cpol            1           0  1.21662803E-02

 Point added to stored polar  1
 Point written to save file  n11_Re200k.base.pol                             
 Dump file unspecified or not available
 Calculating wake trajectory ...
 Calculating source influence matrix ...

 Solving BL system ...

 Side 1  free  transition at x/c =  0.8886   70
 Side 2  free  transition at x/c =  0.0722   24

   1   rms: 0.1144E+00   max: -.3502E+00   T at   24  2
       a = -3.500      CL =  0.2698
      Cm = -0.1096     CD =  0.01394   =>   CDf =  0.00775    CDp =  0.00619

 MRCHDU: Convergence failed at  24  side 2    Res =  0.2660E+01
 MRCHDU: Convergence failed at  25  side 2    Res =  0.4520E+01
 MRCHDU: Convergence failed at  26  side 2    Res =  0.1532E+03
 MRCHDU: Convergence failed at  27  side 2    Res =  0.2678E+02
 MRCHDU: Convergence failed at  28  side 2    Res =  0.3025E+02
 MRCHDU: Convergence failed at  29  side 2    Res =  0.5163E+02
 MRCHDU: Convergence failed at  30  side 2    Res =  0.9163E+02
 MRCHDU: Convergence failed at  31  side 2    Res =  0.1954E+03
 MRCHDU: Convergence failed at  32  side 2    Res =  0.6356E+02
 MRCHDU: Convergence failed at  33  side 2    Res =  0.4125E+02
 MRCHDU: Convergence failed at  34  side 2    Res =  0.3296E+02
 MRCHDU: Convergence failed at  35  side 2    Res =  0.2797E+02
 MRCHDU: Convergence failed at  36  side 2    Res =  0.2569E+02
 MRCHDU: Convergence failed at  37  side 2    Res =  0.2333E+02
 MRCHDU: Convergence failed at  38  side 2    Res =  0.2146E+02
 MRCHDU: Convergence failed at  39  side 2    Res =  0.1998E+02
 MRCHDU: Convergence failed at  40  side 2    Res =  0.1874E+02
 MRCHDU: Convergence failed at  41  side 2    Res =  0.1782E+02
 MRCHDU: Convergence failed at  42  side 2    Res =  0.1707E+02
 MRCHDU: Convergence failed at  43  side 2    Res =  0.1646E+02
 MRCHDU: Convergence failed at  44  side 2    Res =  0.1590E+02
 MRCHDU: Convergence failed at  45  side 2    Res =  0.1552E+02
 MRCHDU: Convergence failed at  46  side 2    Res =  0.1520E+02
 MRCHDU: Convergence failed at  47  side 2    Res =  0.1492E+02
 MRCHDU: Convergence failed at  48  side 2    Res =  0.1466E+02
 MRCHDU: Convergence failed at  49  side 2    Res =  0.1156E+02
 MRCHDU: Convergence failed at  50  side 2    Res =  0.1177E+02
 MRCHDU: Convergence failed at  51  side 2    Res =  0.1203E+02
 MRCHDU: Convergence failed at  52  side 2    Res =  0.1238E+02
 MRCHDU: Convergence failed at  53  side 2    Res =  0.1267E+02
 MRCHDU: Convergence failed at  54  side 2    Res =  0.1296E+02
 MRCHDU: Convergence failed at  55  side 2    Res =  0.1324E+02
 MRCHDU: Convergence failed at  56  side 2    Res =  0.1344E+02
 MRCHDU: Convergence failed at  57  side 2    Res =  0.1356E+02
 MRCHDU: Convergence failed at  58  side 2    Res =  0.1360E+02
 MRCHDU: Convergence failed at  59  side 2    Res =  0.1359E+02
 MRCHDU: Convergence failed at  60  side 2    Res =  0.1354E+02
 MRCHDU: Convergence failed at  61  side 2    Res =  0.1349E+02
 MRCHDU: Convergence failed at  62  side 2    Res =  0.1344E+02
 MRCHDU: Convergence failed at  63  side 2    Res =  0.1342E+02
 MRCHDU: Convergence failed at  64  side 2    Res =  0.1344E+02
 MRCHDU: Convergence failed at  65  side 2    Res =  0.1348E+02
 MRCHDU: Convergence failed at  66  side 2    Res =  0.1354E+02
 MRCHDU: Convergence failed at  67  side 2    Res =  0.1362E+02
 MRCHDU: Convergence failed at  68  side 2    Res =  0.1371E+02
 MRCHDU: Convergence failed at  69  side 2    Res =  0.1382E+02
 MRCHDU: Convergence failed at  70  side 2    Res =  0.1394E+02
 MRCHDU: Convergence failed at  71  side 2    Res =  0.1408E+02
 MRCHDU: Convergence failed at  72  side 2    Res =  0.1425E+02
 MRCHDU: Convergence failed at  73  side 2    Res =  0.1451E+02
 MRCHDU: Convergence failed at  74  side 2    Res =  0.1483E+02
 MRCHDU: Convergence failed at  75  side 2    Res =  0.1523E+02
 MRCHDU: Convergence failed at  76  side 2    Res =  0.2098E+02
 MRCHDU: Convergence failed at  77  side 2    Res =  0.2160E+02
 MRCHDU: Convergence failed at  78  side 2    Res =  0.2243E+02
 MRCHDU: Convergence failed at  79  side 2    Res =  0.2351E+02
 MRCHDU: Convergence failed at  80  side 2    Res =  0.2481E+02
 MRCHDU: Convergence failed at  81  side 2    Res =  0.2270E+02
 MRCHDU: Convergence failed at  82  side 2    Res =  0.2808E+02
 MRCHDU: Convergence failed at  83  side 2    Res =  0.2713E+02
 Side 1  free  transition at x/c =  0.8801   70
 Side 2  free  transition at x/c =  0.0811   24

   2   rms: 0.5452E+00   max: 0.7569E+00   D at   89  2
       a = -3.500      CL =  0.3008
      Cm = -0.1122     CD =  0.01148   =>   CDf =  0.00341    CDp =  0.00807

 Side 1  free  transition at x/c =  0.8824   70
 Side 2  free  transition at x/c =  0.0831   24

   3   rms: 0.7582E-01   max: -.6006E+00   D at   25  2   RLX: 0.832
       a = -3.500      CL =  0.2618
      Cm = -0.1079     CD =  0.01406   =>   CDf =  0.00780    CDp =  0.00626

 Side 1  free  transition at x/c =  0.8715   69
 Side 2  free  transition at x/c =  0.0814   24

   4   rms: 0.1150E-01   max: -.1038E+00   D at   25  2
       a = -3.500      CL =  0.2558
      Cm = -0.1073     CD =  0.01397   =>   CDf =  0.00773    CDp =  0.00624

 Side 1  free  transition at x/c =  0.8722   69
 Side 2  free  transition at x/c =  0.0808   24

   5   rms: 0.8574E-03   max: 0.5874E-02   D at   71  1
       a = -3.500      CL =  0.2552
      Cm = -0.1072     CD =  0.01398   =>   CDf =  0.00771    CDp =  0.00627

 Side 1  free  transition at x/c =  0.8719   69
 Side 2  free  transition at x/c =  0.0808   24

   6   rms: 0.1545E-04   max: -.1317E-03   D at   71  1
       a = -3.500      CL =  0.2552
      Cm = -0.1072     CD =  0.01398   =>   CDf =  0.00771    CDp =  0.00627
 plradd ia,ip,cpol            2           0  1.21662803E-02

 Point added to stored polar  1
 Point written to save file  n11_Re200k.base.pol                             
 Dump file unspecified or not available
 Calculating wake trajectory ...
 Calculating source influence matrix ...

 Solving BL system ...

 Side 1  free  transition at x/c =  0.8719   69
 Side 2  free  transition at x/c =  0.0808   24

   1   rms: 0.9031E-01   max: 0.5228E+00   T at   69  1
       a = -3.000      CL =  0.2885
      Cm = -0.1026     CD =  0.01369   =>   CDf =  0.00772    CDp =  0.00598

 Side 1  free  transition at x/c =  0.8377   67
 Side 2  free  transition at x/c =  0.0960   25

   2   rms: 0.6379E-01   max: -.4253E+00   D at   68  1
       a = -3.000      CL =  0.3174
      Cm = -0.1074     CD =  0.01285   =>   CDf =  0.00776    CDp =  0.00508

 Side 1  free  transition at x/c =  0.8583   69
 Side 2  free  transition at x/c =  0.1155   25
 idif Ue xi dudx           1  0.15999015      1.94621086E-03   82.205971    
 Uenew xinew           2  1.23084430E-02  1.49726868E-04

   3   rms: 0.4573E-01   max: 0.4258E+00   D at    2  1
       a = -3.000      CL =  0.3027
      Cm = -0.1050     CD =  0.01313   =>   CDf =  0.00776    CDp =  0.00537

 Side 1  free  transition at x/c =  0.8459   68
 Side 2  free  transition at x/c =  0.1158   27

   4   rms: 0.3645E-01   max: -.2816E+00   C at   27  2
       a = -3.000      CL =  0.3112
      Cm = -0.1066     CD =  0.01268   =>   CDf =  0.00769    CDp =  0.00499

 Side 1  free  transition at x/c =  0.8510   68
 Side 2  free  transition at x/c =  0.1306   27

   5   rms: 0.6741E-02   max: 0.5739E-01   T at   27  2
       a = -3.000      CL =  0.3104
      Cm = -0.1064     CD =  0.01283   =>   CDf =  0.00754    CDp =  0.00529

 Side 1  free  transition at x/c =  0.8512   68
 Side 2  free  transition at x/c =  0.1253   27

   6   rms: 0.1339E-02   max: -.2143E-01   C at   27  2
       a = -3.000      CL =  0.3105
      Cm = -0.1064     CD =  0.01284   =>   CDf =  0.00755    CDp =  0.00529

 Side 1  free  transition at x/c =  0.8512   68
 Side 2  free  transition at x/c =  0.1259   27

   7   rms: 0.1922E-04   max: -.2618E-03   C at   27  2
       a = -3.000      CL =  0.3105
      Cm = -0.1064     CD =  0.01284   =>   CDf =  0.00754    CDp =  0.00529
 plradd ia,ip,cpol            3           0  1.21662803E-02

 Point added to stored polar  1
 Point written to save file  n11_Re200k.base.pol                             
 Dump file unspecified or not available
 Calculating wake trajectory ...
 Calculating source influence matrix ...

 Solving BL system ...

 Side 1  free  transition at x/c =  0.8512   68
 Side 2  free  transition at x/c =  0.1259   27

   1   rms: 0.2793E+00   max: -.3395E+01   C at   27  2   RLX: 0.147
       a = -2.500      CL =  0.3185
      Cm = -0.1063     CD =  0.01262   =>   CDf =  0.00751    CDp =  0.00511

 Side 1  free  transition at x/c =  0.8479   69
 Side 2  free  transition at x/c =  0.1610   28

   2   rms: 0.1775E+00   max: 0.1950E+01   C at   28  2   RLX: 0.303
       a = -2.500      CL =  0.3345
      Cm = -0.1062     CD =  0.01264   =>   CDf =  0.00748    CDp =  0.00516

 MRCHDU: Convergence failed at  30  side 2    Res =  0.1926E+01
 MRCHDU: Convergence failed at  31  side 2    Res =  0.1644E+01
 MRCHDU: Convergence failed at  32  side 2    Res =  0.2197E+01
 MRCHDU: Convergence failed at  33  side 2    Res =  0.2336E+01
 MRCHDU: Convergence failed at  34  side 2    Res =  0.2343E+01
 MRCHDU: Convergence failed at  35  side 2    Res =  0.2279E+01
 MRCHDU: Convergence failed at  36  side 2    Res =  0.2227E+01
 MRCHDU: Convergence failed at  37  side 2    Res =  0.2198E+01
 MRCHDU: Convergence failed at  38  side 2    Res =  0.2190E+01
 MRCHDU: Convergence failed at  39  side 2    Res =  0.2177E+01
 MRCHDU: Convergence failed at  40  side 2    Res =  0.2650E+01
 MRCHDU: Convergence failed at  41  side 2    Res =  0.2661E+01
 MRCHDU: Convergence failed at  42  side 2    Res =  0.2677E+01
 MRCHDU: Convergence failed at  43  side 2    Res =  0.2694E+01
 MRCHDU: Convergence failed at  44  side 2    Res =  0.2863E+01
 MRCHDU: Convergence failed at  45  side 2    Res =  0.2849E+01
 MRCHDU: Convergence failed at  46  side 2    Res =  0.2811E+01
 MRCHDU: Convergence failed at  47  side 2    Res =  0.2789E+01
 MRCHDU: Convergence failed at  48  side 2    Res =  0.2775E+01
 MRCHDU: Convergence failed at  49  side 2    Res =  0.2758E+01
 MRCHDU: Convergence failed at  50  side 2    Res =  0.2739E+01
 MRCHDU: Convergence failed at  51  side 2    Res =  0.2714E+01
 MRCHDU: Convergence failed at  52  side 2    Res =  0.2700E+01
 MRCHDU: Convergence failed at  53  side 2    Res =  0.2689E+01
 MRCHDU: Convergence failed at  54  side 2    Res =  0.2676E+01
 MRCHDU: Convergence failed at  55  side 2    Res =  0.2670E+01
 MRCHDU: Convergence failed at  56  side 2    Res =  0.2674E+01
 MRCHDU: Convergence failed at  57  side 2    Res =  0.2682E+01
 MRCHDU: Convergence failed at  58  side 2    Res =  0.2689E+01
 MRCHDU: Convergence failed at  59  side 2    Res =  0.2696E+01
 MRCHDU: Convergence failed at  60  side 2    Res =  0.2701E+01
 MRCHDU: Convergence failed at  61  side 2    Res =  0.2703E+01
 MRCHDU: Convergence failed at  62  side 2    Res =  0.2699E+01
 MRCHDU: Convergence failed at  63  side 2    Res =  0.2694E+01
 MRCHDU: Convergence failed at  64  side 2    Res =  0.2688E+01
 MRCHDU: Convergence failed at  65  side 2    Res =  0.2681E+01
 MRCHDU: Convergence failed at  66  side 2    Res =  0.2674E+01
 MRCHDU: Convergence failed at  67  side 2    Res =  0.2659E+01
 MRCHDU: Convergence failed at  68  side 2    Res =  0.2650E+01
 MRCHDU: Convergence failed at  69  side 2    Res =  0.2644E+01
 MRCHDU: Convergence failed at  70  side 2    Res =  0.2639E+01
 MRCHDU: Convergence failed at  71  side 2    Res =  0.2633E+01
 MRCHDU: Convergence failed at  72  side 2    Res =  0.2227E+01
 MRCHDU: Convergence failed at  73  side 2    Res =  0.2278E+01
 MRCHDU: Convergence failed at  74  side 2    Res =  0.2333E+01
 MRCHDU: Convergence failed at  75  side 2    Res =  0.2405E+01
 MRCHDU: Convergence failed at  76  side 2    Res =  0.2515E+01
 MRCHDU: Convergence failed at  77  side 2    Res =  0.2650E+01
 MRCHDU: Convergence failed at  78  side 2    Res =  0.2881E+01
 MRCHDU: Convergence failed at  79  side 2    Res =  0.3203E+01
 MRCHDU: Convergence failed at  80  side 2    Res =  0.3600E+01
 MRCHDU: Convergence failed at  81  side 2    Res =  0.4037E+01
 MRCHDU: Convergence failed at  82  side 2    Res =  0.4571E+01
 Side 1  free  transition at x/c =  0.8433   68
 Side 2  free  transition at x/c =  0.3305   39

   3   rms: 0.2207E+00   max: -.1066E+01   C at   39  2   RLX: 0.469
       a = -2.500      CL =  0.2178
      Cm = -0.0568     CD =  0.00978   =>   CDf =  0.00496    CDp =  0.00482

 Side 1  free  transition at x/c =  0.8343   68
 Side 2  free  transition at x/c =  0.4992   50

   4   rms: 0.1132E+00   max: -.5730E+00   C at   50  2   RLX: 0.873
       a = -2.500      CL =  0.3414
      Cm = -0.0992     CD =  0.01078   =>   CDf =  0.00701    CDp =  0.00377

 Side 1  free  transition at x/c =  0.8306   68
 Side 2  free  transition at x/c =  0.3513   40

   5   rms: 0.6394E-01   max: 0.1077E+01   C at   40  2
       a = -2.500      CL =  0.3656
      Cm = -0.1059     CD =  0.01177   =>   CDf =  0.00688    CDp =  0.00489

 Side 1  free  transition at x/c =  0.8304   68
 Side 2  free  transition at x/c =  0.2803   36

   6   rms: 0.1103E-01   max: 0.1260E+00   D at   39  2
       a = -2.500      CL =  0.3663
      Cm = -0.1060     CD =  0.01191   =>   CDf =  0.00709    CDp =  0.00482

 Side 1  free  transition at x/c =  0.8304   68
 Side 2  free  transition at x/c =  0.2745   36

   7   rms: 0.3658E-03   max: 0.4638E-02   D at   38  2
       a = -2.500      CL =  0.3664
      Cm = -0.1060     CD =  0.01193   =>   CDf =  0.00711    CDp =  0.00482

 Side 1  free  transition at x/c =  0.8304   68
 Side 2  free  transition at x/c =  0.2744   36

   8   rms: 0.1548E-05   max: 0.1745E-04   C at   36  2
       a = -2.500      CL =  0.3664
      Cm = -0.1060     CD =  0.01193   =>   CDf =  0.00711    CDp =  0.00482
 plradd ia,ip,cpol            4           0  1.55072846E-02

 Point added to stored polar  1
 Point written to save file  n11_Re200k.base.pol                             
 Dump file unspecified or not available
 Calculating wake trajectory ...
 Calculating source influence matrix ...

 Solving BL system ...

 Side 1  free  transition at x/c =  0.8304   68
 Side 2  free  transition at x/c =  0.2744   36

   1   rms: 0.2297E+00   max: -.3592E+01   C at   36  2   RLX: 0.139
       a = -2.000      CL =  0.3744
      Cm = -0.1060     CD =  0.01177   =>   CDf =  0.00711    CDp =  0.00466

 Side 1  free  transition at x/c =  0.8284   67
 Side 2  free  transition at x/c =  0.2931   37

   2   rms: 0.1720E+00   max: -.2713E+01   C at   37  2   RLX: 0.184
       a = -2.000      CL =  0.3810
      Cm = -0.1056     CD =  0.01175   =>   CDf =  0.00708    CDp =  0.00467

 Side 1  free  transition at x/c =  0.8230   67
 Side 2  free  transition at x/c =  0.3106   38

   3   rms: 0.1801E+00   max: -.3024E+01   C at   38  2   RLX: 0.165
       a = -2.000      CL =  0.3872
      Cm = -0.1054     CD =  0.01171   =>   CDf =  0.00700    CDp =  0.00471

 Side 1  free  transition at x/c =  0.8204   68
 Side 2  free  transition at x/c =  0.3249   38

   4   rms: 0.2377E+00   max: -.3069E+01   C at   38  2   RLX: 0.163
       a = -2.000      CL =  0.3927
      Cm = -0.1054     CD =  0.01165   =>   CDf =  0.00700    CDp =  0.00464

 Side 1  free  transition at x/c =  0.8185   68
 Side 2  free  transition at x/c =  0.3377   39

   5   rms: 0.1727E+00   max: -.2772E+01   C at   39  2   RLX: 0.180
       a = -2.000      CL =  0.3978
      Cm = -0.1054     CD =  0.01159   =>   CDf =  0.00700    CDp =  0.00459

 Side 1  free  transition at x/c =  0.8169   68
 Side 2  free  transition at x/c =  0.3526   39

   6   rms: 0.8336E-01   max: -.1248E+01   C at   39  2   RLX: 0.401
       a = -2.000      CL =  0.4074
      Cm = -0.1054     CD =  0.01153   =>   CDf =  0.00696    CDp =  0.00458

 Side 1  free  transition at x/c =  0.8143   68
 Side 2  free  transition at x/c =  0.4321   44

   7   rms: 0.6881E-01   max: -.1109E+01   C at   44  2   RLX: 0.451
       a = -2.000      CL =  0.4127
      Cm = -0.1053     CD =  0.01125   =>   CDf =  0.00668    CDp =  0.00457

 Side 1  free  transition at x/c =  0.8129   67
 Side 2  free  transition at x/c =  0.5585   52

   8   rms: 0.4675E-01   max: -.7528E+00   C at   52  2   RLX: 0.664
       a = -2.000      CL =  0.4128
      Cm = -0.1044     CD =  0.01086   =>   CDf =  0.00628    CDp =  0.00458

 Side 1  free  transition at x/c =  0.8102   67
 Side 2  free  transition at x/c =  0.6631   59

   9   rms: 0.5342E-01   max: -.8534E+00   C at   59  2   RLX: 0.586
       a = -2.000      CL =  0.4099
      Cm = -0.1032     CD =  0.01048   =>   CDf =  0.00585    CDp =  0.00463

 Side 1  free  transition at x/c =  0.8098   67
 Side 2  free  transition at x/c =  0.6715   59

  10   rms: 0.2341E-01   max: -.3517E+00   C at   59  2
       a = -2.000      CL =  0.4099
      Cm = -0.1032     CD =  0.01045   =>   CDf =  0.00576    CDp =  0.00469

 Side 1  free  transition at x/c =  0.8095   67
 Side 2  free  transition at x/c =  0.6799   60

  11   rms: 0.7102E-02   max: -.1107E+00   C at   60  2
       a = -2.000      CL =  0.4102
      Cm = -0.1033     CD =  0.01047   =>   CDf =  0.00573    CDp =  0.00475

 Side 1  free  transition at x/c =  0.8095   67
 Side 2  free  transition at x/c =  0.6850   60

  12   rms: 0.1421E-03   max: -.2191E-02   C at   60  2
       a = -2.000      CL =  0.4102
      Cm = -0.1033     CD =  0.01047   =>   CDf =  0.00570    CDp =  0.00477

 Side 1  free  transition at x/c =  0.8095   67
 Side 2  free  transition at x/c =  0.6852   60

  13   rms: 0.1106E-05   max: -.1484E-04   C at   60  2
       a = -2.000      CL =  0.4102
      Cm = -0.1033     CD =  0.01047   =>   CDf =  0.00570    CDp =  0.00477
 plradd ia,ip,cpol            5           0  1.55072846E-02

 Point added to stored polar  1
 Point written to save file  n11_Re200k.base.pol                             
 Dump file unspecified or not available
 Calculating wake trajectory ...
 Calculating source influence matrix ...

 Solving BL system ...

 Side 1  free  transition at x/c =  0.8095   67
 Side 2  free  transition at x/c =  0.6852   60

   1   rms: 0.8427E+00   max: -.1287E+02   C at   60  2   RLX: 0.039
       a = -1.500      CL =  0.4108
      Cm = -0.1029     CD =  0.01039   =>   CDf =  0.00571    CDp =  0.00468

 Side 1  free  transition at x/c =  0.8085   67
 Side 2  free  transition at x/c =  0.7165   62

   2   rms: 0.8980E+00   max: -.1351E+02   C at   62  2   RLX: 0.037
       a = -1.500      CL =  0.4114
      Cm = -0.1025     CD =  0.01029   =>   CDf =  0.00559    CDp =  0.00470

 Side 1  free  transition at x/c =  0.8076   67
 Side 2  free  transition at x/c =  0.7505   64

   3   rms: 0.9510E+00   max: -.1403E+02   C at   64  2   RLX: 0.036
       a = -1.500      CL =  0.4122
      Cm = -0.1021     CD =  0.01021   =>   CDf =  0.00548    CDp =  0.00472

 Side 1  free  transition at x/c =  0.8069   67
 Side 2  free  transition at x/c =  0.7888   67

   4   rms: 0.1081E+01   max: -.1619E+02   C at   67  2   RLX: 0.031
       a = -1.500      CL =  0.4133
      Cm = -0.1018     CD =  0.01012   =>   CDf =  0.00538    CDp =  0.00475

 Side 1  free  transition at x/c =  0.8064   67
 Side 2  free  transition at x/c =  0.8277   69

   5   rms: 0.1293E+01   max: -.1880E+02   C at   69  2   RLX: 0.027
       a = -1.500      CL =  0.4158
      Cm = -0.1018     CD =  0.01006   =>   CDf =  0.00529    CDp =  0.00477

 Side 1  free  transition at x/c =  0.8060   67
 Side 2  free  transition at x/c =  0.8731   72

   6   rms: 0.4844E+01   max: -.6971E+02   C at   72  2   RLX: 0.007
       a = -1.500      CL =  0.4213
      Cm = -0.1026     CD =  0.00997   =>   CDf =  0.00521    CDp =  0.00476

 Side 1  free  transition at x/c =  0.8062   67
 Side 2  free  transition at x/c =  0.9210   75

   7   rms: 0.3157E+00   max: -.3396E+01   C at   75  2   RLX: 0.147
       a = -1.500      CL =  0.4442
      Cm = -0.1055     CD =  0.00984   =>   CDf =  0.00517    CDp =  0.00467

 Side 1  free  transition at x/c =  0.8040   67
 Side 2 forced transition at x/c =  1.0000   81

   8   rms: 0.8434E-01   max: -.2045E+00   n at   75  2
       a = -1.500      CL =  0.4944
      Cm = -0.1078     CD =  0.00994   =>   CDf =  0.00525    CDp =  0.00468

 Side 1  free  transition at x/c =  0.7890   67
 Side 2 forced transition at x/c =  1.0000   80

   9   rms: 0.9516E-02   max: -.1210E+00   D at   67  1
       a = -1.500      CL =  0.4939
      Cm = -0.1077     CD =  0.00998   =>   CDf =  0.00547    CDp =  0.00451

 Side 1  free  transition at x/c =  0.7880   67
 Side 2 forced transition at x/c =  1.0000   80

  10   rms: 0.5904E-03   max: 0.5258E-02   D at    4  1
       a = -1.500      CL =  0.4939
      Cm = -0.1077     CD =  0.00999   =>   CDf =  0.00545    CDp =  0.00454

 Side 1  free  transition at x/c =  0.7880   67
 Side 2 forced transition at x/c =  1.0000   80

  11   rms: 0.2129E-05   max: -.1241E-04   D at   81  1
       a = -1.500      CL =  0.4939
      Cm = -0.1077     CD =  0.00999   =>   CDf =  0.00545    CDp =  0.00454
 plradd ia,ip,cpol            6           0  0.20288141    

 Point added to stored polar  1
 Point written to save file  n11_Re200k.base.pol                             
 Dump file unspecified or not available
 Calculating wake trajectory ...
 Calculating source influence matrix ...

 Solving BL system ...

 Side 1  free  transition at x/c =  0.7880   67
 Side 2 forced transition at x/c =  1.0000   80

   1   rms: 0.1084E+00   max: -.2842E+00   n at   79  2
       a = -1.000      CL =  0.5468
      Cm = -0.1066     CD =  0.01010   =>   CDf =  0.00547    CDp =  0.00462

 Side 1  free  transition at x/c =  0.7670   67
 Side 2 forced transition at x/c =  1.0000   79

   2   rms: 0.1559E-01   max: -.2219E+00   D at   67  1
       a = -1.000      CL =  0.5467
      Cm = -0.1066     CD =  0.01011   =>   CDf =  0.00572    CDp =  0.00439

 Side 1  free  transition at x/c =  0.7664   67
 Side 2 forced transition at x/c =  1.0000   79

   3   rms: 0.9914E-03   max: -.1142E-01   D at   67  1
       a = -1.000      CL =  0.5466
      Cm = -0.1066     CD =  0.01012   =>   CDf =  0.00575    CDp =  0.00437

 Side 1  free  transition at x/c =  0.7664   67
 Side 2 forced transition at x/c =  1.0000   79

   4   rms: 0.1446E-04   max: 0.2599E-03   D at   67  1
       a = -1.000      CL =  0.5466
      Cm = -0.1066     CD =  0.01012   =>   CDf =  0.00575    CDp =  0.00437
 plradd ia,ip,cpol            7           0  0.20288141    

 Point added to stored polar  1
 Point written to save file  n11_Re200k.base.pol                             
 Dump file unspecified or not available
 Calculating wake trajectory ...
 Calculating source influence matrix ...

 Solving BL system ...

 Side 1  free  transition at x/c =  0.7664   67
 Side 2 forced transition at x/c =  1.0000   79

   1   rms: 0.9565E-01   max: -.1541E+00   n at   78  2
       a = -0.500      CL =  0.6051
      Cm = -0.1066     CD =  0.01027   =>   CDf =  0.00576    CDp =  0.00451

 Side 1  free  transition at x/c =  0.7481   65
 Side 2 forced transition at x/c =  1.0000   79

   2   rms: 0.1905E-01   max: -.1984E+00   D at   66  1
       a = -0.500      CL =  0.5959
      Cm = -0.1050     CD =  0.01024   =>   CDf =  0.00589    CDp =  0.00435

 Side 1  free  transition at x/c =  0.7405   65
 Side 2 forced transition at x/c =  1.0000   79

   3   rms: 0.3147E-02   max: -.3356E-01   D at   66  1
       a = -0.500      CL =  0.5967
      Cm = -0.1052     CD =  0.01026   =>   CDf =  0.00595    CDp =  0.00431

 Side 1  free  transition at x/c =  0.7414   65
 Side 2 forced transition at x/c =  1.0000   79

   4   rms: 0.4473E-04   max: -.6347E-03   D at   68  1
       a = -0.500      CL =  0.5967
      Cm = -0.1052     CD =  0.01026   =>   CDf =  0.00594    CDp =  0.00432
 plradd ia,ip,cpol            8           0  0.11904665    

 Point added to stored polar  1
 Point written to save file  n11_Re200k.base.pol                             
 Dump file unspecified or not available
 Calculating wake trajectory ...
 Calculating source influence matrix ...

 Solving BL system ...

 Side 1  free  transition at x/c =  0.7413   65
 Side 2 forced transition at x/c =  1.0000   79

   1   rms: 0.8695E-01   max: -.1383E+00   n at   78  2
       a =  0.000      CL =  0.6486
      Cm = -0.1040     CD =  0.01037   =>   CDf =  0.00594    CDp =  0.00443

 Side 1  free  transition at x/c =  0.7170   64
 Side 2 forced transition at x/c =  1.0000   78

   2   rms: 0.1670E-01   max: -.2480E+00   D at   65  1
       a =  0.000      CL =  0.6486
      Cm = -0.1040     CD =  0.01037   =>   CDf =  0.00616    CDp =  0.00422

 Side 1  free  transition at x/c =  0.7173   64
 Side 2 forced transition at x/c =  1.0000   78

   3   rms: 0.1153E-02   max: 0.1565E-01   D at   65  1
       a =  0.000      CL =  0.6483
      Cm = -0.1040     CD =  0.01039   =>   CDf =  0.00615    CDp =  0.00424

 Side 1  free  transition at x/c =  0.7167   64
 Side 2 forced transition at x/c =  1.0000   78

   4   rms: 0.1020E-04   max: -.9269E-04   C at   64  1
       a =  0.000      CL =  0.6483
      Cm = -0.1040     CD =  0.01039   =>   CDf =  0.00615    CDp =  0.00424
 plradd ia,ip,cpol            9           0  0.11904665    

 Point added to stored polar  1
 Point written to save file  n11_Re200k.base.pol                             
 Dump file unspecified or not available
 Calculating wake trajectory ...
 Calculating source influence matrix ...

 Solving BL system ...

 Side 1  free  transition at x/c =  0.7167   64
 Side 2 forced transition at x/c =  1.0000   78

   1   rms: 0.8245E-01   max: -.1463E+00   C at   78  2
       a =  0.500      CL =  0.6958
      Cm = -0.1023     CD =  0.01058   =>   CDf =  0.00613    CDp =  0.00445

 Side 1  free  transition at x/c =  0.6856   63
 Side 2 forced transition at x/c =  1.0000   77

   2   rms: 0.2415E-01   max: -.3099E+00   D at   64  1
       a =  0.500      CL =  0.7009
      Cm = -0.1030     CD =  0.01052   =>   CDf =  0.00642    CDp =  0.00410

 Side 1  free  transition at x/c =  0.6930   64
 Side 2 forced transition at x/c =  1.0000   77

   3   rms: 0.5201E-02   max: 0.5640E-01   D at   64  1
       a =  0.500      CL =  0.6999
      Cm = -0.1029     CD =  0.01054   =>   CDf =  0.00631    CDp =  0.00423

 Side 1  free  transition at x/c =  0.6910   64
 Side 2 forced transition at x/c =  1.0000   77

   4   rms: 0.5587E-03   max: -.5455E-02   D at   67  1
       a =  0.500      CL =  0.6999
      Cm = -0.1029     CD =  0.01055   =>   CDf =  0.00633    CDp =  0.00421

 Side 1  free  transition at x/c =  0.6908   64
 Side 2 forced transition at x/c =  1.0000   77

   5   rms: 0.3303E-05   max: -.4382E-04   D at   67  1
       a =  0.500      CL =  0.6999
      Cm = -0.1029     CD =  0.01055   =>   CDf =  0.00634    CDp =  0.00421
 plradd ia,ip,cpol           10           0  0.11904665    

 Point added to stored polar  1
 Point written to save file  n11_Re200k.base.pol                             
 Dump file unspecified or not available
 Calculating wake trajectory ...
 Calculating source influence matrix ...

 Solving BL system ...

 Side 1  free  transition at x/c =  0.6908   64
 Side 2 forced transition at x/c =  1.0000   77

   1   rms: 0.8775E-01   max: -.6858E-01   n at   76  2
       a =  1.000      CL =  0.7545
      Cm = -0.1022     CD =  0.01071   =>   CDf =  0.00630    CDp =  0.00442

 Side 1  free  transition at x/c =  0.6653   63
 Side 2 forced transition at x/c =  1.0000   76

   2   rms: 0.2294E-01   max: -.2904E+00   D at   64  1
       a =  1.000      CL =  0.7503
      Cm = -0.1015     CD =  0.01070   =>   CDf =  0.00646    CDp =  0.00423

 Side 1  free  transition at x/c =  0.6621   63
 Side 2 forced transition at x/c =  1.0000   76

   3   rms: 0.1653E-02   max: 0.1524E-01   D at   65  1
       a =  1.000      CL =  0.7508
      Cm = -0.1016     CD =  0.01076   =>   CDf =  0.00651    CDp =  0.00425

 Side 1  free  transition at x/c =  0.6618   63
 Side 2 forced transition at x/c =  1.0000   76

   4   rms: 0.1225E-04   max: -.1222E-03   D at   63  1
       a =  1.000      CL =  0.7508
      Cm = -0.1016     CD =  0.01076   =>   CDf =  0.00652    CDp =  0.00424
 plradd ia,ip,cpol           11           0  0.11904665    

 Point added to stored polar  1
 Point written to save file  n11_Re200k.base.pol                             
 Dump file unspecified or not available
 Calculating wake trajectory ...
 Calculating source influence matrix ...

 Solving BL system ...

 Side 1  free  transition at x/c =  0.6618   63
 Side 2 forced transition at x/c =  1.0000   76

   1   rms: 0.8919E-01   max: -.7857E-01   C at   76  2
       a =  1.500      CL =  0.8033
      Cm = -0.1006     CD =  0.01099   =>   CDf =  0.00652    CDp =  0.00447

 Side 1  free  transition at x/c =  0.6317   61
 Side 2 forced transition at x/c =  1.0000   76

   2   rms: 0.2676E-01   max: -.3140E+00   D at   62  1
       a =  1.500      CL =  0.8007
      Cm = -0.1002     CD =  0.01095   =>   CDf =  0.00668    CDp =  0.00428

 Side 1  free  transition at x/c =  0.6294   61
 Side 2 forced transition at x/c =  1.0000   76

   3   rms: 0.2190E-02   max: 0.2349E-01   C at   61  1
       a =  1.500      CL =  0.8009
      Cm = -0.1003     CD =  0.01106   =>   CDf =  0.00673    CDp =  0.00433

 Side 1  free  transition at x/c =  0.6287   61
 Side 2 forced transition at x/c =  1.0000   76

   4   rms: 0.4083E-04   max: -.6106E-03   D at   64  1
       a =  1.500      CL =  0.8009
      Cm = -0.1003     CD =  0.01106   =>   CDf =  0.00675    CDp =  0.00431
 plradd ia,ip,cpol           12           0  0.11904665    

 Point added to stored polar  1
 Point written to save file  n11_Re200k.base.pol                             
 Dump file unspecified or not available
 Calculating wake trajectory ...
 Calculating source influence matrix ...

 Solving BL system ...

 Side 1  free  transition at x/c =  0.6287   61
 Side 2 forced transition at x/c =  1.0000   76

   1   rms: 0.9169E-01   max: -.6723E-01   C at   76  2
       a =  2.000      CL =  0.8537
      Cm = -0.0994     CD =  0.01150   =>   CDf =  0.00667    CDp =  0.00483

 Side 1  free  transition at x/c =  0.5980   60
 Side 2 forced transition at x/c =  1.0000   75

   2   rms: 0.2157E-01   max: -.2357E+00   D at   63  1
       a =  2.000      CL =  0.8495
      Cm = -0.0987     CD =  0.01147   =>   CDf =  0.00688    CDp =  0.00459

 Side 1  free  transition at x/c =  0.5935   59
 Side 2 forced transition at x/c =  1.0000   75

   3   rms: 0.2914E-02   max: 0.3823E-01   D at   60  1
       a =  2.000      CL =  0.8498
      Cm = -0.0988     CD =  0.01144   =>   CDf =  0.00693    CDp =  0.00451

 Side 1  free  transition at x/c =  0.5923   59
 Side 2 forced transition at x/c =  1.0000   75

   4   rms: 0.1424E-03   max: -.1335E-02   C at   59  1
       a =  2.000      CL =  0.8498
      Cm = -0.0988     CD =  0.01144   =>   CDf =  0.00692    CDp =  0.00452

 Side 1  free  transition at x/c =  0.5923   59
 Side 2 forced transition at x/c =  1.0000   75

   5   rms: 0.1148E-05   max: 0.1007E-04   C at   75  2
       a =  2.000      CL =  0.8498
      Cm = -0.0988     CD =  0.01144   =>   CDf =  0.00691    CDp =  0.00452
 plradd ia,ip,cpol           13           0  0.11904665    

 Point added to stored polar  1
 Point written to save file  n11_Re200k.base.pol                             
 Dump file unspecified or not available
 Calculating wake trajectory ...
 Calculating source influence matrix ...

 Solving BL system ...

 Side 1  free  transition at x/c =  0.5923   59
 Side 2 forced transition at x/c =  1.0000   75

   1   rms: 0.8204E-01   max: -.1235E+00   C at   75  2
       a =  2.500      CL =  0.8971
      Cm = -0.0972     CD =  0.01179   =>   CDf =  0.00681    CDp =  0.00498

 Side 1  free  transition at x/c =  0.5527   58
 Side 2 forced transition at x/c =  1.0000   74

   2   rms: 0.3276E-01   max: -.4263E+00   D at   59  1
       a =  2.500      CL =  0.8975
      Cm = -0.0972     CD =  0.01179   =>   CDf =  0.00716    CDp =  0.00463

 Side 1  free  transition at x/c =  0.5570   58
 Side 2 forced transition at x/c =  1.0000   74

   3   rms: 0.8040E-02   max: 0.1057E+00   C at   58  1
       a =  2.500      CL =  0.8977
      Cm = -0.0972     CD =  0.01189   =>   CDf =  0.00703    CDp =  0.00486

 Side 1  free  transition at x/c =  0.5537   58
 Side 2 forced transition at x/c =  1.0000   74

   4   rms: 0.4049E-03   max: -.5583E-02   D at   58  1
       a =  2.500      CL =  0.8977
      Cm = -0.0972     CD =  0.01190   =>   CDf =  0.00710    CDp =  0.00480

 Side 1  free  transition at x/c =  0.5536   58
 Side 2 forced transition at x/c =  1.0000   74

   5   rms: 0.6093E-05   max: -.2574E-04   D at   88  1
       a =  2.500      CL =  0.8977
      Cm = -0.0972     CD =  0.01190   =>   CDf =  0.00710    CDp =  0.00480
 plradd ia,ip,cpol           14           0  0.10696910    

 Point added to stored polar  1
 Point written to save file  n11_Re200k.base.pol                             
 Dump file unspecified or not available
 Calculating wake trajectory ...
 Calculating source influence matrix ...

 Solving BL system ...

 Side 1  free  transition at x/c =  0.5536   58
 Side 2 forced transition at x/c =  1.0000   74

   1   rms: 0.8918E-01   max: 0.4387E+00   C at   58  1
       a =  3.000      CL =  0.9456
      Cm = -0.0957     CD =  0.01248   =>   CDf =  0.00710    CDp =  0.00538

 Side 1  free  transition at x/c =  0.5199   56
 Side 2 forced transition at x/c =  1.0000   74

   2   rms: 0.2019E-01   max: -.2372E+00   D at   56  1
       a =  3.000      CL =  0.9444
      Cm = -0.0956     CD =  0.01249   =>   CDf =  0.00726    CDp =  0.00523

 Side 1  free  transition at x/c =  0.5148   55
 Side 2 forced transition at x/c =  1.0000   74

   3   rms: 0.2377E-02   max: 0.3125E-01   D at   56  1
       a =  3.000      CL =  0.9448
      Cm = -0.0956     CD =  0.01243   =>   CDf =  0.00728    CDp =  0.00515

 Side 1  free  transition at x/c =  0.5136   55
 Side 2 forced transition at x/c =  1.0000   74

   4   rms: 0.1441E-03   max: -.1423E-02   D at   56  1
       a =  3.000      CL =  0.9448
      Cm = -0.0956     CD =  0.01244   =>   CDf =  0.00727    CDp =  0.00517

 Side 1  free  transition at x/c =  0.5137   55
 Side 2 forced transition at x/c =  1.0000   74

   5   rms: 0.1210E-05   max: -.7072E-05   D at   56  1
       a =  3.000      CL =  0.9448
      Cm = -0.0956     CD =  0.01244   =>   CDf =  0.00727    CDp =  0.00517
 plradd ia,ip,cpol           15           0  0.10696910    

 Point added to stored polar  1
 Point written to save file  n11_Re200k.base.pol                             
 Dump file unspecified or not available
 Calculating wake trajectory ...
 Calculating source influence matrix ...

 Solving BL system ...

 Side 1  free  transition at x/c =  0.5137   55
 Side 2 forced transition at x/c =  1.0000   74

   1   rms: 0.8343E-01   max: -.1209E+00   C at   74  2
       a =  3.500      CL =  0.9912
      Cm = -0.0940     CD =  0.01295   =>   CDf =  0.00712    CDp =  0.00583

 Side 1  free  transition at x/c =  0.4711   53
 Side 2 forced transition at x/c =  1.0000   73

   2   rms: 0.1903E-01   max: -.3233E+00   D at   54  1
       a =  3.500      CL =  0.9901
      Cm = -0.0938     CD =  0.01319   =>   CDf =  0.00757    CDp =  0.00562

 Side 1  free  transition at x/c =  0.4754   54
 Side 2 forced transition at x/c =  1.0000   73

   3   rms: 0.3781E-02   max: 0.5406E-01   D at   54  1
       a =  3.500      CL =  0.9907
      Cm = -0.0939     CD =  0.01307   =>   CDf =  0.00745    CDp =  0.00562

 Side 1  free  transition at x/c =  0.4740   54
 Side 2 forced transition at x/c =  1.0000   73

   4   rms: 0.3678E-03   max: 0.4309E-02   C at   54  1
       a =  3.500      CL =  0.9907
      Cm = -0.0939     CD =  0.01307   =>   CDf =  0.00746    CDp =  0.00561

 Side 1  free  transition at x/c =  0.4738   54
 Side 2 forced transition at x/c =  1.0000   73

   5   rms: 0.1744E-05   max: -.1893E-04   D at   56  1
       a =  3.500      CL =  0.9907
      Cm = -0.0939     CD =  0.01307   =>   CDf =  0.00746    CDp =  0.00561
 plradd ia,ip,cpol           16           0  0.10696910    

 Point added to stored polar  1
 Point written to save file  n11_Re200k.base.pol                             
 Dump file unspecified or not available
 Calculating wake trajectory ...
 Calculating source influence matrix ...

 Solving BL system ...

 Side 1  free  transition at x/c =  0.4738   54
 Side 2 forced transition at x/c =  1.0000   73

   1   rms: 0.9152E-01   max: 0.5377E+00   C at   54  1
       a =  4.000      CL =  1.0358
      Cm = -0.0921     CD =  0.01391   =>   CDf =  0.00747    CDp =  0.00645

 Side 1  free  transition at x/c =  0.4407   51
 Side 2 forced transition at x/c =  1.0000   73

   2   rms: 0.2414E-01   max: 0.3431E+00   D at   53  1
       a =  4.000      CL =  1.0361
      Cm = -0.0923     CD =  0.01382   =>   CDf =  0.00762    CDp =  0.00620

 Side 1  free  transition at x/c =  0.4388   51
 Side 2 forced transition at x/c =  1.0000   73

   3   rms: 0.2769E-02   max: 0.2914E-01   D at   52  1
       a =  4.000      CL =  1.0365
      Cm = -0.0923     CD =  0.01375   =>   CDf =  0.00760    CDp =  0.00615

 Side 1  free  transition at x/c =  0.4380   51
 Side 2 forced transition at x/c =  1.0000   73

   4   rms: 0.2168E-04   max: -.1708E-03   D at   51  1
       a =  4.000      CL =  1.0364
      Cm = -0.0923     CD =  0.01375   =>   CDf =  0.00761    CDp =  0.00614
 plradd ia,ip,cpol           17           0  4.87717241E-02

 Point added to stored polar  1
 Point written to save file  n11_Re200k.base.pol                             
 Dump file unspecified or not available
 Calculating wake trajectory ...
 Calculating source influence matrix ...

 Solving BL system ...

 Side 1  free  transition at x/c =  0.4380   51
 Side 2 forced transition at x/c =  1.0000   73

   1   rms: 0.8101E-01   max: -.1075E+00   C at   73  2
       a =  4.500      CL =  1.0834
      Cm = -0.0910     CD =  0.01436   =>   CDf =  0.00742    CDp =  0.00694

 Side 1  free  transition at x/c =  0.4076   50
 Side 2 forced transition at x/c =  1.0000   72

   2   rms: 0.2681E-01   max: -.3765E+00   D at   51  1
       a =  4.500      CL =  1.0815
      Cm = -0.0907     CD =  0.01448   =>   CDf =  0.00783    CDp =  0.00665

 Side 1  free  transition at x/c =  0.4112   50
 Side 2 forced transition at x/c =  1.0000   72

   3   rms: 0.7079E-02   max: -.1088E+00   C at   50  1
       a =  4.500      CL =  1.0824
      Cm = -0.0908     CD =  0.01450   =>   CDf =  0.00782    CDp =  0.00667

 Side 1  free  transition at x/c =  0.4105   50
 Side 2 forced transition at x/c =  1.0000   72

   4   rms: 0.4307E-03   max: 0.4579E-02   C at   50  1
       a =  4.500      CL =  1.0825
      Cm = -0.0909     CD =  0.01451   =>   CDf =  0.00774    CDp =  0.00677

 Side 1  free  transition at x/c =  0.4103   50
 Side 2 forced transition at x/c =  1.0000   72

   5   rms: 0.3555E-05   max: -.1669E-04   C at   72  2
       a =  4.500      CL =  1.0825
      Cm = -0.0909     CD =  0.01451   =>   CDf =  0.00774    CDp =  0.00676
 plradd ia,ip,cpol           18           0  4.87717241E-02

 Point added to stored polar  1
 Point written to save file  n11_Re200k.base.pol                             
 Dump file unspecified or not available
 Calculating wake trajectory ...
 Calculating source influence matrix ...

 Solving BL system ...

 Side 1  free  transition at x/c =  0.4103   50
 Side 2 forced transition at x/c =  1.0000   72

   1   rms: 0.7878E-01   max: -.9679E-01   C at   72  2
       a =  5.000      CL =  1.1311
      Cm = -0.0900     CD =  0.01509   =>   CDf =  0.00753    CDp =  0.00756

 Side 1  free  transition at x/c =  0.3842   50
 Side 2 forced transition at x/c =  1.0000   71

   2   rms: 0.2557E-01   max: -.2825E+00   D at   50  1
       a =  5.000      CL =  1.1278
      Cm = -0.0893     CD =  0.01521   =>   CDf =  0.00793    CDp =  0.00728

 Side 1  free  transition at x/c =  0.3893   50
 Side 2 forced transition at x/c =  1.0000   71

   3   rms: 0.4765E-02   max: 0.5237E-01   C at   50  1
       a =  5.000      CL =  1.1294
      Cm = -0.0897     CD =  0.01527   =>   CDf =  0.00772    CDp =  0.00755

 Side 1  free  transition at x/c =  0.3876   50
 Side 2 forced transition at x/c =  1.0000   71

   4   rms: 0.1648E-03   max: -.1889E-02   D at   50  1
       a =  5.000      CL =  1.1294
      Cm = -0.0897     CD =  0.01527   =>   CDf =  0.00776    CDp =  0.00751

 Side 1  free  transition at x/c =  0.3876   50
 Side 2 forced transition at x/c =  1.0000   71

   5   rms: 0.3335E-05   max: -.1248E-04   D at   87  1
       a =  5.000      CL =  1.1294
      Cm = -0.0897     CD =  0.01527   =>   CDf =  0.00776    CDp =  0.00751
 plradd ia,ip,cpol           19           0  4.87717241E-02

 Point added to stored polar  1
 Point written to save file  n11_Re200k.base.pol                             
 Dump file unspecified or not available
 Calculating wake trajectory ...
 Calculating source influence matrix ...

 Solving BL system ...

 Side 1  free  transition at x/c =  0.3876   50
 Side 2 forced transition at x/c =  1.0000   71

   1   rms: 0.8098E-01   max: -.9414E-01   C at   71  2
       a =  5.500      CL =  1.1756
      Cm = -0.0884     CD =  0.01610   =>   CDf =  0.00776    CDp =  0.00834

 Side 1  free  transition at x/c =  0.3661   49
 Side 2 forced transition at x/c =  1.0000   71

   2   rms: 0.2719E-01   max: -.3493E+00   D at   49  1
       a =  5.500      CL =  1.1744
      Cm = -0.0882     CD =  0.01607   =>   CDf =  0.00790    CDp =  0.00817

 Side 1  free  transition at x/c =  0.3679   49
 Side 2 forced transition at x/c =  1.0000   71

   3   rms: 0.5258E-02   max: 0.4928E-01   C at   49  1
       a =  5.500      CL =  1.1751
      Cm = -0.0884     CD =  0.01615   =>   CDf =  0.00780    CDp =  0.00835

 Side 1  free  transition at x/c =  0.3667   49
 Side 2 forced transition at x/c =  1.0000   71

   4   rms: 0.2070E-03   max: -.2629E-02   D at   51  1
       a =  5.500      CL =  1.1752
      Cm = -0.0884     CD =  0.01615   =>   CDf =  0.00785    CDp =  0.00830

 Side 1  free  transition at x/c =  0.3667   49
 Side 2 forced transition at x/c =  1.0000   71

   5   rms: 0.1308E-05   max: -.6019E-05   D at   51  1
       a =  5.500      CL =  1.1752
      Cm = -0.0884     CD =  0.01615   =>   CDf =  0.00785    CDp =  0.00830
 plradd ia,ip,cpol           20           0  4.04821150E-02

 Point added to stored polar  1
 Point written to save file  n11_Re200k.base.pol                             
 Dump file unspecified or not available
 Calculating wake trajectory ...
 Calculating source influence matrix ...

 Solving BL system ...

 Side 1  free  transition at x/c =  0.3667   49
 Side 2 forced transition at x/c =  1.0000   71

   1   rms: 0.8733E-01   max: 0.3873E+00   T at   49  1
       a =  6.000      CL =  1.2217
      Cm = -0.0874     CD =  0.01741   =>   CDf =  0.00760    CDp =  0.00981

 Side 1  free  transition at x/c =  0.3480   48
 Side 2 forced transition at x/c =  1.0000   70

   2   rms: 0.3502E-01   max: -.3817E+00   D at   49  1
       a =  6.000      CL =  1.2192
      Cm = -0.0867     CD =  0.01683   =>   CDf =  0.00781    CDp =  0.00902

 Side 1  free  transition at x/c =  0.3479   48
 Side 2 forced transition at x/c =  1.0000   70

   3   rms: 0.5025E-02   max: 0.5329E-01   D at   49  1
       a =  6.000      CL =  1.2203
      Cm = -0.0870     CD =  0.01701   =>   CDf =  0.00778    CDp =  0.00922

 Side 1  free  transition at x/c =  0.3460   48
 Side 2 forced transition at x/c =  1.0000   70

   4   rms: 0.2380E-03   max: -.2119E-02   D at   48  1
       a =  6.000      CL =  1.2202
      Cm = -0.0870     CD =  0.01701   =>   CDf =  0.00781    CDp =  0.00920

 Side 1  free  transition at x/c =  0.3460   48
 Side 2 forced transition at x/c =  1.0000   70

   5   rms: 0.5689E-05   max: 0.2594E-04   C at   70  2
       a =  6.000      CL =  1.2202
      Cm = -0.0870     CD =  0.01701   =>   CDf =  0.00780    CDp =  0.00921
 plradd ia,ip,cpol           21           0  1.35213928E-03

 Point added to stored polar  1
 Point written to save file  n11_Re200k.base.pol                             
 Dump file unspecified or not available
 Calculating wake trajectory ...
 Calculating source influence matrix ...

 Solving BL system ...

 Side 1  free  transition at x/c =  0.3460   48
 Side 2 forced transition at x/c =  1.0000   70

   1   rms: 0.7837E-01   max: 0.4035E+00   T at   48  1
       a =  6.500      CL =  1.2636
      Cm = -0.0853     CD =  0.01769   =>   CDf =  0.00781    CDp =  0.00989

 Side 1  free  transition at x/c =  0.3184   46
 Side 2 forced transition at x/c =  1.0000   70

   2   rms: 0.3703E-01   max: -.4646E+00   D at   47  1
       a =  6.500      CL =  1.2624
      Cm = -0.0853     CD =  0.01811   =>   CDf =  0.00796    CDp =  0.01014

 Side 1  free  transition at x/c =  0.3247   47
 Side 2 forced transition at x/c =  1.0000   70

   3   rms: 0.1457E-01   max: 0.1844E+00   D at   47  1
       a =  6.500      CL =  1.2617
      Cm = -0.0850     CD =  0.01787   =>   CDf =  0.00772    CDp =  0.01015

 Side 1  free  transition at x/c =  0.3226   47
 Side 2 forced transition at x/c =  1.0000   70

   4   rms: 0.1380E-02   max: 0.1189E-01   C at   47  1
       a =  6.500      CL =  1.2618
      Cm = -0.0851     CD =  0.01787   =>   CDf =  0.00778    CDp =  0.01009

 Side 1  free  transition at x/c =  0.3223   47
 Side 2 forced transition at x/c =  1.0000   70

   5   rms: 0.1575E-04   max: -.2114E-03   D at   49  1
       a =  6.500      CL =  1.2618
      Cm = -0.0851     CD =  0.01787   =>   CDf =  0.00779    CDp =  0.01008
 plradd ia,ip,cpol           22           0  1.35213928E-03

 Point added to stored polar  1
 Point written to save file  n11_Re200k.base.pol                             
 Dump file unspecified or not available
 Calculating wake trajectory ...
 Calculating source influence matrix ...

 Solving BL system ...

 Side 1  free  transition at x/c =  0.3223   47
 Side 2 forced transition at x/c =  1.0000   70

   1   rms: 0.8632E-01   max: 0.4596E+00   T at   47  1
       a =  7.000      CL =  1.3023
      Cm = -0.0831     CD =  0.01899   =>   CDf =  0.00751    CDp =  0.01148

 MRCHDU: Convergence failed at  48  side 1    Res =  0.1698E+02
 MRCHDU: Convergence failed at  49  side 1    Res =  0.1300E+01
 MRCHDU: Convergence failed at  50  side 1    Res =  0.1170E+01
 MRCHDU: Convergence failed at  51  side 1    Res =  0.1182E+01
 MRCHDU: Convergence failed at  52  side 1    Res =  0.2507E+01
 MRCHDU: Convergence failed at  53  side 1    Res =  0.2577E+01
 MRCHDU: Convergence failed at  54  side 1    Res =  0.2822E+01
 MRCHDU: Convergence failed at  55  side 1    Res =  0.3044E+01
 MRCHDU: Convergence failed at  56  side 1    Res =  0.3251E+01
 MRCHDU: Convergence failed at  57  side 1    Res =  0.3558E+01
 MRCHDU: Convergence failed at  58  side 1    Res =  0.3902E+01
 MRCHDU: Convergence failed at  59  side 1    Res =  0.4288E+01
 MRCHDU: Convergence failed at  60  side 1    Res =  0.4756E+01
 MRCHDU: Convergence failed at  61  side 1    Res =  0.5329E+01
 MRCHDU: Convergence failed at  62  side 1    Res =  0.6021E+01
 MRCHDU: Convergence failed at  63  side 1    Res =  0.6869E+01
 MRCHDU: Convergence failed at  64  side 1    Res =  0.8024E+01
 MRCHDU: Convergence failed at  65  side 1    Res =  0.9681E+01
 MRCHDU: Convergence failed at  66  side 1    Res =  0.1164E+02
 MRCHDU: Convergence failed at  67  side 1    Res =  0.1504E+02
 MRCHDU: Convergence failed at  68  side 1    Res =  0.2116E+02
 MRCHDU: Convergence failed at  69  side 1    Res =  0.3217E+02
 MRCHDU: Convergence failed at  70  side 1    Res =  0.6732E+02
 MRCHDU: Convergence failed at  71  side 1    Res =  0.1974E+03
 MRCHDU: Convergence failed at  72  side 1    Res =  0.3821E+02
 MRCHDU: Convergence failed at  73  side 1    Res =  0.1908E+02
 MRCHDU: Convergence failed at  74  side 1    Res =  0.1346E+02
 MRCHDU: Convergence failed at  75  side 1    Res =  0.9489E+01
 MRCHDU: Convergence failed at  76  side 1    Res =  0.7661E+01
 MRCHDU: Convergence failed at  77  side 1    Res =  0.1315E+02
 MRCHDU: Convergence failed at  78  side 1    Res =  0.1772E+02
 MRCHDU: Convergence failed at  79  side 1    Res =  0.2286E+02
 MRCHDU: Convergence failed at  80  side 1    Res =  0.3107E+02
 MRCHDU: Convergence failed at  81  side 1    Res =  0.4194E+02
 MRCHDU: Convergence failed at  82  side 1    Res =  0.2170E+02
 MRCHDU: Convergence failed at  83  side 1    Res =  0.1942E+02
 MRCHDU: Convergence failed at  84  side 1    Res =  0.1147E+03
 MRCHDU: Convergence failed at  85  side 1    Res =  0.2010E+02
 MRCHDU: Convergence failed at  86  side 1    Res =  0.1741E+03
 MRCHDU: Convergence failed at  87  side 1    Res =  0.2821E+02
 MRCHDU: Convergence failed at  88  side 1    Res =  0.1012E+02
 MRCHDU: Convergence failed at  89  side 1    Res =  0.1693E+02
 MRCHDU: Convergence failed at  90  side 1    Res =  0.1259E+02
 MRCHDU: Convergence failed at  91  side 1    Res =  0.4276E+02
 MRCHDU: Convergence failed at  92  side 1    Res =  0.4417E+02
 MRCHDU: Convergence failed at  93  side 1    Res =  0.6976E+03
 Side 1  free  transition at x/c =  0.3032   47
 Side 2 forced transition at x/c =  1.0000   69

   2   rms: 0.6639E+00   max: 0.2621E+01   D at   71  2   RLX: 0.250
       a =  7.000      CL =  1.6755
      Cm = -0.2768     CD =  0.00718   =>   CDf =  0.00412    CDp =  0.00306

 Side 1  free  transition at x/c =  0.3010   46
 Side 2 forced transition at x/c =  1.0000   69

   3   rms: 0.3400E+00   max: 0.1305E+01   C at   69  2   RLX: 0.731
       a =  7.000      CL =  1.4986
      Cm = -0.1504     CD =  0.01074   =>   CDf =  0.01046    CDp =  0.00028

 Side 1  free  transition at x/c =  0.2785   45
 Side 2 forced transition at x/c =  1.0000   69

   4   rms: 0.1628E+00   max: -.6617E+00   C at   69  2   RLX: 0.756
       a =  7.000      CL =  1.3562
      Cm = -0.0999     CD =  0.01688   =>   CDf =  0.00848    CDp =  0.00841

 Side 1  free  transition at x/c =  0.2935   46
 Side 2 forced transition at x/c =  1.0000   69

   5   rms: 0.4898E-01   max: 0.1631E+00   D at   46  1
       a =  7.000      CL =  1.3044
      Cm = -0.0834     CD =  0.01860   =>   CDf =  0.00787    CDp =  0.01073

 Side 1  free  transition at x/c =  0.2986   46
 Side 2 forced transition at x/c =  1.0000   69

   6   rms: 0.6248E-02   max: -.5755E-01   D at   47  1
       a =  7.000      CL =  1.3018
      Cm = -0.0829     CD =  0.01876   =>   CDf =  0.00776    CDp =  0.01100

 Side 1  free  transition at x/c =  0.3004   46
 Side 2 forced transition at x/c =  1.0000   69

   7   rms: 0.3546E-03   max: -.1846E-02   C at   46  1
       a =  7.000      CL =  1.3020
      Cm = -0.0830     CD =  0.01876   =>   CDf =  0.00774    CDp =  0.01103

 Side 1  free  transition at x/c =  0.3003   46
 Side 2 forced transition at x/c =  1.0000   69

   8   rms: 0.4624E-05   max: 0.1779E-04   C at   69  2
       a =  7.000      CL =  1.3020
      Cm = -0.0830     CD =  0.01876   =>   CDf =  0.00773    CDp =  0.01103
 plradd ia,ip,cpol           23           0  6.43856358E-04

 Point added to stored polar  1
 Point written to save file  n11_Re200k.base.pol                             
 Dump file unspecified or not available
 Calculating wake trajectory ...
 Calculating source influence matrix ...

 Solving BL system ...

 Side 1  free  transition at x/c =  0.3003   46
 Side 2 forced transition at x/c =  1.0000   69

   1   rms: 0.7589E-01   max: 0.3883E+00   T at   46  1
       a =  7.500      CL =  1.3422
      Cm = -0.0808     CD =  0.01934   =>   CDf =  0.00774    CDp =  0.01160

 Side 1  free  transition at x/c =  0.2716   44
 Side 2 forced transition at x/c =  1.0000   69

   2   rms: 0.3512E-01   max: -.4546E+00   D at   45  1
       a =  7.500      CL =  1.3372
      Cm = -0.0802     CD =  0.01984   =>   CDf =  0.00779    CDp =  0.01205

 Side 1  free  transition at x/c =  0.2819   45
 Side 2 forced transition at x/c =  1.0000   69

   3   rms: 0.2490E-01   max: 0.3351E+00   C at   45  1
       a =  7.500      CL =  1.3382
      Cm = -0.0802     CD =  0.01949   =>   CDf =  0.00745    CDp =  0.01205

 Side 1  free  transition at x/c =  0.2782   45
 Side 2 forced transition at x/c =  1.0000   69

   4   rms: 0.3822E-02   max: -.4951E-01   D at   47  1
       a =  7.500      CL =  1.3393
      Cm = -0.0804     CD =  0.01954   =>   CDf =  0.00757    CDp =  0.01196

 Side 1  free  transition at x/c =  0.2769   45
 Side 2 forced transition at x/c =  1.0000   69

   5   rms: 0.1991E-03   max: -.1928E-02   D at   45  1
       a =  7.500      CL =  1.3392
      Cm = -0.0804     CD =  0.01954   =>   CDf =  0.00760    CDp =  0.01194

 Side 1  free  transition at x/c =  0.2769   45
 Side 2 forced transition at x/c =  1.0000   69

   6   rms: 0.6134E-05   max: 0.2034E-04   C at   69  2
       a =  7.500      CL =  1.3393
      Cm = -0.0804     CD =  0.01954   =>   CDf =  0.00760    CDp =  0.01195
 plradd ia,ip,cpol           24           0  6.43856358E-04

 Point added to stored polar  1
 Point written to save file  n11_Re200k.base.pol                             
 Dump file unspecified or not available
 Calculating wake trajectory ...
 Calculating source influence matrix ...

 Solving BL system ...

 Side 1  free  transition at x/c =  0.2769   45
 Side 2 forced transition at x/c =  1.0000   69

   1   rms: 0.8061E-01   max: -.4084E+00   D at   46  1
       a =  8.000      CL =  1.3726
      Cm = -0.0773     CD =  0.02047   =>   CDf =  0.00729    CDp =  0.01319

 Side 1  free  transition at x/c =  0.2544   44
 Side 2 forced transition at x/c =  1.0000   68

   2   rms: 0.3084E-01   max: -.3511E+00   D at   45  1
       a =  8.000      CL =  1.3705
      Cm = -0.0768     CD =  0.02021   =>   CDf =  0.00748    CDp =  0.01272

 Side 1  free  transition at x/c =  0.2542   44
 Side 2 forced transition at x/c =  1.0000   68

   3   rms: 0.5820E-02   max: 0.3928E-01   C at   44  1
       a =  8.000      CL =  1.3738
      Cm = -0.0775     CD =  0.02037   =>   CDf =  0.00745    CDp =  0.01292

 Side 1  free  transition at x/c =  0.2517   44
 Side 2 forced transition at x/c =  1.0000   68

   4   rms: 0.6929E-03   max: -.4225E-02   C at   44  1
       a =  8.000      CL =  1.3732
      Cm = -0.0774     CD =  0.02037   =>   CDf =  0.00747    CDp =  0.01290

 Side 1  free  transition at x/c =  0.2519   44
 Side 2 forced transition at x/c =  1.0000   68

   5   rms: 0.1100E-04   max: -.4823E-04   D at   44  1
       a =  8.000      CL =  1.3732
      Cm = -0.0774     CD =  0.02037   =>   CDf =  0.00747    CDp =  0.01290
 plradd ia,ip,cpol           25           0  6.43856358E-04

 Point added to stored polar  1
 Point written to save file  n11_Re200k.base.pol                             
 Dump file unspecified or not available
 Calculating wake trajectory ...
 Calculating source influence matrix ...

 Solving BL system ...

 Side 1  free  transition at x/c =  0.2519   44
 Side 2 forced transition at x/c =  1.0000   68

   1   rms: 0.7493E-01   max: 0.3075E+00   T at   44  1
       a =  8.500      CL =  1.4077
      Cm = -0.0745     CD =  0.02115   =>   CDf =  0.00747    CDp =  0.01368

 Side 1  free  transition at x/c =  0.2237   42
 Side 2 forced transition at x/c =  1.0000   68

   2   rms: 0.2641E-01   max: -.3791E+00   D at   43  1
       a =  8.500      CL =  1.3983
      Cm = -0.0729     CD =  0.02129   =>   CDf =  0.00742    CDp =  0.01388

 Side 1  free  transition at x/c =  0.2285   42
 Side 2 forced transition at x/c =  1.0000   68

   3   rms: 0.5008E-02   max: 0.3330E-01   D at   43  1
       a =  8.500      CL =  1.4018
      Cm = -0.0735     CD =  0.02133   =>   CDf =  0.00738    CDp =  0.01395

 Side 1  free  transition at x/c =  0.2259   42
 Side 2 forced transition at x/c =  1.0000   68

   4   rms: 0.3544E-03   max: -.4233E-02   C at   42  1
       a =  8.500      CL =  1.4016
      Cm = -0.0735     CD =  0.02134   =>   CDf =  0.00738    CDp =  0.01396

 Side 1  free  transition at x/c =  0.2261   42
 Side 2 forced transition at x/c =  1.0000   68

   5   rms: 0.6480E-05   max: 0.2978E-04   C at   68  2
       a =  8.500      CL =  1.4016
      Cm = -0.0735     CD =  0.02134   =>   CDf =  0.00738    CDp =  0.01396
 plradd ia,ip,cpol           26           0  6.43856358E-04

 Point added to stored polar  1
 Point written to save file  n11_Re200k.base.pol                             
 Dump file unspecified or not available
 Calculating wake trajectory ...
 Calculating source influence matrix ...

 Solving BL system ...

 Side 1  free  transition at x/c =  0.2261   42
 Side 2 forced transition at x/c =  1.0000   68

   1   rms: 0.7404E-01   max: 0.2748E+00   T at   42  1
       a =  9.000      CL =  1.4362
      Cm = -0.0707     CD =  0.02221   =>   CDf =  0.00738    CDp =  0.01483

 Side 1  free  transition at x/c =  0.1838   39
 Side 2 forced transition at x/c =  1.0000   68

   2   rms: 0.2845E-01   max: -.4027E+00   D at   40  1
       a =  9.000      CL =  1.4199
      Cm = -0.0687     CD =  0.02298   =>   CDf =  0.00751    CDp =  0.01547

 Side 1  free  transition at x/c =  0.1935   40
 Side 2 forced transition at x/c =  1.0000   68

   3   rms: 0.7618E-02   max: 0.1041E+00   C at   40  1
       a =  9.000      CL =  1.4244
      Cm = -0.0692     CD =  0.02274   =>   CDf =  0.00737    CDp =  0.01537

 Side 1  free  transition at x/c =  0.1903   40
 Side 2 forced transition at x/c =  1.0000   68

   4   rms: 0.2030E-03   max: -.3093E-02   D at   42  1
       a =  9.000      CL =  1.4244
      Cm = -0.0692     CD =  0.02274   =>   CDf =  0.00740    CDp =  0.01534

 Side 1  free  transition at x/c =  0.1902   40
 Side 2 forced transition at x/c =  1.0000   68

   5   rms: 0.1330E-05   max: 0.5866E-05   D at   41  1
       a =  9.000      CL =  1.4244
      Cm = -0.0692     CD =  0.02274   =>   CDf =  0.00740    CDp =  0.01534
 plradd ia,ip,cpol           27           0  1.75067195E-04

 Point added to stored polar  1
 Point written to save file  n11_Re200k.base.pol                             
 Dump file unspecified or not available
 Calculating wake trajectory ...
 Calculating source influence matrix ...

 Solving BL system ...

 Side 1  free  transition at x/c =  0.1902   40
 Side 2 forced transition at x/c =  1.0000   68

   1   rms: 0.9037E-01   max: 0.7964E+00   C at   40  1   RLX: 0.993
       a =  9.500      CL =  1.4397
      Cm = -0.0644     CD =  0.02480   =>   CDf =  0.00705    CDp =  0.01775

 Side 1  free  transition at x/c =  0.1545   38
 Side 2 forced transition at x/c =  1.0000   67

   2   rms: 0.2184E-01   max: 0.2199E+00   D at   40  1
       a =  9.500      CL =  1.4414
      Cm = -0.0647     CD =  0.02477   =>   CDf =  0.00751    CDp =  0.01726

 Side 1  free  transition at x/c =  0.1507   38
 Side 2 forced transition at x/c =  1.0000   67

   3   rms: 0.2507E-02   max: -.2237E-01   D at    4  1
       a =  9.500      CL =  1.4403
      Cm = -0.0646     CD =  0.02487   =>   CDf =  0.00748    CDp =  0.01738

 Side 1  free  transition at x/c =  0.1505   38
 Side 2 forced transition at x/c =  1.0000   67

   4   rms: 0.1608E-04   max: -.1251E-03   C at   38  1
       a =  9.500      CL =  1.4403
      Cm = -0.0646     CD =  0.02487   =>   CDf =  0.00749    CDp =  0.01738
 plradd ia,ip,cpol           28           0  1.75067195E-04

 Point added to stored polar  1
 Point written to save file  n11_Re200k.base.pol                             
 Dump file unspecified or not available
 Calculating wake trajectory ...
 Calculating source influence matrix ...

 Solving BL system ...

 Side 1  free  transition at x/c =  0.1505   38
 Side 2 forced transition at x/c =  1.0000   67

   1   rms: 0.9645E-01   max: 0.9641E+00   C at   38  1   RLX: 0.986
       a = 10.000      CL =  1.4560
      Cm = -0.0604     CD =  0.02743   =>   CDf =  0.00749    CDp =  0.01993

 Side 1  free  transition at x/c =  0.0743   32
 Side 2 forced transition at x/c =  1.0000   67

   2   rms: 0.3413E-01   max: -.2850E+00   D at   38  1
       a = 10.000      CL =  1.4357
      Cm = -0.0586     CD =  0.02874   =>   CDf =  0.00807    CDp =  0.02067

 Side 1  free  transition at x/c =  0.0807   32
 Side 2 forced transition at x/c =  1.0000   67

   3   rms: 0.3159E-02   max: -.5301E-01   C at   32  1
       a = 10.000      CL =  1.4356
      Cm = -0.0585     CD =  0.02879   =>   CDf =  0.00799    CDp =  0.02080

 Side 1  free  transition at x/c =  0.0811   32
 Side 2 forced transition at x/c =  1.0000   67

   4   rms: 0.1190E-03   max: 0.1993E-02   C at   32  1
       a = 10.000      CL =  1.4357
      Cm = -0.0586     CD =  0.02880   =>   CDf =  0.00799    CDp =  0.02081

 Side 1  free  transition at x/c =  0.0810   32
 Side 2 forced transition at x/c =  1.0000   67

   5   rms: 0.2253E-05   max: -.2758E-04   C at   32  1
       a = 10.000      CL =  1.4357
      Cm = -0.0586     CD =  0.02880   =>   CDf =  0.00799    CDp =  0.02081
 plradd ia,ip,cpol           29           0  1.75067195E-04

 Point added to stored polar  1
 Point written to save file  n11_Re200k.base.pol                             
 Dump file unspecified or not available

.OPERva   c>  
 Solving BL system ...

 Side 1  free  transition at x/c =  0.0810   32
 Side 2 forced transition at x/c =  1.0000   67

   1   rms: 0.4573E-06   max: -.2674E-05   D at   32  1
       a = 10.000      CL =  1.4357
      Cm = -0.0586     CD =  0.02880   =>   CDf =  0.00799    CDp =  0.02081
 plradd ia,ip,cpol           30         182  1.75067195E-04

 Point added to stored polar  1
 Point written to save file  n11_Re200k.base.pol                             
 Dump file unspecified or not available
 Calculating wake trajectory ...
 Calculating source influence matrix ...

 Solving BL system ...

 Side 1  free  transition at x/c =  0.0810   32
 Side 2 forced transition at x/c =  1.0000   67

   1   rms: 0.5716E-01   max: 0.8533E+00   C at   32  1
       a = 10.250      CL =  1.4385
      Cm = -0.0563     CD =  0.03075   =>   CDf =  0.00799    CDp =  0.02276

 Side 1  free  transition at x/c =  0.0520   30
 Side 2 forced transition at x/c =  1.0000   67

   2   rms: 0.1330E-01   max: -.2374E+00   C at   30  1
       a = 10.250      CL =  1.4325
      Cm = -0.0558     CD =  0.03103   =>   CDf =  0.00813    CDp =  0.02290

 Side 1  free  transition at x/c =  0.0568   30
 Side 2 forced transition at x/c =  1.0000   67

   3   rms: 0.4569E-03   max: -.8868E-02   C at   30  1
       a = 10.250      CL =  1.4325
      Cm = -0.0558     CD =  0.03104   =>   CDf =  0.00807    CDp =  0.02297

 Side 1  free  transition at x/c =  0.0570   30
 Side 2 forced transition at x/c =  1.0000   67

   4   rms: 0.9113E-05   max: 0.1007E-03   C at   30  1
       a = 10.250      CL =  1.4325
      Cm = -0.0558     CD =  0.03104   =>   CDf =  0.00807    CDp =  0.02297
 plradd ia,ip,cpol           31           0  1.75067195E-04

 Point added to stored polar  1
 Point written to save file  n11_Re200k.base.pol                             
 Dump file unspecified or not available
 Calculating wake trajectory ...
 Calculating source influence matrix ...

 Solving BL system ...

 Side 1  free  transition at x/c =  0.0570   30
 Side 2 forced transition at x/c =  1.0000   67

   1   rms: 0.6208E-01   max: 0.1034E+01   C at   30  1
       a = 10.500      CL =  1.4339
      Cm = -0.0537     CD =  0.03325   =>   CDf =  0.00807    CDp =  0.02518

 Side 1  free  transition at x/c =  0.0351   28
 Side 2 forced transition at x/c =  1.0000   67

   2   rms: 0.1968E-01   max: -.2970E+00   C at   28  1
       a = 10.500      CL =  1.4268
      Cm = -0.0533     CD =  0.03358   =>   CDf =  0.00830    CDp =  0.02528

 Side 1  free  transition at x/c =  0.0387   28
 Side 2 forced transition at x/c =  1.0000   67

   3   rms: 0.1621E-02   max: -.1901E-01   D at   28  1
       a = 10.500      CL =  1.4271
      Cm = -0.0533     CD =  0.03358   =>   CDf =  0.00822    CDp =  0.02536

 Side 1  free  transition at x/c =  0.0386   28
 Side 2 forced transition at x/c =  1.0000   67

   4   rms: 0.2042E-04   max: 0.4123E-03   C at   28  1
       a = 10.500      CL =  1.4271
      Cm = -0.0533     CD =  0.03358   =>   CDf =  0.00822    CDp =  0.02536
 plradd ia,ip,cpol           32           0  1.75067195E-04

 Point added to stored polar  1
 Point written to save file  n11_Re200k.base.pol                             
 Dump file unspecified or not available
 Calculating wake trajectory ...
 Calculating source influence matrix ...

 Solving BL system ...

 Side 1  free  transition at x/c =  0.0386   28
 Side 2 forced transition at x/c =  1.0000   67

   1   rms: 0.6040E-01   max: 0.1023E+01   C at   28  1   RLX: 0.945
       a = 10.750      CL =  1.4267
      Cm = -0.0515     CD =  0.03596   =>   CDf =  0.00822    CDp =  0.02774

 Side 1  free  transition at x/c =  0.0329   28
 Side 2 forced transition at x/c =  1.0000   67

   2   rms: 0.5618E-02   max: 0.6360E-01   D at   28  1
       a = 10.750      CL =  1.4246
      Cm = -0.0513     CD =  0.03604   =>   CDf =  0.00825    CDp =  0.02779

 Side 1  free  transition at x/c =  0.0332   28
 Side 2 forced transition at x/c =  1.0000   67

   3   rms: 0.2397E-03   max: -.2630E-02   D at   28  1
       a = 10.750      CL =  1.4245
      Cm = -0.0513     CD =  0.03602   =>   CDf =  0.00822    CDp =  0.02780

 Side 1  free  transition at x/c =  0.0332   28
 Side 2 forced transition at x/c =  1.0000   67

   4   rms: 0.1073E-04   max: -.6777E-04   C at   28  1
       a = 10.750      CL =  1.4245
      Cm = -0.0513     CD =  0.03601   =>   CDf =  0.00822    CDp =  0.02780
 plradd ia,ip,cpol           33           0  1.75067195E-04

 Point added to stored polar  1
 Point written to save file  n11_Re200k.base.pol                             
 Dump file unspecified or not available
 Calculating wake trajectory ...
 Calculating source influence matrix ...

 Solving BL system ...

 Side 1  free  transition at x/c =  0.0332   28
 Side 2 forced transition at x/c =  1.0000   67

   1   rms: 0.4490E-01   max: 0.2789E+00   C at   28  1   RLX: 0.890
       a = 11.000      CL =  1.4232
      Cm = -0.0499     CD =  0.03848   =>   CDf =  0.00822    CDp =  0.03026

 Side 1  free  transition at x/c =  0.0309   27
 Side 2 forced transition at x/c =  1.0000   67

   2   rms: 0.8695E-02   max: -.1208E+00   D at   27  1
       a = 11.000      CL =  1.4249
      Cm = -0.0498     CD =  0.03829   =>   CDf =  0.00810    CDp =  0.03019

 Side 1  free  transition at x/c =  0.0308   27
 Side 2 forced transition at x/c =  1.0000   67

   3   rms: 0.5381E-03   max: 0.6649E-02   D at   27  1
[...]
       a = 13.250      CL =  1.3750
      Cm = -0.0463     CD =  0.06911   =>   CDf =  0.00698    CDp =  0.06213

 Side 1  free  transition at x/c =  0.0242   27
 Side 2 forced transition at x/c =  1.0000   66

   2   rms: 0.1646E-01   max: 0.7003E-01   D at   64  1
       a = 13.250      CL =  1.3709
      Cm = -0.0466     CD =  0.07096   =>   CDf =  0.00691    CDp =  0.06405

 Side 1  free  transition at x/c =  0.0240   27
 Side 2 forced transition at x/c =  1.0000   66

   3   rms: 0.2832E-02   max: 0.1685E-01   D at   81  2
       a = 13.250      CL =  1.3688
      Cm = -0.0464     CD =  0.07071   =>   CDf =  0.00686    CDp =  0.06385

 Side 1  free  transition at x/c =  0.0241   27
 Side 2 forced transition at x/c =  1.0000   66

   4   rms: 0.1548E-03   max: 0.1369E-02   D at   81  2
       a = 13.250      CL =  1.3687
      Cm = -0.0464     CD =  0.07067   =>   CDf =  0.00686    CDp =  0.06381

 Side 1  free  transition at x/c =  0.0241   27
 Side 2 forced transition at x/c =  1.0000   66

   5   rms: 0.7084E-05   max: -.2287E-04   D at   63  1
       a = 13.250      CL =  1.3687
      Cm = -0.0464     CD =  0.07067   =>   CDf =  0.00686    CDp =  0.06381
 plradd ia,ip,cpol           43           0  1.75067195E-04

 Point added to stored polar  1
 Point written to save file  n11_Re200k.base.pol                             
 Dump file unspecified or not available
 Calculating wake trajectory ...
 Calculating source influence matrix ...

 Solving BL system ...

 Side 1  free  transition at x/c =  0.0241   27
 Side 2 forced transition at x/c =  1.0000   66

   1   rms: 0.3470E-01   max: 0.1352E+00   D at   61  1   RLX: 0.552
       a = 13.500      CL =  1.3670
      Cm = -0.0469     CD =  0.07340   =>   CDf =  0.00686    CDp =  0.06654

 Side 1  free  transition at x/c =  0.0237   27
 Side 2 forced transition at x/c =  1.0000   66

   2   rms: 0.1654E-01   max: 0.6835E-01   D at   63  1
       a = 13.500      CL =  1.3632
      Cm = -0.0472     CD =  0.07538   =>   CDf =  0.00680    CDp =  0.06858

 Side 1  free  transition at x/c =  0.0236   27
 Side 2 forced transition at x/c =  1.0000   66

   3   rms: 0.3076E-02   max: 0.1404E-01   D at   82  2
       a = 13.500      CL =  1.3610
      Cm = -0.0470     CD =  0.07514   =>   CDf =  0.00675    CDp =  0.06838

 Side 1  free  transition at x/c =  0.0236   27
 Side 2 forced transition at x/c =  1.0000   66

   4   rms: 0.1819E-03   max: 0.1341E-02   D at   82  2
       a = 13.500      CL =  1.3608
      Cm = -0.0470     CD =  0.07508   =>   CDf =  0.00674    CDp =  0.06834

 Side 1  free  transition at x/c =  0.0236   27
 Side 2 forced transition at x/c =  1.0000   66

   5   rms: 0.9632E-05   max: -.4297E-04   C at   66  2
       a = 13.500      CL =  1.3608
      Cm = -0.0470     CD =  0.07508   =>   CDf =  0.00674    CDp =  0.06834
 plradd ia,ip,cpol           44           0  1.75067195E-04

 Point added to stored polar  1
 Point written to save file  n11_Re200k.base.pol                             
 Dump file unspecified or not available
 Calculating wake trajectory ...
 Calculating source influence matrix ...

 Solving BL system ...

 Side 1  free  transition at x/c =  0.0236   27
 Side 2 forced transition at x/c =  1.0000   66

   1   rms: 0.3377E-01   max: 0.1315E+00   D at   60  1   RLX: 0.531
       a = 13.750      CL =  1.3591
      Cm = -0.0476     CD =  0.07778   =>   CDf =  0.00675    CDp =  0.07103

 Side 1  free  transition at x/c =  0.0233   27
 Side 2 forced transition at x/c =  1.0000   66

   2   rms: 0.1664E-01   max: 0.6765E-01   D at   61  1
       a = 13.750      CL =  1.3554
      Cm = -0.0479     CD =  0.07990   =>   CDf =  0.00670    CDp =  0.07320

 Side 1  free  transition at x/c =  0.0231   27
 Side 2 forced transition at x/c =  1.0000   66

   3   rms: 0.3185E-02   max: 0.1588E-01   D at   82  2
       a = 13.750      CL =  1.3531
      Cm = -0.0478     CD =  0.07961   =>   CDf =  0.00666    CDp =  0.07296

 Side 1  free  transition at x/c =  0.0232   27
 Side 2 forced transition at x/c =  1.0000   66

   4   rms: 0.1971E-03   max: 0.1707E-02   D at   82  2
       a = 13.750      CL =  1.3530
      Cm = -0.0478     CD =  0.07955   =>   CDf =  0.00665    CDp =  0.07290

 Side 1  free  transition at x/c =  0.0232   27
 Side 2 forced transition at x/c =  1.0000   66

   5   rms: 0.1147E-04   max: -.3410E-04   D at   60  1
       a = 13.750      CL =  1.3530
      Cm = -0.0478     CD =  0.07955   =>   CDf =  0.00665    CDp =  0.07290
 plradd ia,ip,cpol           45           0  1.75067195E-04

 Point added to stored polar  1
 Point written to save file  n11_Re200k.base.pol                             
 Dump file unspecified or not available
 Calculating wake trajectory ...
 Calculating source influence matrix ...

 Solving BL system ...

 Side 1  free  transition at x/c =  0.0232   27
 Side 2 forced transition at x/c =  1.0000   66

   1   rms: 0.3207E-01   max: 0.1224E+00   D at   58  1   RLX: 0.512
       a = 14.000      CL =  1.3516
      Cm = -0.0483     CD =  0.08209   =>   CDf =  0.00665    CDp =  0.07544

 Side 1  free  transition at x/c =  0.0229   27
 Side 2 forced transition at x/c =  1.0000   66

   2   rms: 0.1637E-01   max: 0.6618E-01   D at   60  1
       a = 14.000      CL =  1.3483
      Cm = -0.0487     CD =  0.08427   =>   CDf =  0.00662    CDp =  0.07766

 Side 1  free  transition at x/c =  0.0227   27
 Side 2 forced transition at x/c =  1.0000   66

   3   rms: 0.3133E-02   max: 0.1739E-01   D at   82  2
       a = 14.000      CL =  1.3461
      Cm = -0.0485     CD =  0.08397   =>   CDf =  0.00657    CDp =  0.07740

 Side 1  free  transition at x/c =  0.0228   27
 Side 2 forced transition at x/c =  1.0000   66

   4   rms: 0.2168E-03   max: 0.2401E-02   D at   82  2
       a = 14.000      CL =  1.3459
      Cm = -0.0485     CD =  0.08390   =>   CDf =  0.00657    CDp =  0.07733

 Side 1  free  transition at x/c =  0.0228   27
 Side 2 forced transition at x/c =  1.0000   66

   5   rms: 0.9588E-05   max: -.4071E-04   C at   66  2
       a = 14.000      CL =  1.3459
      Cm = -0.0485     CD =  0.08390   =>   CDf =  0.00657    CDp =  0.07733
 plradd ia,ip,cpol           46           0 -6.06698086E-05

 Point added to stored polar  1
 Point written to save file  n11_Re200k.base.pol                             
 Dump file unspecified or not available
 Calculating wake trajectory ...
 Calculating source influence matrix ...

 Solving BL system ...

 Side 1  free  transition at x/c =  0.0228   27
 Side 2 forced transition at x/c =  1.0000   66

   1   rms: 0.3060E-01   max: 0.1114E+00   D at   57  1   RLX: 0.494
       a = 14.250      CL =  1.3448
      Cm = -0.0489     CD =  0.08630   =>   CDf =  0.00657    CDp =  0.07973

 Side 1  free  transition at x/c =  0.0226   27
 Side 2 forced transition at x/c =  1.0000   66

   2   rms: 0.1586E-01   max: 0.5955E-01   D at   59  1
       a = 14.250      CL =  1.3422
      Cm = -0.0492     CD =  0.08839   =>   CDf =  0.00654    CDp =  0.08184

 Side 1  free  transition at x/c =  0.0224   27
 Side 2 forced transition at x/c =  1.0000   66

   3   rms: 0.3068E-02   max: 0.1372E-01   D at   82  2
       a = 14.250      CL =  1.3401
      Cm = -0.0491     CD =  0.08810   =>   CDf =  0.00651    CDp =  0.08159

 Side 1  free  transition at x/c =  0.0224   27
 Side 2 forced transition at x/c =  1.0000   66

   4   rms: 0.2739E-03   max: 0.1762E-02   D at   82  2
       a = 14.250      CL =  1.3398
      Cm = -0.0490     CD =  0.08803   =>   CDf =  0.00651    CDp =  0.08152

 Side 1  free  transition at x/c =  0.0224   27
 Side 2 forced transition at x/c =  1.0000   66

   5   rms: 0.1101E-04   max: 0.7183E-04   D at   82  2
       a = 14.250      CL =  1.3398
      Cm = -0.0490     CD =  0.08802   =>   CDf =  0.00650    CDp =  0.08152
 plradd ia,ip,cpol           47           0 -6.06698086E-05

 Point added to stored polar  1
 Point written to save file  n11_Re200k.base.pol                             
 Dump file unspecified or not available
 Calculating wake trajectory ...
 Calculating source influence matrix ...

 Solving BL system ...

 Side 1  free  transition at x/c =  0.0224   27
 Side 2 forced transition at x/c =  1.0000   66

   1   rms: 0.2827E-01   max: 0.8866E-01   D at   56  1   RLX: 0.479
       a = 14.500      CL =  1.3398
      Cm = -0.0492     CD =  0.09004   =>   CDf =  0.00651    CDp =  0.08353

 Side 1  free  transition at x/c =  0.0222   27
 Side 2 forced transition at x/c =  1.0000   66

   2   rms: 0.1474E-01   max: 0.4471E-01   D at   58  1
       a = 14.500      CL =  1.3389
      Cm = -0.0492     CD =  0.09184   =>   CDf =  0.00649    CDp =  0.08535

 Side 1  free  transition at x/c =  0.0220   27
 Side 2 forced transition at x/c =  1.0000   66

   3   rms: 0.3126E-02   max: 0.1213E-01   D at   83  2
       a = 14.500      CL =  1.3369
      Cm = -0.0493     CD =  0.09168   =>   CDf =  0.00647    CDp =  0.08521

 Side 1  free  transition at x/c =  0.0221   27
 Side 2 forced transition at x/c =  1.0000   66

   4   rms: 0.2698E-03   max: 0.1791E-02   D at   83  2
       a = 14.500      CL =  1.3367
      Cm = -0.0492     CD =  0.09159   =>   CDf =  0.00646    CDp =  0.08513

 Side 1  free  transition at x/c =  0.0221   27
 Side 2 forced transition at x/c =  1.0000   66

   5   rms: 0.1890E-04   max: -.7324E-04   D at   56  1
       a = 14.500      CL =  1.3367
      Cm = -0.0492     CD =  0.09159   =>   CDf =  0.00646    CDp =  0.08513
 plradd ia,ip,cpol           48           0 -6.06698086E-05

 Point added to stored polar  1
 Point written to save file  n11_Re200k.base.pol                             
 Dump file unspecified or not available
 Calculating wake trajectory ...
 Calculating source influence matrix ...

 Solving BL system ...

 Side 1  free  transition at x/c =  0.0221   27
 Side 2 forced transition at x/c =  1.0000   66

   1   rms: 0.2808E-01   max: 0.9087E-01   T at   27  1   RLX: 0.466
       a = 14.750      CL =  1.3379
      Cm = -0.0491     CD =  0.09309   =>   CDf =  0.00646    CDp =  0.08663

 Side 1  free  transition at x/c =  0.0219   27
 Side 2 forced transition at x/c =  1.0000   66

   2   rms: 0.1543E-01   max: 0.4777E-01   T at   27  1
       a = 14.750      CL =  1.3393
      Cm = -0.0485     CD =  0.09429   =>   CDf =  0.00646    CDp =  0.08783

 Side 1  free  transition at x/c =  0.0217   27
 Side 2 forced transition at x/c =  1.0000   66

   3   rms: 0.2942E-02   max: 0.9903E-02   D at   83  2
       a = 14.750      CL =  1.3375
      Cm = -0.0486     CD =  0.09433   =>   CDf =  0.00645    CDp =  0.08787

 Side 1  free  transition at x/c =  0.0217   27
 Side 2 forced transition at x/c =  1.0000   66

   4   rms: 0.2670E-03   max: 0.1659E-02   D at   83  2
       a = 14.750      CL =  1.3373
      Cm = -0.0486     CD =  0.09426   =>   CDf =  0.00645    CDp =  0.08781

 Side 1  free  transition at x/c =  0.0217   27
 Side 2 forced transition at x/c =  1.0000   66

   5   rms: 0.2776E-04   max: -.1084E-03   D at   56  1
       a = 14.750      CL =  1.3373
      Cm = -0.0486     CD =  0.09425   =>   CDf =  0.00645    CDp =  0.08780
 plradd ia,ip,cpol           49           0 -6.06698086E-05

 Point added to stored polar  1
 Point written to save file  n11_Re200k.base.pol                             
 Dump file unspecified or not available
 Calculating wake trajectory ...
 Calculating source influence matrix ...

 Solving BL system ...

 Side 1  free  transition at x/c =  0.0217   27
 Side 2 forced transition at x/c =  1.0000   66

   1   rms: 0.3427E-01   max: 0.1057E+00   D at   29  1   RLX: 0.456
       a = 15.000      CL =  1.3408
      Cm = -0.0478     CD =  0.09489   =>   CDf =  0.00645    CDp =  0.08843

 Side 1  free  transition at x/c =  0.0215   27
 Side 2 forced transition at x/c =  1.0000   66

   2   rms: 0.2203E-01   max: 0.7385E-01   D at   29  1
       a = 15.000      CL =  1.3466
      Cm = -0.0461     CD =  0.09498   =>   CDf =  0.00646    CDp =  0.08853

 Side 1  free  transition at x/c =  0.0214   26
 Side 2 forced transition at x/c =  1.0000   66

   3   rms: 0.1391E-01   max: 0.7944E-01   D at   59  1
       a = 15.000      CL =  1.3432
      Cm = -0.0479     CD =  0.09691   =>   CDf =  0.00645    CDp =  0.09046

 Side 1  free  transition at x/c =  0.0214   26
 Side 2 forced transition at x/c =  1.0000   66

   4   rms: 0.2177E-02   max: 0.1239E-01   D at   83  2
       a = 15.000      CL =  1.3415
      Cm = -0.0477     CD =  0.09643   =>   CDf =  0.00641    CDp =  0.09002

 Side 1  free  transition at x/c =  0.0214   26
 Side 2 forced transition at x/c =  1.0000   66

   5   rms: 0.1101E-03   max: 0.1509E-02   D at   83  2
       a = 15.000      CL =  1.3415
      Cm = -0.0477     CD =  0.09638   =>   CDf =  0.00641    CDp =  0.08996

 Side 1  free  transition at x/c =  0.0214   26
 Side 2 forced transition at x/c =  1.0000   66

   6   rms: 0.1024E-04   max: -.2975E-04   D at   57  1
       a = 15.000      CL =  1.3415
      Cm = -0.0477     CD =  0.09638   =>   CDf =  0.00641    CDp =  0.08996
 plradd ia,ip,cpol           50           0 -6.06698086E-05

 Point added to stored polar  1
 Point written to save file  n11_Re200k.base.pol                             
 Dump file unspecified or not available
 Calculating wake trajectory ...
 Calculating source influence matrix ...

 Solving BL system ...

 Side 1  free  transition at x/c =  0.0214   26
 Side 2 forced transition at x/c =  1.0000   66

   1   rms: 0.2665E-01   max: 0.6497E-01   D at   29  1   RLX: 0.446
       a = 15.250      CL =  1.3445
      Cm = -0.0476     CD =  0.09765   =>   CDf =  0.00588    CDp =  0.09177

 Side 1  free  transition at x/c =  0.0213   27
 Side 2 forced transition at x/c =  1.0000   65

   2   rms: 0.2418E-01   max: 0.3284E+00   T at    2  1
       a = 15.250      CL =  1.3470
      Cm = -0.0476     CD =  0.09926   =>   CDf =  0.00635    CDp =  0.09290

 Side 1  free  transition at x/c =  0.0212   27
 Side 2 forced transition at x/c =  1.0000   65

   3   rms: 0.3639E-02   max: 0.1199E-01   D at   59  1
       a = 15.250      CL =  1.3445
      Cm = -0.0478     CD =  0.09929   =>   CDf =  0.00629    CDp =  0.09301

 Side 1  free  transition at x/c =  0.0212   27
 Side 2 forced transition at x/c =  1.0000   65

   4   rms: 0.3646E-03   max: 0.2239E-02   D at   82  2
       a = 15.250      CL =  1.3442
      Cm = -0.0477     CD =  0.09918   =>   CDf =  0.00629    CDp =  0.09290

 Side 1  free  transition at x/c =  0.0212   27
 Side 2 forced transition at x/c =  1.0000   65

   5   rms: 0.2118E-04   max: -.8271E-04   D at   56  1
       a = 15.250      CL =  1.3442
      Cm = -0.0477     CD =  0.09917   =>   CDf =  0.00629    CDp =  0.09289
 plradd ia,ip,cpol           51           0 -6.06698086E-05

 Point added to stored polar  1
 Point written to save file  n11_Re200k.base.pol                             
 Dump file unspecified or not available
 Calculating wake trajectory ...
 Calculating source influence matrix ...

 Solving BL system ...

 Side 1  free  transition at x/c =  0.0212   27
 Side 2 forced transition at x/c =  1.0000   65

   1   rms: 0.2698E-01   max: 0.6914E-01   D at   30  1   RLX: 0.437
       a = 15.500      CL =  1.3475
      Cm = -0.0476     CD =  0.10034   =>   CDf =  0.00629    CDp =  0.09405

 Side 1  free  transition at x/c =  0.0211   27
 Side 2 forced transition at x/c =  1.0000   65

   2   rms: 0.1490E-01   max: 0.3720E-01   D at   30  1
       a = 15.500      CL =  1.3504
      Cm = -0.0476     CD =  0.10193   =>   CDf =  0.00624    CDp =  0.09569

 Side 1  free  transition at x/c =  0.0210   27
 Side 2 forced transition at x/c =  1.0000   65

   3   rms: 0.4007E-02   max: 0.1412E-01   D at   59  1
       a = 15.500      CL =  1.3478
      Cm = -0.0477     CD =  0.10205   =>   CDf =  0.00617    CDp =  0.09588

 Side 1  free  transition at x/c =  0.0211   27
 Side 2 forced transition at x/c =  1.0000   65

   4   rms: 0.4348E-03   max: 0.2786E-02   D at   82  2
       a = 15.500      CL =  1.3474
      Cm = -0.0477     CD =  0.10192   =>   CDf =  0.00617    CDp =  0.09574

 Side 1  free  transition at x/c =  0.0211   27
 Side 2 forced transition at x/c =  1.0000   65

   5   rms: 0.2748E-04   max: -.1039E-03   D at   57  1
       a = 15.500      CL =  1.3475
      Cm = -0.0477     CD =  0.10190   =>   CDf =  0.00617    CDp =  0.09573
 plradd ia,ip,cpol           52           0 -6.06698086E-05

 Point added to stored polar  1
 Point written to save file  n11_Re200k.base.pol                             
 Dump file unspecified or not available
 Calculating wake trajectory ...
 Calculating source influence matrix ...

 Solving BL system ...

 Side 1  free  transition at x/c =  0.0211   27
 Side 2 forced transition at x/c =  1.0000   65

   1   rms: 0.2722E-01   max: 0.7181E-01   D at   30  1   RLX: 0.427
       a = 15.750      CL =  1.3506
      Cm = -0.0476     CD =  0.10309   =>   CDf =  0.00618    CDp =  0.09691

 Side 1  free  transition at x/c =  0.0210   27
 Side 2 forced transition at x/c =  1.0000   65

   2   rms: 0.1525E-01   max: 0.3875E-01   D at   30  1
       a = 15.750      CL =  1.3533
      Cm = -0.0476     CD =  0.10482   =>   CDf =  0.00612    CDp =  0.09869

 Side 1  free  transition at x/c =  0.0209   27
 Side 2 forced transition at x/c =  1.0000   65

   3   rms: 0.4076E-02   max: 0.1363E-01   D at   59  1
       a = 15.750      CL =  1.3506
      Cm = -0.0478     CD =  0.10491   =>   CDf =  0.00605    CDp =  0.09886

 Side 1  free  transition at x/c =  0.0209   27
 Side 2 forced transition at x/c =  1.0000   65

   4   rms: 0.4369E-03   max: 0.2891E-02   D at   82  2
       a = 15.750      CL =  1.3502
      Cm = -0.0478     CD =  0.10476   =>   CDf =  0.00605    CDp =  0.09871

 Side 1  free  transition at x/c =  0.0209   27
 Side 2 forced transition at x/c =  1.0000   65

   5   rms: 0.3179E-04   max: -.1170E-03   D at   56  1
       a = 15.750      CL =  1.3502
      Cm = -0.0478     CD =  0.10475   =>   CDf =  0.00605    CDp =  0.09870
 plradd ia,ip,cpol           53           0 -6.06698086E-05

 Point added to stored polar  1
 Point written to save file  n11_Re200k.base.pol                             
 Dump file unspecified or not available
 Calculating wake trajectory ...
 Calculating source influence matrix ...

 Solving BL system ...

 Side 1  free  transition at x/c =  0.0209   27
 Side 2 forced transition at x/c =  1.0000   65

   1   rms: 0.2731E-01   max: 0.7343E-01   D at   30  1   RLX: 0.418
       a = 16.000      CL =  1.3532
      Cm = -0.0477     CD =  0.10595   =>   CDf =  0.00605    CDp =  0.09990

 Side 1  free  transition at x/c =  0.0208   27
 Side 2 forced transition at x/c =  1.0000   65

   2   rms: 0.1536E-01   max: 0.4036E-01   D at   58  1
       a = 16.000      CL =  1.3553
      Cm = -0.0479     CD =  0.10798   =>   CDf =  0.00600    CDp =  0.10198

 Side 1  free  transition at x/c =  0.0207   27
 Side 2 forced transition at x/c =  1.0000   65

   3   rms: 0.4921E-02   max: 0.1740E-01   D at   58  1
       a = 16.000      CL =  1.3521
      Cm = -0.0482     CD =  0.10811   =>   CDf =  0.00591    CDp =  0.10220

 Side 1  free  transition at x/c =  0.0208   27
 Side 2 forced transition at x/c =  1.0000   65

   4   rms: 0.4663E-03   max: 0.3262E-02   D at   83  2
       a = 16.000      CL =  1.3518
      Cm = -0.0481     CD =  0.10790   =>   CDf =  0.00591    CDp =  0.10199

 Side 1  free  transition at x/c =  0.0208   27
 Side 2 forced transition at x/c =  1.0000   65

   5   rms: 0.4579E-04   max: -.1371E-03   D at   56  1
       a = 16.000      CL =  1.3518
      Cm = -0.0481     CD =  0.10789   =>   CDf =  0.00591    CDp =  0.10198
 plradd ia,ip,cpol           54           0 -6.06698086E-05

 Point added to stored polar  1
 Point written to save file  n11_Re200k.base.pol                             
 Dump file unspecified or not available

.OPERva   c>  
 Polar accumulation disabled

.OPERv   c>  
 XFOIL   c>  
 XFOIL   c>  