
 ===================================================
  XFOIL Version 6.99
  Copyright (C) 2000   Mark Drela, Harold Youngren

  This software comes with ABSOLUTELY NO WARRANTY,
    subject to the GNU General Public License.

  Caveat computor
 ===================================================

 File  xfoil.def  not found

   QUIT    Exit program

  .OPER    Direct operating point(s)
  .MDES    Complex mapping design routine
  .QDES    Surface speed design routine
  .GDES    Geometry design routine

   SAVE f  Write airfoil to labeled coordinate file
   PSAV f  Write airfoil to plain coordinate file
   ISAV f  Write airfoil to ISES coordinate file
   MSAV f  Write airfoil to MSES coordinate file
   REVE    Reverse written-airfoil node ordering

   LOAD f  Read buffer airfoil from coordinate file
   NACA i  Set NACA 4,5-digit airfoil and buffer airfoil
   INTE    Set buffer airfoil by interpolating two airfoils
   NORM    Buffer airfoil normalization toggle
   XYCM rr Change CM reference location, currently  0.25000 0.00000

   BEND    Display structural properties of current airfoil

   PCOP    Set current-airfoil panel nodes directly from buffer airfoil points
   PANE    Set current-airfoil panel nodes ( 160 ) based on curvature
  .PPAR    Show/change paneling

  .PLOP    Plotting options

   WDEF f  Write  current-settings file
   RDEF f  Reread current-settings file
   NAME s  Specify new airfoil name
   NINC    Increment name version number

   Z       Zoom    | (available in all menus)
   U       Unzoom  | 

 XFOIL   c>  
 Labeled airfoil file.  Name:  N-11                                            

 Number of input coordinate points:  33
 Counterclockwise ordering
 Max thickness =     0.109473  at x =   0.297
 Max camber    =     0.042642  at x =   0.402

  LE  x,y  =  -0.00009   0.02452  |   Chord =   1.00036
  TE  x,y  =   1.00000   0.00100  |

 Current airfoil nodes set from buffer airfoil nodes (  33 )

 WARNING: Poor input coordinate distribution
          Excessive panel angle   74.6  at i =  17
          Repaneling with PANE and/or PPAR suggested
           (doing GDES,CADD before repaneling _may_
            improve excessively coarse LE spacing

 XFOIL   c>  
 XFOIL   c>  
 Blunt trailing edge.  Gap =  0.00200

 Paneling parameters used...
   Number of panel nodes       160
   Panel bunching parameter    1.000
   TE/LE panel density ratio   0.150
   Refined-area/LE panel density ratio    0.200
   Top    side refined area x/c limits  1.000 1.000
   Bottom side refined area x/c limits  1.000 1.000

 XFOIL   c>  
.OPERi   c>  
 Xtr/c     =  1.0000    top    side
 Xtr/c     =  1.0000    bottom side
 Ncrit     =    9.00   ( 0.070 % turb. level )
 Vacc      =  0.0100

 Klag  =  5.6000     Uxwt  =    1.00
 A     =  6.7000     B     =  0.7500       KCt = 0.01485
 CtiniK=  1.8000     CtiniX=  3.3000

..VPAR   c>  
..VPAR   c>  
.OPERi   c>  
 M  =    0.0000
 Re =    150000

.OPERv   c>  
.OPERv   c>  
.OPERv   c>  
 Polar  1 newly created for accumulation
 Airfoil archived with polar: N-11                                            

Enter  polar save filename  OR  <return> for no file   s>  
 New polar save file available

Enter  polar dump filename  OR  <return> for no file   s>  
 Polar dump file will NOT be written

 Polar accumulation enabled

.OPERva   c>   Calculating unit vorticity distributions ...
 Calculating wake trajectory ...
 Calculating source influence matrix ...

 Solving BL system ...

 Initializing BL ...
    side            1  ...
 MRCHUE: Inverse mode at  57     Hk =   3.843
 MRCHUE: Inverse mode at  58     Hk =   4.154
 MRCHUE: Inverse mode at  59     Hk =   4.461
 MRCHUE: Inverse mode at  60     Hk =   4.767
 MRCHUE: Inverse mode at  61     Hk =   5.071
 MRCHUE: Inverse mode at  62     Hk =   5.373
 MRCHUE: Inverse mode at  63     Hk =   5.670
 MRCHUE: Inverse mode at  64     Hk =   5.962
 MRCHUE: Inverse mode at  65     Hk =   6.246
 MRCHUE: Inverse mode at  66     Hk =   6.522
 MRCHUE: Inverse mode at  67     Hk =   6.792
 MRCHUE: Inverse mode at  68     Hk =   7.056
 MRCHUE: Inverse mode at  69     Hk =   7.318
 MRCHUE: Inverse mode at  70     Hk =   7.581
 MRCHUE: Inverse mode at  71     Hk =   7.847
 MRCHUE: Inverse mode at  72     Hk =   8.117
 MRCHUE: Inverse mode at  73     Hk =   8.382
 MRCHUE: Inverse mode at  74     Hk =   8.628
 MRCHUE: Inverse mode at  75     Hk =   8.139
 MRCHUE: Inverse mode at  76     Hk =   7.301
 MRCHUE: Inverse mode at  77     Hk =   6.695
 MRCHUE: Inverse mode at  78     Hk =   6.378
    side            2  ...
 MRCHUE: Inverse mode at  18     Hk =   3.800
 MRCHUE: Convergence failed at  19  side 2    Res =  0.1216E+01
 MRCHUE: Inverse mode at  20     Hk =   4.686
 MRCHUE: Inverse mode at  21     Hk =   5.588
 MRCHUE: Inverse mode at  22     Hk =   6.458
 MRCHUE: Inverse mode at  23     Hk =   7.296
 MRCHUE: Inverse mode at  24     Hk =   8.171
 MRCHUE: Inverse mode at  25     Hk =   9.102
 MRCHUE: Inverse mode at  26     Hk =  10.020
 MRCHUE: Inverse mode at  27     Hk =   5.870
 MRCHUE: Inverse mode at  28     Hk =   4.001
 MRCHUE: Inverse mode at  29     Hk =   2.763
 MRCHUE: Inverse mode at  84     Hk =   2.500

 MRCHDU: Convergence failed at  27  side 2    Res =  0.3214E+01
 MRCHDU: Convergence failed at  28  side 2    Res =  0.9191E+02
 MRCHDU: Convergence failed at  29  side 2    Res =  0.9402E+01
 MRCHDU: Convergence failed at  30  side 2    Res =  0.9786E+01
 MRCHDU: Convergence failed at  31  side 2    Res =  0.1470E+02
 MRCHDU: Convergence failed at  32  side 2    Res =  0.1850E+02
 MRCHDU: Convergence failed at  33  side 2    Res =  0.2177E+02
 MRCHDU: Convergence failed at  34  side 2    Res =  0.2453E+02
 MRCHDU: Convergence failed at  35  side 2    Res =  0.2590E+02
 MRCHDU: Convergence failed at  36  side 2    Res =  0.2604E+02
 MRCHDU: Convergence failed at  37  side 2    Res =  0.2561E+02
 MRCHDU: Convergence failed at  38  side 2    Res =  0.2494E+02
 MRCHDU: Convergence failed at  39  side 2    Res =  0.2369E+02
 MRCHDU: Convergence failed at  40  side 2    Res =  0.2298E+02
 MRCHDU: Convergence failed at  41  side 2    Res =  0.2242E+02
 MRCHDU: Convergence failed at  42  side 2    Res =  0.2152E+02
 MRCHDU: Convergence failed at  43  side 2    Res =  0.2128E+02
 MRCHDU: Convergence failed at  44  side 2    Res =  0.2106E+02
 MRCHDU: Convergence failed at  45  side 2    Res =  0.2072E+02
 MRCHDU: Convergence failed at  46  side 2    Res =  0.2066E+02
 MRCHDU: Convergence failed at  47  side 2    Res =  0.2060E+02
 MRCHDU: Convergence failed at  48  side 2    Res =  0.2052E+02
 MRCHDU: Convergence failed at  49  side 2    Res =  0.2026E+02
 MRCHDU: Convergence failed at  50  side 2    Res =  0.2012E+02
 MRCHDU: Convergence failed at  51  side 2    Res =  0.1987E+02
 MRCHDU: Convergence failed at  52  side 2    Res =  0.1953E+02
 MRCHDU: Convergence failed at  53  side 2    Res =  0.1792E+02
 MRCHDU: Convergence failed at  54  side 2    Res =  0.1843E+02
 MRCHDU: Convergence failed at  55  side 2    Res =  0.1902E+02
 MRCHDU: Convergence failed at  56  side 2    Res =  0.1952E+02
 MRCHDU: Convergence failed at  57  side 2    Res =  0.1996E+02
 MRCHDU: Convergence failed at  58  side 2    Res =  0.2029E+02
 MRCHDU: Convergence failed at  59  side 2    Res =  0.2041E+02
 MRCHDU: Convergence failed at  60  side 2    Res =  0.2044E+02
 MRCHDU: Convergence failed at  61  side 2    Res =  0.2043E+02
 MRCHDU: Convergence failed at  62  side 2    Res =  0.2042E+02
 MRCHDU: Convergence failed at  63  side 2    Res =  0.2043E+02
 MRCHDU: Convergence failed at  64  side 2    Res =  0.2046E+02
 MRCHDU: Convergence failed at  65  side 2    Res =  0.2064E+02
 MRCHDU: Convergence failed at  66  side 2    Res =  0.2089E+02
 MRCHDU: Convergence failed at  67  side 2    Res =  0.2113E+02
 MRCHDU: Convergence failed at  68  side 2    Res =  0.2144E+02
 MRCHDU: Convergence failed at  69  side 2    Res =  0.2167E+02
 MRCHDU: Convergence failed at  70  side 2    Res =  0.2203E+02
 MRCHDU: Convergence failed at  71  side 2    Res =  0.2240E+02
 MRCHDU: Convergence failed at  72  side 2    Res =  0.2276E+02
 MRCHDU: Convergence failed at  73  side 2    Res =  0.2323E+02
 MRCHDU: Convergence failed at  74  side 2    Res =  0.2377E+02
 MRCHDU: Convergence failed at  75  side 2    Res =  0.2459E+02
 MRCHDU: Convergence failed at  76  side 2    Res =  0.2557E+02
 MRCHDU: Convergence failed at  77  side 2    Res =  0.2706E+02
 MRCHDU: Convergence failed at  78  side 2    Res =  0.2952E+02
 MRCHDU: Convergence failed at  79  side 2    Res =  0.3331E+02
 MRCHDU: Convergence failed at  80  side 2    Res =  0.7857E+02
 MRCHDU: Convergence failed at  81  side 2    Res =  0.5132E+02
 MRCHDU: Convergence failed at  82  side 2    Res =  0.7736E+02
 MRCHDU: Convergence failed at  83  side 2    Res =  0.4632E+03
 MRCHDU: Convergence failed at  84  side 2    Res =  0.1113E+04
 MRCHDU: Convergence failed at  86  side 2    Res =  0.2496E+00
 MRCHDU: Convergence failed at  87  side 2    Res =  0.5414E+00
 MRCHDU: Convergence failed at  88  side 2    Res =  0.6839E+00
 MRCHDU: Convergence failed at  89  side 2    Res =  0.7666E+00
 MRCHDU: Convergence failed at  90  side 2    Res =  0.8124E+00
 MRCHDU: Convergence failed at  91  side 2    Res =  0.8307E+00
 MRCHDU: Convergence failed at  92  side 2    Res =  0.8251E+00
 MRCHDU: Convergence failed at  93  side 2    Res =  0.7976E+00
 MRCHDU: Convergence failed at  94  side 2    Res =  0.7483E+00
 MRCHDU: Convergence failed at  95  side 2    Res =  0.6772E+00
 MRCHDU: Convergence failed at  96  side 2    Res =  0.5837E+00
 MRCHDU: Convergence failed at  97  side 2    Res =  0.4672E+00
 MRCHDU: Convergence failed at  98  side 2    Res =  0.3271E+00
 MRCHDU: Convergence failed at  99  side 2    Res =  0.1648E+00
 MRCHDU: Convergence failed at 100  side 2    Res =  0.1351E-01
 Side 1  free  transition at x/c =  0.9672   75
 Side 2  free  transition at x/c =  0.1054   27

   1   rms: 0.8017E+00   max: 0.3174E+01   D at  100  2   RLX: 0.473
       a = -4.000      CL = -0.1784
      Cm =  0.0138     CD =  0.00575   =>   CDf =  0.00401    CDp =  0.00174

 Side 1  free  transition at x/c =  0.9398   73
 Side 2  free  transition at x/c =  0.0972   26

   2   rms: 0.3955E+00   max: 0.2290E+01   T at   26  2   RLX: 0.347
       a = -4.000      CL =  0.0215
      Cm = -0.0640     CD =  0.02653   =>   CDf =  0.00564    CDp =  0.02088

 Side 1  free  transition at x/c =  0.9275   72
 Side 2  free  transition at x/c =  0.0858   25
 idif Ue xi dudx           1  0.14961037      2.46071815E-03   60.799473    
 Uenew xinew           2  1.32273482E-02  2.17556953E-04

   3   rms: 0.4035E+00   max: -.1313E+01   D at   47  2   RLX: 0.381
       a = -4.000      CL =  0.0054
      Cm = -0.0698     CD =  0.02769   =>   CDf =  0.00541    CDp =  0.02227

 Side 1  free  transition at x/c =  0.9065   70
 Side 2  free  transition at x/c =  0.0820   26

   4   rms: 0.4339E+00   max: -.1800E+01   D at   42  2   RLX: 0.278
       a = -4.000      CL =  0.0217
      Cm = -0.0769     CD =  0.02653   =>   CDf =  0.00526    CDp =  0.02127

 Side 1  free  transition at x/c =  0.9045   70
 Side 2  free  transition at x/c =  0.0814   26

   5   rms: 0.4791E+00   max: -.1737E+01   D at   58  2   RLX: 0.288
       a = -4.000      CL =  0.0488
      Cm = -0.0866     CD =  0.02356   =>   CDf =  0.00577    CDp =  0.01779

 MRCHDU: Convergence failed at  36  side 2    Res =  0.2134E+00
 MRCHDU: Convergence failed at  48  side 2    Res =  0.1796E-01
 Side 1  free  transition at x/c =  0.9040   70
 Side 2  free  transition at x/c =  0.0816   26

   6   rms: 0.4691E+00   max: -.1733E+01   D at   78  2   RLX: 0.289
       a = -4.000      CL =  0.0151
      Cm = -0.0856     CD =  0.02169   =>   CDf =  0.00676    CDp =  0.01493

 Side 1  free  transition at x/c =  0.8984   69
 Side 2  free  transition at x/c =  0.0806   26

   7   rms: 0.1059E+01   max: -.6818E+01   T at   69  1   RLX: 0.073
       a = -4.000      CL =  0.0836
      Cm = -0.0973     CD =  0.02039   =>   CDf =  0.00774    CDp =  0.01264

 MRCHDU: Convergence failed at  76  side 1    Res =  0.4394E+01
 MRCHDU: Convergence failed at  77  side 1    Res =  0.2447E+01
 Side 1  free  transition at x/c =  0.9254   71
 Side 2  free  transition at x/c =  0.0827   26

   8   rms: 0.4174E+00   max: -.2065E+01   D at   79  2   RLX: 0.242
       a = -4.000      CL =  0.0667
      Cm = -0.0980     CD =  0.01644   =>   CDf =  0.00799    CDp =  0.00845

 MRCHDU: Convergence failed at  69  side 2    Res =  0.5070E+00
 MRCHDU: Convergence failed at  70  side 2    Res =  0.1269E+00
 Side 1  free  transition at x/c =  0.9179   71
 Side 2  free  transition at x/c =  0.0816   26

   9   rms: 0.2315E+00   max: -.1091E+01   D at   82  2   RLX: 0.458
       a = -4.000      CL =  0.0613
      Cm = -0.0884     CD =  0.01810   =>   CDf =  0.00853    CDp =  0.00957

 Side 1  free  transition at x/c =  0.9123   70
 Side 2  free  transition at x/c =  0.0816   26

  10   rms: 0.2609E+00   max: 0.1493E+01   T at   70  1   RLX: 0.497
       a = -4.000      CL = -0.0020
      Cm = -0.0766     CD =  0.02081   =>   CDf =  0.00819    CDp =  0.01262

 Side 1  free  transition at x/c =  0.8821   68
 Side 2  free  transition at x/c =  0.0796   26

  11   rms: 0.2292E+00   max: -.1132E+01   T at   68  1   RLX: 0.442
       a = -4.000      CL =  0.0969
      Cm = -0.0933     CD =  0.02065   =>   CDf =  0.00805    CDp =  0.01260

 Side 1  free  transition at x/c =  0.9068   70
 Side 2  free  transition at x/c =  0.0822   26

  12   rms: 0.8561E-01   max: 0.3935E+00   D at   71  1
       a = -4.000      CL =  0.1512
      Cm = -0.1025     CD =  0.01935   =>   CDf =  0.00819    CDp =  0.01115

 Side 1  free  transition at x/c =  0.9036   71
 Side 2  free  transition at x/c =  0.0840   25

  13   rms: 0.7698E-02   max: 0.7014E-01   D at    3  1
       a = -4.000      CL =  0.1544
      Cm = -0.1032     CD =  0.01955   =>   CDf =  0.00826    CDp =  0.01129

 Side 1  free  transition at x/c =  0.9031   71
 Side 2  free  transition at x/c =  0.0841   25

  14   rms: 0.8000E-03   max: 0.8538E-02   D at    4  1
       a = -4.000      CL =  0.1544
      Cm = -0.1032     CD =  0.01955   =>   CDf =  0.00826    CDp =  0.01129

 Side 1  free  transition at x/c =  0.9031   71
 Side 2  free  transition at x/c =  0.0841   25

  15   rms: 0.2124E-05   max: 0.1192E-04   D at   29  2
       a = -4.000      CL =  0.1544
      Cm = -0.1032     CD =  0.01955   =>   CDf =  0.00826    CDp =  0.01129
 plradd ia,ip,cpol            1           0  1.21662803E-02

 Point added to stored polar  1
 Point written to save file  n11_Re150k.base.pol                             
 Dump file unspecified or not available
 Calculating wake trajectory ...
 Calculating source influence matrix ...

 Solving BL system ...

 Side 1  free  transition at x/c =  0.9031   71
 Side 2  free  transition at x/c =  0.0841   25

   1   rms: 0.1342E+00   max: -.3915E+00   D at   28  2
       a = -3.500      CL =  0.2451
      Cm = -0.1087     CD =  0.01726   =>   CDf =  0.00824    CDp =  0.00902

 MRCHDU: Convergence failed at  25  side 2    Res =  0.1090E+02
 MRCHDU: Convergence failed at  26  side 2    Res =  0.7069E+01
 MRCHDU: Convergence failed at  27  side 2    Res =  0.2659E+02
 MRCHDU: Convergence failed at  28  side 2    Res =  0.5945E+03
 MRCHDU: Convergence failed at  29  side 2    Res =  0.1737E+03
 MRCHDU: Convergence failed at  30  side 2    Res =  0.2136E+04
 MRCHDU: Convergence failed at  31  side 2    Res =  0.1158E+03
 MRCHDU: Convergence failed at  32  side 2    Res =  0.4986E+02
 MRCHDU: Convergence failed at  33  side 2    Res =  0.5195E+02
 MRCHDU: Convergence failed at  34  side 2    Res =  0.4146E+02
 MRCHDU: Convergence failed at  35  side 2    Res =  0.3516E+02
 MRCHDU: Convergence failed at  36  side 2    Res =  0.3081E+02
 MRCHDU: Convergence failed at  37  side 2    Res =  0.2773E+02
 MRCHDU: Convergence failed at  38  side 2    Res =  0.2573E+02
 MRCHDU: Convergence failed at  39  side 2    Res =  0.2359E+02
 MRCHDU: Convergence failed at  40  side 2    Res =  0.2290E+02
 MRCHDU: Convergence failed at  41  side 2    Res =  0.2153E+02
 MRCHDU: Convergence failed at  42  side 2    Res =  0.2056E+02
 MRCHDU: Convergence failed at  43  side 2    Res =  0.1955E+02
 MRCHDU: Convergence failed at  44  side 2    Res =  0.1891E+02
 MRCHDU: Convergence failed at  45  side 2    Res =  0.1836E+02
 MRCHDU: Convergence failed at  46  side 2    Res =  0.1789E+02
 MRCHDU: Convergence failed at  47  side 2    Res =  0.1734E+02
 MRCHDU: Convergence failed at  48  side 2    Res =  0.1697E+02
 MRCHDU: Convergence failed at  49  side 2    Res =  0.1661E+02
 MRCHDU: Convergence failed at  50  side 2    Res =  0.1624E+02
 MRCHDU: Convergence failed at  51  side 2    Res =  0.1572E+02
 MRCHDU: Convergence failed at  52  side 2    Res =  0.1532E+02
 MRCHDU: Convergence failed at  53  side 2    Res =  0.1301E+02
 MRCHDU: Convergence failed at  54  side 2    Res =  0.1331E+02
 MRCHDU: Convergence failed at  55  side 2    Res =  0.1359E+02
 MRCHDU: Convergence failed at  56  side 2    Res =  0.1382E+02
 MRCHDU: Convergence failed at  57  side 2    Res =  0.1397E+02
 MRCHDU: Convergence failed at  58  side 2    Res =  0.1403E+02
 MRCHDU: Convergence failed at  59  side 2    Res =  0.1405E+02
 MRCHDU: Convergence failed at  60  side 2    Res =  0.1403E+02
 MRCHDU: Convergence failed at  61  side 2    Res =  0.1400E+02
 MRCHDU: Convergence failed at  62  side 2    Res =  0.1398E+02
 MRCHDU: Convergence failed at  63  side 2    Res =  0.1397E+02
 MRCHDU: Convergence failed at  64  side 2    Res =  0.1400E+02
 MRCHDU: Convergence failed at  65  side 2    Res =  0.1405E+02
 MRCHDU: Convergence failed at  66  side 2    Res =  0.1412E+02
 MRCHDU: Convergence failed at  67  side 2    Res =  0.1420E+02
 MRCHDU: Convergence failed at  68  side 2    Res =  0.1428E+02
 MRCHDU: Convergence failed at  69  side 2    Res =  0.1440E+02
 MRCHDU: Convergence failed at  70  side 2    Res =  0.1451E+02
 MRCHDU: Convergence failed at  71  side 2    Res =  0.1464E+02
 MRCHDU: Convergence failed at  72  side 2    Res =  0.1479E+02
 MRCHDU: Convergence failed at  73  side 2    Res =  0.1499E+02
 MRCHDU: Convergence failed at  74  side 2    Res =  0.1525E+02
 MRCHDU: Convergence failed at  75  side 2    Res =  0.1564E+02
 MRCHDU: Convergence failed at  76  side 2    Res =  0.1611E+02
 MRCHDU: Convergence failed at  77  side 2    Res =  0.1677E+02
 MRCHDU: Convergence failed at  78  side 2    Res =  0.2250E+02
 MRCHDU: Convergence failed at  79  side 2    Res =  0.2329E+02
 MRCHDU: Convergence failed at  80  side 2    Res =  0.2420E+02
 MRCHDU: Convergence failed at  81  side 2    Res =  0.2099E+02
 MRCHDU: Convergence failed at  82  side 2    Res =  0.2249E+02
 MRCHDU: Convergence failed at  83  side 2    Res =  0.2324E+02
 Side 1  free  transition at x/c =  0.8960   71
 Side 2  free  transition at x/c =  0.0955   25

   2   rms: 0.5366E+00   max: 0.7946E+00   D at   88  2
       a = -3.500      CL =  0.2867
      Cm = -0.1104     CD =  0.01478   =>   CDf =  0.00382    CDp =  0.01096

 Side 1  free  transition at x/c =  0.9144   72
 Side 2  free  transition at x/c =  0.0980   25

   3   rms: 0.1377E+00   max: -.9349E+00   D at   28  2   RLX: 0.535
       a = -3.500      CL =  0.2702
      Cm = -0.1112     CD =  0.01722   =>   CDf =  0.00846    CDp =  0.00876

 Side 1  free  transition at x/c =  0.9022   71
 Side 2  free  transition at x/c =  0.0983   25
 idif Ue xi dudx           1  0.15530169      2.25234032E-03   68.951256    
 Uenew xinew           2  1.81407239E-02  2.63094902E-04

   4   rms: 0.7484E+01   max: 0.4761E+02   T at   71  1   RLX: 0.016
       a = -3.500      CL =  0.1892
      Cm = -0.0962     CD =  0.01968   =>   CDf =  0.00835    CDp =  0.01133

 Side 1  free  transition at x/c =  0.8695   68
 Side 2  free  transition at x/c =  0.0881   26

   5   rms: 0.6054E+00   max: -.3898E+01   T at   68  1   RLX: 0.128
       a = -3.500      CL =  0.2448
      Cm = -0.1040     CD =  0.02143   =>   CDf =  0.00827    CDp =  0.01316

 Side 1  free  transition at x/c =  0.8976   71
 Side 2  free  transition at x/c =  0.0930   25

   6   rms: 0.9880E-01   max: -.7143E+00   D at   28  2   RLX: 0.700
       a = -3.500      CL =  0.2451
      Cm = -0.1083     CD =  0.01704   =>   CDf =  0.00831    CDp =  0.00873

 Side 1  free  transition at x/c =  0.8962   71
 Side 2  free  transition at x/c =  0.0958   25

   7   rms: 0.3314E-01   max: -.2855E+00   D at   28  2
       a = -3.500      CL =  0.2255
      Cm = -0.1052     CD =  0.01748   =>   CDf =  0.00824    CDp =  0.00924

 Side 1  free  transition at x/c =  0.8886   71
 Side 2  free  transition at x/c =  0.0934   25

   8   rms: 0.4749E-02   max: -.4100E-01   D at   28  2
       a = -3.500      CL =  0.2255
      Cm = -0.1051     CD =  0.01753   =>   CDf =  0.00823    CDp =  0.00930

 Side 1  free  transition at x/c =  0.8889   71
 Side 2  free  transition at x/c =  0.0934   25

   9   rms: 0.9549E-04   max: -.1144E-02   D at   85  2
       a = -3.500      CL =  0.2255
      Cm = -0.1051     CD =  0.01753   =>   CDf =  0.00823    CDp =  0.00930
 plradd ia,ip,cpol            2           0  1.21662803E-02

 Point added to stored polar  1
 Point written to save file  n11_Re150k.base.pol                             
 Dump file unspecified or not available
 Calculating wake trajectory ...
 Calculating source influence matrix ...

 Solving BL system ...

 Side 1  free  transition at x/c =  0.8889   71
 Side 2  free  transition at x/c =  0.0934   25

   1   rms: 0.1313E+00   max: -.7252E+00   T at   25  2   RLX: 0.689
       a = -3.000      CL =  0.2836
      Cm = -0.1081     CD =  0.01616   =>   CDf =  0.00824    CDp =  0.00793

 Side 1  free  transition at x/c =  0.8843   70
 Side 2  free  transition at x/c =  0.1137   26

   2   rms: 0.7539E-01   max: 0.5794E+00   T at   70  1
       a = -3.000      CL =  0.2477
      Cm = -0.0983     CD =  0.01724   =>   CDf =  0.00813    CDp =  0.00911

 Side 1  free  transition at x/c =  0.8544   68
 Side 2  free  transition at x/c =  0.1118   26

   3   rms: 0.2863E+00   max: -.1834E+01   T at   26  2   RLX: 0.273
       a = -3.000      CL =  0.2895
      Cm = -0.1034     CD =  0.01764   =>   CDf =  0.00814    CDp =  0.00950

 MRCHDU: Convergence failed at  76  side 1    Res =  0.1257E+01
 MRCHDU: Convergence failed at  77  side 1    Res =  0.1799E+01
 MRCHDU: Convergence failed at  78  side 1    Res =  0.2292E+01
 MRCHDU: Convergence failed at  79  side 1    Res =  0.3579E+01
 MRCHDU: Convergence failed at  28  side 2    Res =  0.5265E+01
 MRCHDU: Convergence failed at  29  side 2    Res =  0.2076E+01
 MRCHDU: Convergence failed at  30  side 2    Res =  0.4264E+01
 MRCHDU: Convergence failed at  31  side 2    Res =  0.7852E+01
 MRCHDU: Convergence failed at  32  side 2    Res =  0.1173E+02
 MRCHDU: Convergence failed at  33  side 2    Res =  0.1507E+02
 MRCHDU: Convergence failed at  34  side 2    Res =  0.1713E+02
 MRCHDU: Convergence failed at  35  side 2    Res =  0.1800E+02
 MRCHDU: Convergence failed at  36  side 2    Res =  0.1825E+02
 MRCHDU: Convergence failed at  37  side 2    Res =  0.1809E+02
 MRCHDU: Convergence failed at  38  side 2    Res =  0.1764E+02
 MRCHDU: Convergence failed at  39  side 2    Res =  0.1725E+02
 MRCHDU: Convergence failed at  40  side 2    Res =  0.1652E+02
 MRCHDU: Convergence failed at  41  side 2    Res =  0.2001E+02
 MRCHDU: Convergence failed at  42  side 2    Res =  0.1955E+02
 MRCHDU: Convergence failed at  43  side 2    Res =  0.2034E+02
 MRCHDU: Convergence failed at  44  side 2    Res =  0.2029E+02
 MRCHDU: Convergence failed at  45  side 2    Res =  0.2052E+02
 MRCHDU: Convergence failed at  46  side 2    Res =  0.2084E+02
 MRCHDU: Convergence failed at  47  side 2    Res =  0.2076E+02
 MRCHDU: Convergence failed at  48  side 2    Res =  0.1965E+02
 MRCHDU: Convergence failed at  49  side 2    Res =  0.1951E+02
 MRCHDU: Convergence failed at  50  side 2    Res =  0.1915E+02
 MRCHDU: Convergence failed at  51  side 2    Res =  0.1781E+02
 MRCHDU: Convergence failed at  52  side 2    Res =  0.1678E+02
 MRCHDU: Convergence failed at  53  side 2    Res =  0.1619E+02
 MRCHDU: Convergence failed at  54  side 2    Res =  0.1561E+02
 MRCHDU: Convergence failed at  55  side 2    Res =  0.1515E+02
 MRCHDU: Convergence failed at  56  side 2    Res =  0.1487E+02
 MRCHDU: Convergence failed at  57  side 2    Res =  0.1505E+02
 MRCHDU: Convergence failed at  58  side 2    Res =  0.1517E+02
 MRCHDU: Convergence failed at  59  side 2    Res =  0.1537E+02
 MRCHDU: Convergence failed at  60  side 2    Res =  0.1565E+02
 MRCHDU: Convergence failed at  61  side 2    Res =  0.1596E+02
 MRCHDU: Convergence failed at  62  side 2    Res =  0.1620E+02
 MRCHDU: Convergence failed at  63  side 2    Res =  0.1639E+02
 MRCHDU: Convergence failed at  64  side 2    Res =  0.1642E+02
 MRCHDU: Convergence failed at  65  side 2    Res =  0.1633E+02
 MRCHDU: Convergence failed at  66  side 2    Res =  0.1622E+02
 MRCHDU: Convergence failed at  67  side 2    Res =  0.1608E+02
 MRCHDU: Convergence failed at  68  side 2    Res =  0.1597E+02
 MRCHDU: Convergence failed at  69  side 2    Res =  0.1579E+02
 MRCHDU: Convergence failed at  70  side 2    Res =  0.1559E+02
 MRCHDU: Convergence failed at  71  side 2    Res =  0.1535E+02
 MRCHDU: Convergence failed at  72  side 2    Res =  0.1506E+02
 MRCHDU: Convergence failed at  73  side 2    Res =  0.1465E+02
 MRCHDU: Convergence failed at  74  side 2    Res =  0.1430E+02
 MRCHDU: Convergence failed at  75  side 2    Res =  0.1389E+02
 MRCHDU: Convergence failed at  76  side 2    Res =  0.1333E+02
 MRCHDU: Convergence failed at  77  side 2    Res =  0.1263E+02
 MRCHDU: Convergence failed at  78  side 2    Res =  0.1197E+02
 MRCHDU: Convergence failed at  79  side 2    Res =  0.1109E+02
 MRCHDU: Convergence failed at  80  side 2    Res =  0.1026E+02
 MRCHDU: Convergence failed at  81  side 2    Res =  0.9550E+01
 MRCHDU: Convergence failed at  82  side 2    Res =  0.8945E+01
 MRCHDU: Convergence failed at  83  side 2    Res =  0.8454E+01
 Side 1  free  transition at x/c =  0.8822   70
 Side 2  free  transition at x/c =  0.1376   28

   4   rms: 0.3568E+00   max: 0.6597E+00   D at   91  2   RLX: 0.674
       a = -3.000      CL =  0.1987
      Cm = -0.0737     CD =  0.01163   =>   CDf =  0.00391    CDp =  0.00772

 Side 1  free  transition at x/c =  0.8797   70
 Side 2  free  transition at x/c =  0.1649   30

   5   rms: 0.9673E-01   max: 0.3296E+00   D at   85  2
       a = -3.000      CL =  0.2936
      Cm = -0.1065     CD =  0.01556   =>   CDf =  0.00854    CDp =  0.00702

 Side 1  free  transition at x/c =  0.8738   70
 Side 2  free  transition at x/c =  0.1543   29

   6   rms: 0.9714E-02   max: -.1407E+00   D at   29  2
       a = -3.000      CL =  0.2929
      Cm = -0.1064     CD =  0.01570   =>   CDf =  0.00792    CDp =  0.00778

 Side 1  free  transition at x/c =  0.8737   70
 Side 2  free  transition at x/c =  0.1477   29

   7   rms: 0.4786E-02   max: -.4804E-01   C at   29  2
       a = -3.000      CL =  0.2929
      Cm = -0.1064     CD =  0.01571   =>   CDf =  0.00797    CDp =  0.00775

 Side 1  free  transition at x/c =  0.8737   70
 Side 2  free  transition at x/c =  0.1492   29

   8   rms: 0.1824E-03   max: -.2673E-02   D at   30  2
       a = -3.000      CL =  0.2929
      Cm = -0.1064     CD =  0.01572   =>   CDf =  0.00795    CDp =  0.00777

 Side 1  free  transition at x/c =  0.8737   70
 Side 2  free  transition at x/c =  0.1492   29

   9   rms: 0.3112E-05   max: -.2079E-04   D at   30  2
       a = -3.000      CL =  0.2929
      Cm = -0.1064     CD =  0.01572   =>   CDf =  0.00795    CDp =  0.00777
 plradd ia,ip,cpol            3           0  1.21662803E-02

 Point added to stored polar  1
 Point written to save file  n11_Re150k.base.pol                             
 Dump file unspecified or not available
 Calculating wake trajectory ...
 Calculating source influence matrix ...

 Solving BL system ...

 Side 1  free  transition at x/c =  0.8737   70
 Side 2  free  transition at x/c =  0.1492   29

   1   rms: 0.4045E+00   max: -.3596E+01   T at   29  2   RLX: 0.139
       a = -2.500      CL =  0.3029
      Cm = -0.1069     CD =  0.01526   =>   CDf =  0.00795    CDp =  0.00731

 Side 1  free  transition at x/c =  0.8725   69
 Side 2  free  transition at x/c =  0.1769   30

   2   rms: 0.1626E+00   max: 0.1396E+01   T at   69  1   RLX: 0.534
       a = -2.500      CL =  0.2707
      Cm = -0.0962     CD =  0.01674   =>   CDf =  0.00793    CDp =  0.00881

 Side 1  free  transition at x/c =  0.8356   67
 Side 2  free  transition at x/c =  0.1741   30

   3   rms: 0.4041E+00   max: -.4269E+01   T at   30  2   RLX: 0.117
       a = -2.500      CL =  0.2847
      Cm = -0.0949     CD =  0.01935   =>   CDf =  0.00777    CDp =  0.01158

 Side 1  free  transition at x/c =  0.8418   68
 Side 2  free  transition at x/c =  0.2234   32
 idif Ue xi dudx           1  0.16257894      2.02310085E-03   80.361267    
 Uenew xinew           2  1.82112176E-02  2.26616859E-04

   4   rms: 0.1394E+00   max: 0.1148E+01   T at   68  1   RLX: 0.498
       a = -2.500      CL =  0.2522
      Cm = -0.0901     CD =  0.01841   =>   CDf =  0.00783    CDp =  0.01058

 Side 1  free  transition at x/c =  0.8190   66
 Side 2  free  transition at x/c =  0.2000   32

   5   rms: 0.2395E+00   max: -.1751E+01   T at   32  2   RLX: 0.286
       a = -2.500      CL =  0.2821
      Cm = -0.0922     CD =  0.01987   =>   CDf =  0.00769    CDp =  0.01218

 Side 1  free  transition at x/c =  0.8324   68
 Side 2  free  transition at x/c =  0.2376   33

   6   rms: 0.1330E+00   max: -.7026E+00   T at   33  2   RLX: 0.712
       a = -2.500      CL =  0.3342
      Cm = -0.1028     CD =  0.01611   =>   CDf =  0.00774    CDp =  0.00836

 Side 1  free  transition at x/c =  0.8445   69
 Side 2  free  transition at x/c =  0.2907   37

   7   rms: 0.7238E-01   max: -.5852E+00   C at   37  2   RLX: 0.854
       a = -2.500      CL =  0.3447
      Cm = -0.1049     CD =  0.01451   =>   CDf =  0.00755    CDp =  0.00697

 Side 1  free  transition at x/c =  0.8509   69
 Side 2  free  transition at x/c =  0.3074   38

   8   rms: 0.2918E-01   max: -.3838E+00   C at   38  2
       a = -2.500      CL =  0.3502
      Cm = -0.1061     CD =  0.01426   =>   CDf =  0.00740    CDp =  0.00685

 Side 1  free  transition at x/c =  0.8537   69
 Side 2  free  transition at x/c =  0.3200   38

   9   rms: 0.5078E-02   max: -.8280E-01   C at   38  2
       a = -2.500      CL =  0.3500
      Cm = -0.1060     CD =  0.01430   =>   CDf =  0.00732    CDp =  0.00698

 Side 1  free  transition at x/c =  0.8533   69
 Side 2  free  transition at x/c =  0.3205   38

  10   rms: 0.7463E-02   max: -.1242E+00   C at   38  2
       a = -2.500      CL =  0.3501
      Cm = -0.1060     CD =  0.01430   =>   CDf =  0.00734    CDp =  0.00697

 Side 1  free  transition at x/c =  0.8534   69
 Side 2  free  transition at x/c =  0.3207   38

  11   rms: 0.7388E-02   max: -.1231E+00   C at   38  2
       a = -2.500      CL =  0.3501
      Cm = -0.1060     CD =  0.01430   =>   CDf =  0.00734    CDp =  0.00697

 Side 1  free  transition at x/c =  0.8534   69
 Side 2  free  transition at x/c =  0.3207   38

  12   rms: 0.7410E-02   max: -.1235E+00   C at   38  2
       a = -2.500      CL =  0.3501
      Cm = -0.1060     CD =  0.01430   =>   CDf =  0.00734    CDp =  0.00697

 Side 1  free  transition at x/c =  0.8534   69
 Side 2  free  transition at x/c =  0.3207   38

  13   rms: 0.7406E-02   max: -.1234E+00   C at   38  2
       a = -2.500      CL =  0.3501
      Cm = -0.1060     CD =  0.01430   =>   CDf =  0.00734    CDp =  0.00697

 Side 1  free  transition at x/c =  0.8534   69
 Side 2  free  transition at x/c =  0.3207   38

  14   rms: 0.7407E-02   max: -.1234E+00   C at   38  2
       a = -2.500      CL =  0.3501
      Cm = -0.1060     CD =  0.01430   =>   CDf =  0.00734    CDp =  0.00697

 Side 1  free  transition at x/c =  0.8534   69
 Side 2  free  transition at x/c =  0.3207   38

  15   rms: 0.7407E-02   max: -.1234E+00   C at   38  2
       a = -2.500      CL =  0.3501
      Cm = -0.1060     CD =  0.01430   =>   CDf =  0.00734    CDp =  0.00697

 Side 1  free  transition at x/c =  0.8534   69
 Side 2  free  transition at x/c =  0.3207   38

  16   rms: 0.7407E-02   max: -.1234E+00   C at   38  2
       a = -2.500      CL =  0.3501
      Cm = -0.1060     CD =  0.01430   =>   CDf =  0.00734    CDp =  0.00697

 Side 1  free  transition at x/c =  0.8534   69
 Side 2  free  transition at x/c =  0.3207   38

  17   rms: 0.7407E-02   max: -.1234E+00   C at   38  2
       a = -2.500      CL =  0.3501
      Cm = -0.1060     CD =  0.01430   =>   CDf =  0.00734    CDp =  0.00697

 Side 1  free  transition at x/c =  0.8534   69
 Side 2  free  transition at x/c =  0.3207   38

  18   rms: 0.7407E-02   max: -.1234E+00   C at   38  2
       a = -2.500      CL =  0.3501
      Cm = -0.1060     CD =  0.01430   =>   CDf =  0.00734    CDp =  0.00697

 Side 1  free  transition at x/c =  0.8534   69
 Side 2  free  transition at x/c =  0.3207   38

  19   rms: 0.7407E-02   max: -.1234E+00   C at   38  2
       a = -2.500      CL =  0.3501
      Cm = -0.1060     CD =  0.01430   =>   CDf =  0.00734    CDp =  0.00697

 Side 1  free  transition at x/c =  0.8534   69
 Side 2  free  transition at x/c =  0.3207   38

  20   rms: 0.7407E-02   max: -.1234E+00   C at   38  2
       a = -2.500      CL =  0.3501
      Cm = -0.1060     CD =  0.01430   =>   CDf =  0.00734    CDp =  0.00697

 Side 1  free  transition at x/c =  0.8534   69
 Side 2  free  transition at x/c =  0.3207   38

  21   rms: 0.7407E-02   max: -.1234E+00   C at   38  2
       a = -2.500      CL =  0.3501
      Cm = -0.1060     CD =  0.01430   =>   CDf =  0.00734    CDp =  0.00697

 Side 1  free  transition at x/c =  0.8534   69
 Side 2  free  transition at x/c =  0.3207   38

  22   rms: 0.7406E-02   max: -.1234E+00   C at   38  2
       a = -2.500      CL =  0.3501
      Cm = -0.1060     CD =  0.01430   =>   CDf =  0.00734    CDp =  0.00697

 Side 1  free  transition at x/c =  0.8534   69
 Side 2  free  transition at x/c =  0.3207   38

  23   rms: 0.7406E-02   max: -.1234E+00   C at   38  2
       a = -2.500      CL =  0.3501
      Cm = -0.1060     CD =  0.01430   =>   CDf =  0.00734    CDp =  0.00697

 Side 1  free  transition at x/c =  0.8534   69
 Side 2  free  transition at x/c =  0.3207   38

  24   rms: 0.7407E-02   max: -.1234E+00   C at   38  2
       a = -2.500      CL =  0.3501
      Cm = -0.1060     CD =  0.01430   =>   CDf =  0.00734    CDp =  0.00697

 Side 1  free  transition at x/c =  0.8534   69
 Side 2  free  transition at x/c =  0.3207   38

  25   rms: 0.7407E-02   max: -.1234E+00   C at   38  2
       a = -2.500      CL =  0.3501
      Cm = -0.1060     CD =  0.01430   =>   CDf =  0.00734    CDp =  0.00697

 Side 1  free  transition at x/c =  0.8534   69
 Side 2  free  transition at x/c =  0.3207   38

  26   rms: 0.7407E-02   max: -.1234E+00   C at   38  2
       a = -2.500      CL =  0.3501
      Cm = -0.1060     CD =  0.01430   =>   CDf =  0.00734    CDp =  0.00697

 Side 1  free  transition at x/c =  0.8534   69
 Side 2  free  transition at x/c =  0.3207   38

  27   rms: 0.7407E-02   max: -.1234E+00   C at   38  2
       a = -2.500      CL =  0.3501
      Cm = -0.1060     CD =  0.01430   =>   CDf =  0.00734    CDp =  0.00697

 Side 1  free  transition at x/c =  0.8534   69
 Side 2  free  transition at x/c =  0.3207   38

  28   rms: 0.7407E-02   max: -.1234E+00   C at   38  2
       a = -2.500      CL =  0.3501
      Cm = -0.1060     CD =  0.01430   =>   CDf =  0.00734    CDp =  0.00697

 Side 1  free  transition at x/c =  0.8534   69
 Side 2  free  transition at x/c =  0.3207   38

  29   rms: 0.7407E-02   max: -.1234E+00   C at   38  2
       a = -2.500      CL =  0.3501
      Cm = -0.1060     CD =  0.01430   =>   CDf =  0.00734    CDp =  0.00697

 Side 1  free  transition at x/c =  0.8534   69
 Side 2  free  transition at x/c =  0.3207   38

  30   rms: 0.7407E-02   max: -.1234E+00   C at   38  2
       a = -2.500      CL =  0.3501
      Cm = -0.1060     CD =  0.01430   =>   CDf =  0.00734    CDp =  0.00697

 Side 1  free  transition at x/c =  0.8534   69
 Side 2  free  transition at x/c =  0.3207   38

  31   rms: 0.7407E-02   max: -.1234E+00   C at   38  2
       a = -2.500      CL =  0.3501
      Cm = -0.1060     CD =  0.01430   =>   CDf =  0.00734    CDp =  0.00697

 Side 1  free  transition at x/c =  0.8534   69
 Side 2  free  transition at x/c =  0.3207   38

  32   rms: 0.7406E-02   max: -.1234E+00   C at   38  2
       a = -2.500      CL =  0.3501
      Cm = -0.1060     CD =  0.01430   =>   CDf =  0.00734    CDp =  0.00697

 Side 1  free  transition at x/c =  0.8534   69
 Side 2  free  transition at x/c =  0.3207   38

  33   rms: 0.7406E-02   max: -.1234E+00   C at   38  2
       a = -2.500      CL =  0.3501
      Cm = -0.1060     CD =  0.01430   =>   CDf =  0.00734    CDp =  0.00697

 Side 1  free  transition at x/c =  0.8534   69
 Side 2  free  transition at x/c =  0.3207   38

  34   rms: 0.7407E-02   max: -.1234E+00   C at   38  2
       a = -2.500      CL =  0.3501
      Cm = -0.1060     CD =  0.01430   =>   CDf =  0.00734    CDp =  0.00697

 Side 1  free  transition at x/c =  0.8534   69
 Side 2  free  transition at x/c =  0.3207   38

  35   rms: 0.7407E-02   max: -.1234E+00   C at   38  2
       a = -2.500      CL =  0.3501
      Cm = -0.1060     CD =  0.01430   =>   CDf =  0.00734    CDp =  0.00697

 Side 1  free  transition at x/c =  0.8534   69
 Side 2  free  transition at x/c =  0.3207   38

  36   rms: 0.7406E-02   max: -.1234E+00   C at   38  2
       a = -2.500      CL =  0.3501
      Cm = -0.1060     CD =  0.01430   =>   CDf =  0.00734    CDp =  0.00697

 Side 1  free  transition at x/c =  0.8534   69
 Side 2  free  transition at x/c =  0.3207   38

  37   rms: 0.7407E-02   max: -.1234E+00   C at   38  2
       a = -2.500      CL =  0.3501
      Cm = -0.1060     CD =  0.01430   =>   CDf =  0.00734    CDp =  0.00697

 Side 1  free  transition at x/c =  0.8534   69
 Side 2  free  transition at x/c =  0.3207   38

  38   rms: 0.7407E-02   max: -.1234E+00   C at   38  2
       a = -2.500      CL =  0.3501
      Cm = -0.1060     CD =  0.01430   =>   CDf =  0.00734    CDp =  0.00697

 Side 1  free  transition at x/c =  0.8534   69
 Side 2  free  transition at x/c =  0.3207   38

  39   rms: 0.7406E-02   max: -.1234E+00   C at   38  2
       a = -2.500      CL =  0.3501
      Cm = -0.1060     CD =  0.01430   =>   CDf =  0.00734    CDp =  0.00697

 Side 1  free  transition at x/c =  0.8534   69
 Side 2  free  transition at x/c =  0.3207   38

  40   rms: 0.7407E-02   max: -.1234E+00   C at   38  2
       a = -2.500      CL =  0.3501
      Cm = -0.1060     CD =  0.01430   =>   CDf =  0.00734    CDp =  0.00697

 Side 1  free  transition at x/c =  0.8534   69
 Side 2  free  transition at x/c =  0.3207   38

  41   rms: 0.7407E-02   max: -.1234E+00   C at   38  2
       a = -2.500      CL =  0.3501
      Cm = -0.1060     CD =  0.01430   =>   CDf =  0.00734    CDp =  0.00697

 Side 1  free  transition at x/c =  0.8534   69
 Side 2  free  transition at x/c =  0.3207   38

  42   rms: 0.7407E-02   max: -.1234E+00   C at   38  2
       a = -2.500      CL =  0.3501
      Cm = -0.1060     CD =  0.01430   =>   CDf =  0.00734    CDp =  0.00697

 Side 1  free  transition at x/c =  0.8534   69
 Side 2  free  transition at x/c =  0.3207   38

  43   rms: 0.7406E-02   max: -.1234E+00   C at   38  2
       a = -2.500      CL =  0.3501
      Cm = -0.1060     CD =  0.01430   =>   CDf =  0.00734    CDp =  0.00697

 Side 1  free  transition at x/c =  0.8534   69
 Side 2  free  transition at x/c =  0.3207   38

  44   rms: 0.7407E-02   max: -.1234E+00   C at   38  2
       a = -2.500      CL =  0.3501
      Cm = -0.1060     CD =  0.01430   =>   CDf =  0.00734    CDp =  0.00697

 Side 1  free  transition at x/c =  0.8534   69
 Side 2  free  transition at x/c =  0.3207   38

  45   rms: 0.7407E-02   max: -.1234E+00   C at   38  2
       a = -2.500      CL =  0.3501
      Cm = -0.1060     CD =  0.01430   =>   CDf =  0.00734    CDp =  0.00697

 Side 1  free  transition at x/c =  0.8534   69
 Side 2  free  transition at x/c =  0.3207   38

  46   rms: 0.7406E-02   max: -.1234E+00   C at   38  2
       a = -2.500      CL =  0.3501
      Cm = -0.1060     CD =  0.01430   =>   CDf =  0.00734    CDp =  0.00697

 Side 1  free  transition at x/c =  0.8534   69
 Side 2  free  transition at x/c =  0.3207   38

  47   rms: 0.7407E-02   max: -.1234E+00   C at   38  2
       a = -2.500      CL =  0.3501
      Cm = -0.1060     CD =  0.01430   =>   CDf =  0.00734    CDp =  0.00697

 Side 1  free  transition at x/c =  0.8534   69
 Side 2  free  transition at x/c =  0.3207   38

  48   rms: 0.7407E-02   max: -.1234E+00   C at   38  2
       a = -2.500      CL =  0.3501
      Cm = -0.1060     CD =  0.01430   =>   CDf =  0.00734    CDp =  0.00697

 Side 1  free  transition at x/c =  0.8534   69
 Side 2  free  transition at x/c =  0.3207   38

  49   rms: 0.7406E-02   max: -.1234E+00   C at   38  2
       a = -2.500      CL =  0.3501
      Cm = -0.1060     CD =  0.01430   =>   CDf =  0.00734    CDp =  0.00697

 Side 1  free  transition at x/c =  0.8534   69
 Side 2  free  transition at x/c =  0.3207   38

  50   rms: 0.7407E-02   max: -.1234E+00   C at   38  2
       a = -2.500      CL =  0.3501
      Cm = -0.1060     CD =  0.01430   =>   CDf =  0.00734    CDp =  0.00697

 Side 1  free  transition at x/c =  0.8534   69
 Side 2  free  transition at x/c =  0.3207   38

  51   rms: 0.7407E-02   max: -.1234E+00   C at   38  2
       a = -2.500      CL =  0.3501
      Cm = -0.1060     CD =  0.01430   =>   CDf =  0.00734    CDp =  0.00697

 Side 1  free  transition at x/c =  0.8534   69
 Side 2  free  transition at x/c =  0.3207   38

  52   rms: 0.7406E-02   max: -.1234E+00   C at   38  2
       a = -2.500      CL =  0.3501
      Cm = -0.1060     CD =  0.01430   =>   CDf =  0.00734    CDp =  0.00697

 Side 1  free  transition at x/c =  0.8534   69
 Side 2  free  transition at x/c =  0.3207   38

  53   rms: 0.7407E-02   max: -.1234E+00   C at   38  2
       a = -2.500      CL =  0.3501
      Cm = -0.1060     CD =  0.01430   =>   CDf =  0.00734    CDp =  0.00697

 Side 1  free  transition at x/c =  0.8534   69
 Side 2  free  transition at x/c =  0.3207   38

  54   rms: 0.7407E-02   max: -.1234E+00   C at   38  2
       a = -2.500      CL =  0.3501
      Cm = -0.1060     CD =  0.01430   =>   CDf =  0.00734    CDp =  0.00697

 Side 1  free  transition at x/c =  0.8534   69
 Side 2  free  transition at x/c =  0.3207   38

  55   rms: 0.7407E-02   max: -.1234E+00   C at   38  2
       a = -2.500      CL =  0.3501
      Cm = -0.1060     CD =  0.01430   =>   CDf =  0.00734    CDp =  0.00697

 Side 1  free  transition at x/c =  0.8534   69
 Side 2  free  transition at x/c =  0.3207   38

  56   rms: 0.7407E-02   max: -.1234E+00   C at   38  2
       a = -2.500      CL =  0.3501
      Cm = -0.1060     CD =  0.01430   =>   CDf =  0.00734    CDp =  0.00697

 Side 1  free  transition at x/c =  0.8534   69
 Side 2  free  transition at x/c =  0.3207   38

  57   rms: 0.7406E-02   max: -.1234E+00   C at   38  2
       a = -2.500      CL =  0.3501
      Cm = -0.1060     CD =  0.01430   =>   CDf =  0.00734    CDp =  0.00697

 Side 1  free  transition at x/c =  0.8534   69
 Side 2  free  transition at x/c =  0.3207   38

  58   rms: 0.7407E-02   max: -.1234E+00   C at   38  2
       a = -2.500      CL =  0.3501
      Cm = -0.1060     CD =  0.01430   =>   CDf =  0.00734    CDp =  0.00697

 Side 1  free  transition at x/c =  0.8534   69
 Side 2  free  transition at x/c =  0.3207   38

  59   rms: 0.7407E-02   max: -.1234E+00   C at   38  2
       a = -2.500      CL =  0.3501
      Cm = -0.1060     CD =  0.01430   =>   CDf =  0.00734    CDp =  0.00697

 Side 1  free  transition at x/c =  0.8534   69
 Side 2  free  transition at x/c =  0.3207   38

  60   rms: 0.7407E-02   max: -.1234E+00   C at   38  2
       a = -2.500      CL =  0.3501
      Cm = -0.1060     CD =  0.01430   =>   CDf =  0.00734    CDp =  0.00697

 Side 1  free  transition at x/c =  0.8534   69
 Side 2  free  transition at x/c =  0.3207   38

  61   rms: 0.7407E-02   max: -.1234E+00   C at   38  2
       a = -2.500      CL =  0.3501
      Cm = -0.1060     CD =  0.01430   =>   CDf =  0.00734    CDp =  0.00697

 Side 1  free  transition at x/c =  0.8534   69
 Side 2  free  transition at x/c =  0.3207   38

  62   rms: 0.7407E-02   max: -.1234E+00   C at   38  2
       a = -2.500      CL =  0.3501
      Cm = -0.1060     CD =  0.01430   =>   CDf =  0.00734    CDp =  0.00697

 Side 1  free  transition at x/c =  0.8534   69
 Side 2  free  transition at x/c =  0.3207   38

  63   rms: 0.7407E-02   max: -.1234E+00   C at   38  2
       a = -2.500      CL =  0.3501
      Cm = -0.1060     CD =  0.01430   =>   CDf =  0.00734    CDp =  0.00697

 Side 1  free  transition at x/c =  0.8534   69
 Side 2  free  transition at x/c =  0.3207   38

  64   rms: 0.7406E-02   max: -.1234E+00   C at   38  2
       a = -2.500      CL =  0.3501
      Cm = -0.1060     CD =  0.01430   =>   CDf =  0.00734    CDp =  0.00697

 Side 1  free  transition at x/c =  0.8534   69
 Side 2  free  transition at x/c =  0.3207   38

  65   rms: 0.7407E-02   max: -.1234E+00   C at   38  2
       a = -2.500      CL =  0.3501
      Cm = -0.1060     CD =  0.01430   =>   CDf =  0.00734    CDp =  0.00697

 Side 1  free  transition at x/c =  0.8534   69
 Side 2  free  transition at x/c =  0.3207   38

  66   rms: 0.7407E-02   max: -.1234E+00   C at   38  2
       a = -2.500      CL =  0.3501
      Cm = -0.1060     CD =  0.01430   =>   CDf =  0.00734    CDp =  0.00697

 Side 1  free  transition at x/c =  0.8534   69
 Side 2  free  transition at x/c =  0.3207   38

  67   rms: 0.7407E-02   max: -.1234E+00   C at   38  2
       a = -2.500      CL =  0.3501
      Cm = -0.1060     CD =  0.01430   =>   CDf =  0.00734    CDp =  0.00697

 Side 1  free  transition at x/c =  0.8534   69
 Side 2  free  transition at x/c =  0.3207   38

  68   rms: 0.7407E-02   max: -.1234E+00   C at   38  2
       a = -2.500      CL =  0.3501
      Cm = -0.1060     CD =  0.01430   =>   CDf =  0.00734    CDp =  0.00697

 Side 1  free  transition at x/c =  0.8534   69
 Side 2  free  transition at x/c =  0.3207   38

  69   rms: 0.7407E-02   max: -.1234E+00   C at   38  2
       a = -2.500      CL =  0.3501
      Cm = -0.1060     CD =  0.01430   =>   CDf =  0.00734    CDp =  0.00697

 Side 1  free  transition at x/c =  0.8534   69
 Side 2  free  transition at x/c =  0.3207   38

  70   rms: 0.7407E-02   max: -.1234E+00   C at   38  2
       a = -2.500      CL =  0.3501
      Cm = -0.1060     CD =  0.01430   =>   CDf =  0.00734    CDp =  0.00697

 Side 1  free  transition at x/c =  0.8534   69
 Side 2  free  transition at x/c =  0.3207   38

  71   rms: 0.7407E-02   max: -.1234E+00   C at   38  2
       a = -2.500      CL =  0.3501
      Cm = -0.1060     CD =  0.01430   =>   CDf =  0.00734    CDp =  0.00697

 Side 1  free  transition at x/c =  0.8534   69
 Side 2  free  transition at x/c =  0.3207   38

  72   rms: 0.7406E-02   max: -.1234E+00   C at   38  2
       a = -2.500      CL =  0.3501
      Cm = -0.1060     CD =  0.01430   =>   CDf =  0.00734    CDp =  0.00697

 Side 1  free  transition at x/c =  0.8534   69
 Side 2  free  transition at x/c =  0.3207   38

  73   rms: 0.7407E-02   max: -.1234E+00   C at   38  2
       a = -2.500      CL =  0.3501
      Cm = -0.1060     CD =  0.01430   =>   CDf =  0.00734    CDp =  0.00697

 Side 1  free  transition at x/c =  0.8534   69
 Side 2  free  transition at x/c =  0.3207   38

  74   rms: 0.7407E-02   max: -.1234E+00   C at   38  2
       a = -2.500      CL =  0.3501
      Cm = -0.1060     CD =  0.01430   =>   CDf =  0.00734    CDp =  0.00697

 Side 1  free  transition at x/c =  0.8534   69
 Side 2  free  transition at x/c =  0.3207   38

  75   rms: 0.7406E-02   max: -.1234E+00   C at   38  2
       a = -2.500      CL =  0.3501
      Cm = -0.1060     CD =  0.01430   =>   CDf =  0.00734    CDp =  0.00697

 Side 1  free  transition at x/c =  0.8534   69
 Side 2  free  transition at x/c =  0.3207   38

  76   rms: 0.7407E-02   max: -.1234E+00   C at   38  2
       a = -2.500      CL =  0.3501
      Cm = -0.1060     CD =  0.01430   =>   CDf =  0.00734    CDp =  0.00697

 Side 1  free  transition at x/c =  0.8534   69
 Side 2  free  transition at x/c =  0.3207   38

  77   rms: 0.7407E-02   max: -.1234E+00   C at   38  2
       a = -2.500      CL =  0.3501
      Cm = -0.1060     CD =  0.01430   =>   CDf =  0.00734    CDp =  0.00697

 Side 1  free  transition at x/c =  0.8534   69
 Side 2  free  transition at x/c =  0.3207   38

  78   rms: 0.7406E-02   max: -.1234E+00   C at   38  2
       a = -2.500      CL =  0.3501
      Cm = -0.1060     CD =  0.01430   =>   CDf =  0.00734    CDp =  0.00697

 Side 1  free  transition at x/c =  0.8534   69
 Side 2  free  transition at x/c =  0.3207   38

  79   rms: 0.7407E-02   max: -.1234E+00   C at   38  2
       a = -2.500      CL =  0.3501
      Cm = -0.1060     CD =  0.01430   =>   CDf =  0.00734    CDp =  0.00697

 Side 1  free  transition at x/c =  0.8534   69
 Side 2  free  transition at x/c =  0.3207   38

  80   rms: 0.7407E-02   max: -.1234E+00   C at   38  2
       a = -2.500      CL =  0.3501
      Cm = -0.1060     CD =  0.01430   =>   CDf =  0.00734    CDp =  0.00697

 Side 1  free  transition at x/c =  0.8534   69
 Side 2  free  transition at x/c =  0.3207   38

  81   rms: 0.7406E-02   max: -.1234E+00   C at   38  2
       a = -2.500      CL =  0.3501
      Cm = -0.1060     CD =  0.01430   =>   CDf =  0.00734    CDp =  0.00697

 Side 1  free  transition at x/c =  0.8534   69
 Side 2  free  transition at x/c =  0.3207   38

  82   rms: 0.7406E-02   max: -.1234E+00   C at   38  2
       a = -2.500      CL =  0.3501
      Cm = -0.1060     CD =  0.01430   =>   CDf =  0.00734    CDp =  0.00697

 Side 1  free  transition at x/c =  0.8534   69
 Side 2  free  transition at x/c =  0.3207   38

  83   rms: 0.7407E-02   max: -.1234E+00   C at   38  2
       a = -2.500      CL =  0.3501
      Cm = -0.1060     CD =  0.01430   =>   CDf =  0.00734    CDp =  0.00697

 Side 1  free  transition at x/c =  0.8534   69
 Side 2  free  transition at x/c =  0.3207   38

  84   rms: 0.7407E-02   max: -.1234E+00   C at   38  2
       a = -2.500      CL =  0.3501
      Cm = -0.1060     CD =  0.01430   =>   CDf =  0.00734    CDp =  0.00697

 Side 1  free  transition at x/c =  0.8534   69
 Side 2  free  transition at x/c =  0.3207   38

  85   rms: 0.7407E-02   max: -.1234E+00   C at   38  2
       a = -2.500      CL =  0.3501
      Cm = -0.1060     CD =  0.01430   =>   CDf =  0.00734    CDp =  0.00697

 Side 1  free  transition at x/c =  0.8534   69
 Side 2  free  transition at x/c =  0.3207   38

  86   rms: 0.7406E-02   max: -.1234E+00   C at   38  2
       a = -2.500      CL =  0.3501
      Cm = -0.1060     CD =  0.01430   =>   CDf =  0.00734    CDp =  0.00697

 Side 1  free  transition at x/c =  0.8534   69
 Side 2  free  transition at x/c =  0.3207   38

  87   rms: 0.7407E-02   max: -.1234E+00   C at   38  2
       a = -2.500      CL =  0.3501
      Cm = -0.1060     CD =  0.01430   =>   CDf =  0.00734    CDp =  0.00697

 Side 1  free  transition at x/c =  0.8534   69
 Side 2  free  transition at x/c =  0.3207   38

  88   rms: 0.7406E-02   max: -.1234E+00   C at   38  2
       a = -2.500      CL =  0.3501
      Cm = -0.1060     CD =  0.01430   =>   CDf =  0.00734    CDp =  0.00697

 Side 1  free  transition at x/c =  0.8534   69
 Side 2  free  transition at x/c =  0.3207   38

  89   rms: 0.7407E-02   max: -.1234E+00   C at   38  2
       a = -2.500      CL =  0.3501
      Cm = -0.1060     CD =  0.01430   =>   CDf =  0.00734    CDp =  0.00697

 Side 1  free  transition at x/c =  0.8534   69
 Side 2  free  transition at x/c =  0.3207   38

  90   rms: 0.7407E-02   max: -.1234E+00   C at   38  2
       a = -2.500      CL =  0.3501
      Cm = -0.1060     CD =  0.01430   =>   CDf =  0.00734    CDp =  0.00697

 Side 1  free  transition at x/c =  0.8534   69
 Side 2  free  transition at x/c =  0.3207   38

  91   rms: 0.7406E-02   max: -.1234E+00   C at   38  2
       a = -2.500      CL =  0.3501
      Cm = -0.1060     CD =  0.01430   =>   CDf =  0.00734    CDp =  0.00697

 Side 1  free  transition at x/c =  0.8534   69
 Side 2  free  transition at x/c =  0.3207   38

  92   rms: 0.7406E-02   max: -.1234E+00   C at   38  2
       a = -2.500      CL =  0.3501
      Cm = -0.1060     CD =  0.01430   =>   CDf =  0.00734    CDp =  0.00697

 Side 1  free  transition at x/c =  0.8534   69
 Side 2  free  transition at x/c =  0.3207   38

  93   rms: 0.7406E-02   max: -.1234E+00   C at   38  2
       a = -2.500      CL =  0.3501
      Cm = -0.1060     CD =  0.01430   =>   CDf =  0.00734    CDp =  0.00697

 Side 1  free  transition at x/c =  0.8534   69
 Side 2  free  transition at x/c =  0.3207   38

  94   rms: 0.7406E-02   max: -.1234E+00   C at   38  2
       a = -2.500      CL =  0.3501
      Cm = -0.1060     CD =  0.01430   =>   CDf =  0.00734    CDp =  0.00697

 Side 1  free  transition at x/c =  0.8534   69
 Side 2  free  transition at x/c =  0.3207   38

  95   rms: 0.7407E-02   max: -.1234E+00   C at   38  2
       a = -2.500      CL =  0.3501
      Cm = -0.1060     CD =  0.01430   =>   CDf =  0.00734    CDp =  0.00697

 Side 1  free  transition at x/c =  0.8534   69
 Side 2  free  transition at x/c =  0.3207   38

  96   rms: 0.7406E-02   max: -.1234E+00   C at   38  2
       a = -2.500      CL =  0.3501
      Cm = -0.1060     CD =  0.01430   =>   CDf =  0.00734    CDp =  0.00697

 Side 1  free  transition at x/c =  0.8534   69
 Side 2  free  transition at x/c =  0.3207   38

  97   rms: 0.7407E-02   max: -.1234E+00   C at   38  2
       a = -2.500      CL =  0.3501
      Cm = -0.1060     CD =  0.01430   =>   CDf =  0.00734    CDp =  0.00697

 Side 1  free  transition at x/c =  0.8534   69
 Side 2  free  transition at x/c =  0.3207   38

  98   rms: 0.7407E-02   max: -.1234E+00   C at   38  2
       a = -2.500      CL =  0.3501
      Cm = -0.1060     CD =  0.01430   =>   CDf =  0.00734    CDp =  0.00697

 Side 1  free  transition at x/c =  0.8534   69
 Side 2  free  transition at x/c =  0.3207   38

  99   rms: 0.7407E-02   max: -.1234E+00   C at   38  2
       a = -2.500      CL =  0.3501
      Cm = -0.1060     CD =  0.01430   =>   CDf =  0.00734    CDp =  0.00697

 Side 1  free  transition at x/c =  0.8534   69
 Side 2  free  transition at x/c =  0.3207   38

 100   rms: 0.7407E-02   max: -.1234E+00   C at   38  2
       a = -2.500      CL =  0.3501
      Cm = -0.1060     CD =  0.01430   =>   CDf =  0.00734    CDp =  0.00697

 Side 1  free  transition at x/c =  0.8534   69
 Side 2  free  transition at x/c =  0.3207   38

 101   rms: 0.7406E-02   max: -.1234E+00   C at   38  2
       a = -2.500      CL =  0.3501
      Cm = -0.1060     CD =  0.01430   =>   CDf =  0.00734    CDp =  0.00697

 Side 1  free  transition at x/c =  0.8534   69
 Side 2  free  transition at x/c =  0.3207   38

 102   rms: 0.7407E-02   max: -.1234E+00   C at   38  2
       a = -2.500      CL =  0.3501
      Cm = -0.1060     CD =  0.01430   =>   CDf =  0.00734    CDp =  0.00697

 Side 1  free  transition at x/c =  0.8534   69
 Side 2  free  transition at x/c =  0.3207   38

 103   rms: 0.7407E-02   max: -.1234E+00   C at   38  2
       a = -2.500      CL =  0.3501
      Cm = -0.1060     CD =  0.01430   =>   CDf =  0.00734    CDp =  0.00697

 Side 1  free  transition at x/c =  0.8534   69
 Side 2  free  transition at x/c =  0.3207   38

 104   rms: 0.7407E-02   max: -.1234E+00   C at   38  2
       a = -2.500      CL =  0.3501
      Cm = -0.1060     CD =  0.01430   =>   CDf =  0.00734    CDp =  0.00697

 Side 1  free  transition at x/c =  0.8534   69
 Side 2  free  transition at x/c =  0.3207   38

 105   rms: 0.7407E-02   max: -.1234E+00   C at   38  2
       a = -2.500      CL =  0.3501
      Cm = -0.1060     CD =  0.01430   =>   CDf =  0.00734    CDp =  0.00697

 Side 1  free  transition at x/c =  0.8534   69
 Side 2  free  transition at x/c =  0.3207   38

 106   rms: 0.7407E-02   max: -.1234E+00   C at   38  2
       a = -2.500      CL =  0.3501
      Cm = -0.1060     CD =  0.01430   =>   CDf =  0.00734    CDp =  0.00697

 Side 1  free  transition at x/c =  0.8534   69
 Side 2  free  transition at x/c =  0.3207   38

 107   rms: 0.7407E-02   max: -.1234E+00   C at   38  2
       a = -2.500      CL =  0.3501
      Cm = -0.1060     CD =  0.01430   =>   CDf =  0.00734    CDp =  0.00697

 Side 1  free  transition at x/c =  0.8534   69
 Side 2  free  transition at x/c =  0.3207   38

 108   rms: 0.7407E-02   max: -.1234E+00   C at   38  2
       a = -2.500      CL =  0.3501
      Cm = -0.1060     CD =  0.01430   =>   CDf =  0.00734    CDp =  0.00697

 Side 1  free  transition at x/c =  0.8534   69
 Side 2  free  transition at x/c =  0.3207   38

 109   rms: 0.7407E-02   max: -.1234E+00   C at   38  2
       a = -2.500      CL =  0.3501
      Cm = -0.1060     CD =  0.01430   =>   CDf =  0.00734    CDp =  0.00697

 Side 1  free  transition at x/c =  0.8534   69
 Side 2  free  transition at x/c =  0.3207   38

 110   rms: 0.7407E-02   max: -.1234E+00   C at   38  2
       a = -2.500      CL =  0.3501
      Cm = -0.1060     CD =  0.01430   =>   CDf =  0.00734    CDp =  0.00697

 Side 1  free  transition at x/c =  0.8534   69
 Side 2  free  transition at x/c =  0.3207   38

 111   rms: 0.7406E-02   max: -.1234E+00   C at   38  2
       a = -2.500      CL =  0.3501
      Cm = -0.1060     CD =  0.01430   =>   CDf =  0.00734    CDp =  0.00697

 Side 1  free  transition at x/c =  0.8534   69
 Side 2  free  transition at x/c =  0.3207   38

 112   rms: 0.7407E-02   max: -.1234E+00   C at   38  2
       a = -2.500      CL =  0.3501
      Cm = -0.1060     CD =  0.01430   =>   CDf =  0.00734    CDp =  0.00697

 Side 1  free  transition at x/c =  0.8534   69
 Side 2  free  transition at x/c =  0.3207   38

 113   rms: 0.7407E-02   max: -.1234E+00   C at   38  2
       a = -2.500      CL =  0.3501
      Cm = -0.1060     CD =  0.01430   =>   CDf =  0.00734    CDp =  0.00697

 Side 1  free  transition at x/c =  0.8534   69
 Side 2  free  transition at x/c =  0.3207   38

 114   rms: 0.7407E-02   max: -.1234E+00   C at   38  2
       a = -2.500      CL =  0.3501
      Cm = -0.1060     CD =  0.01430   =>   CDf =  0.00734    CDp =  0.00697

 Side 1  free  transition at x/c =  0.8534   69
 Side 2  free  transition at x/c =  0.3207   38

 115   rms: 0.7407E-02   max: -.1234E+00   C at   38  2
       a = -2.500      CL =  0.3501
      Cm = -0.1060     CD =  0.01430   =>   CDf =  0.00734    CDp =  0.00697

 Side 1  free  transition at x/c =  0.8534   69
 Side 2  free  transition at x/c =  0.3207   38

 116   rms: 0.7406E-02   max: -.1234E+00   C at   38  2
       a = -2.500      CL =  0.3501
      Cm = -0.1060     CD =  0.01430   =>   CDf =  0.00734    CDp =  0.00697

 Side 1  free  transition at x/c =  0.8534   69
 Side 2  free  transition at x/c =  0.3207   38

 117   rms: 0.7407E-02   max: -.1234E+00   C at   38  2
       a = -2.500      CL =  0.3501
      Cm = -0.1060     CD =  0.01430   =>   CDf =  0.00734    CDp =  0.00697

 Side 1  free  transition at x/c =  0.8534   69
 Side 2  free  transition at x/c =  0.3207   38

 118   rms: 0.7407E-02   max: -.1234E+00   C at   38  2
       a = -2.500      CL =  0.3501
      Cm = -0.1060     CD =  0.01430   =>   CDf =  0.00734    CDp =  0.00697

 Side 1  free  transition at x/c =  0.8534   69
 Side 2  free  transition at x/c =  0.3207   38

 119   rms: 0.7406E-02   max: -.1234E+00   C at   38  2
       a = -2.500      CL =  0.3501
      Cm = -0.1060     CD =  0.01430   =>   CDf =  0.00734    CDp =  0.00697

 Side 1  free  transition at x/c =  0.8534   69
 Side 2  free  transition at x/c =  0.3207   38

 120   rms: 0.7406E-02   max: -.1234E+00   C at   38  2
       a = -2.500      CL =  0.3501
      Cm = -0.1060     CD =  0.01430   =>   CDf =  0.00734    CDp =  0.00697

 Side 1  free  transition at x/c =  0.8534   69
 Side 2  free  transition at x/c =  0.3207   38

 121   rms: 0.7406E-02   max: -.1234E+00   C at   38  2
       a = -2.500      CL =  0.3501
      Cm = -0.1060     CD =  0.01430   =>   CDf =  0.00734    CDp =  0.00697

 Side 1  free  transition at x/c =  0.8534   69
 Side 2  free  transition at x/c =  0.3207   38

 122   rms: 0.7407E-02   max: -.1234E+00   C at   38  2
       a = -2.500      CL =  0.3501
      Cm = -0.1060     CD =  0.01430   =>   CDf =  0.00734    CDp =  0.00697

 Side 1  free  transition at x/c =  0.8534   69
 Side 2  free  transition at x/c =  0.3207   38

 123   rms: 0.7407E-02   max: -.1234E+00   C at   38  2
       a = -2.500      CL =  0.3501
      Cm = -0.1060     CD =  0.01430   =>   CDf =  0.00734    CDp =  0.00697

 Side 1  free  transition at x/c =  0.8534   69
 Side 2  free  transition at x/c =  0.3207   38

 124   rms: 0.7407E-02   max: -.1234E+00   C at   38  2
       a = -2.500      CL =  0.3501
      Cm = -0.1060     CD =  0.01430   =>   CDf =  0.00734    CDp =  0.00697

 Side 1  free  transition at x/c =  0.8534   69
 Side 2  free  transition at x/c =  0.3207   38

 125   rms: 0.7407E-02   max: -.1234E+00   C at   38  2
       a = -2.500      CL =  0.3501
      Cm = -0.1060     CD =  0.01430   =>   CDf =  0.00734    CDp =  0.00697

 Side 1  free  transition at x/c =  0.8534   69
 Side 2  free  transition at x/c =  0.3207   38

 126   rms: 0.7407E-02   max: -.1234E+00   C at   38  2
       a = -2.500      CL =  0.3501
      Cm = -0.1060     CD =  0.01430   =>   CDf =  0.00734    CDp =  0.00697

 Side 1  free  transition at x/c =  0.8534   69
 Side 2  free  transition at x/c =  0.3207   38

 127   rms: 0.7407E-02   max: -.1234E+00   C at   38  2
       a = -2.500      CL =  0.3501
      Cm = -0.1060     CD =  0.01430   =>   CDf =  0.00734    CDp =  0.00697

 Side 1  free  transition at x/c =  0.8534   69
 Side 2  free  transition at x/c =  0.3207   38

 128   rms: 0.7407E-02   max: -.1234E+00   C at   38  2
       a = -2.500      CL =  0.3501
      Cm = -0.1060     CD =  0.01430   =>   CDf =  0.00734    CDp =  0.00697

 Side 1  free  transition at x/c =  0.8534   69
 Side 2  free  transition at x/c =  0.3207   38

 129   rms: 0.7406E-02   max: -.1234E+00   C at   38  2
       a = -2.500      CL =  0.3501
      Cm = -0.1060     CD =  0.01430   =>   CDf =  0.00734    CDp =  0.00697

 Side 1  free  transition at x/c =  0.8534   69
 Side 2  free  transition at x/c =  0.3207   38

 130   rms: 0.7407E-02   max: -.1234E+00   C at   38  2
       a = -2.500      CL =  0.3501
      Cm = -0.1060     CD =  0.01430   =>   CDf =  0.00734    CDp =  0.00697

 Side 1  free  transition at x/c =  0.8534   69
 Side 2  free  transition at x/c =  0.3207   38

 131   rms: 0.7407E-02   max: -.1234E+00   C at   38  2
       a = -2.500      CL =  0.3501
      Cm = -0.1060     CD =  0.01430   =>   CDf =  0.00734    CDp =  0.00697

 Side 1  free  transition at x/c =  0.8534   69
 Side 2  free  transition at x/c =  0.3207   38

 132   rms: 0.7407E-02   max: -.1234E+00   C at   38  2
       a = -2.500      CL =  0.3501
      Cm = -0.1060     CD =  0.01430   =>   CDf =  0.00734    CDp =  0.00697

 Side 1  free  transition at x/c =  0.8534   69
 Side 2  free  transition at x/c =  0.3207   38

 133   rms: 0.7407E-02   max: -.1234E+00   C at   38  2
       a = -2.500      CL =  0.3501
      Cm = -0.1060     CD =  0.01430   =>   CDf =  0.00734    CDp =  0.00697

 Side 1  free  transition at x/c =  0.8534   69
 Side 2  free  transition at x/c =  0.3207   38

 134   rms: 0.7406E-02   max: -.1234E+00   C at   38  2
       a = -2.500      CL =  0.3501
      Cm = -0.1060     CD =  0.01430   =>   CDf =  0.00734    CDp =  0.00697

 Side 1  free  transition at x/c =  0.8534   69
 Side 2  free  transition at x/c =  0.3207   38

 135   rms: 0.7407E-02   max: -.1234E+00   C at   38  2
       a = -2.500      CL =  0.3501
      Cm = -0.1060     CD =  0.01430   =>   CDf =  0.00734    CDp =  0.00697

 Side 1  free  transition at x/c =  0.8534   69
 Side 2  free  transition at x/c =  0.3207   38

 136   rms: 0.7407E-02   max: -.1234E+00   C at   38  2
       a = -2.500      CL =  0.3501
      Cm = -0.1060     CD =  0.01430   =>   CDf =  0.00734    CDp =  0.00697

 Side 1  free  transition at x/c =  0.8534   69
 Side 2  free  transition at x/c =  0.3207   38

 137   rms: 0.7406E-02   max: -.1234E+00   C at   38  2
       a = -2.500      CL =  0.3501
      Cm = -0.1060     CD =  0.01430   =>   CDf =  0.00734    CDp =  0.00697

 Side 1  free  transition at x/c =  0.8534   69
 Side 2  free  transition at x/c =  0.3207   38

 138   rms: 0.7407E-02   max: -.1234E+00   C at   38  2
       a = -2.500      CL =  0.3501
      Cm = -0.1060     CD =  0.01430   =>   CDf =  0.00734    CDp =  0.00697

 Side 1  free  transition at x/c =  0.8534   69
 Side 2  free  transition at x/c =  0.3207   38

 139   rms: 0.7406E-02   max: -.1234E+00   C at   38  2
       a = -2.500      CL =  0.3501
      Cm = -0.1060     CD =  0.01430   =>   CDf =  0.00734    CDp =  0.00697

 Side 1  free  transition at x/c =  0.8534   69
 Side 2  free  transition at x/c =  0.3207   38

 140   rms: 0.7407E-02   max: -.1234E+00   C at   38  2
       a = -2.500      CL =  0.3501
      Cm = -0.1060     CD =  0.01430   =>   CDf =  0.00734    CDp =  0.00697

 Side 1  free  transition at x/c =  0.8534   69
 Side 2  free  transition at x/c =  0.3207   38

 141   rms: 0.7406E-02   max: -.1234E+00   C at   38  2
       a = -2.500      CL =  0.3501
      Cm = -0.1060     CD =  0.01430   =>   CDf =  0.00734    CDp =  0.00697

 Side 1  free  transition at x/c =  0.8534   69
 Side 2  free  transition at x/c =  0.3207   38

 142   rms: 0.7406E-02   max: -.1234E+00   C at   38  2
       a = -2.500      CL =  0.3501
      Cm = -0.1060     CD =  0.01430   =>   CDf =  0.00734    CDp =  0.00697

 Side 1  free  transition at x/c =  0.8534   69
 Side 2  free  transition at x/c =  0.3207   38

 143   rms: 0.7407E-02   max: -.1234E+00   C at   38  2
       a = -2.500      CL =  0.3501
      Cm = -0.1060     CD =  0.01430   =>   CDf =  0.00734    CDp =  0.00697

 Side 1  free  transition at x/c =  0.8534   69
 Side 2  free  transition at x/c =  0.3207   38

 144   rms: 0.7407E-02   max: -.1234E+00   C at   38  2
       a = -2.500      CL =  0.3501
      Cm = -0.1060     CD =  0.01430   =>   CDf =  0.00734    CDp =  0.00697

 Side 1  free  transition at x/c =  0.8534   69
 Side 2  free  transition at x/c =  0.3207   38

 145   rms: 0.7407E-02   max: -.1234E+00   C at   38  2
       a = -2.500      CL =  0.3501
      Cm = -0.1060     CD =  0.01430   =>   CDf =  0.00734    CDp =  0.00697

 Side 1  free  transition at x/c =  0.8534   69
 Side 2  free  transition at x/c =  0.3207   38

 146   rms: 0.7407E-02   max: -.1234E+00   C at   38  2
       a = -2.500      CL =  0.3501
      Cm = -0.1060     CD =  0.01430   =>   CDf =  0.00734    CDp =  0.00697

 Side 1  free  transition at x/c =  0.8534   69
 Side 2  free  transition at x/c =  0.3207   38

 147   rms: 0.7407E-02   max: -.1234E+00   C at   38  2
       a = -2.500      CL =  0.3501
      Cm = -0.1060     CD =  0.01430   =>   CDf =  0.00734    CDp =  0.00697

 Side 1  free  transition at x/c =  0.8534   69
 Side 2  free  transition at x/c =  0.3207   38

 148   rms: 0.7407E-02   max: -.1234E+00   C at   38  2
       a = -2.500      CL =  0.3501
      Cm = -0.1060     CD =  0.01430   =>   CDf =  0.00734    CDp =  0.00697

 Side 1  free  transition at x/c =  0.8534   69
 Side 2  free  transition at x/c =  0.3207   38

 149   rms: 0.7407E-02   max: -.1234E+00   C at   38  2
       a = -2.500      CL =  0.3501
      Cm = -0.1060     CD =  0.01430   =>   CDf =  0.00734    CDp =  0.00697

 Side 1  free  transition at x/c =  0.8534   69
 Side 2  free  transition at x/c =  0.3207   38

 150   rms: 0.7407E-02   max: -.1234E+00   C at   38  2
       a = -2.500      CL =  0.3501
      Cm = -0.1060     CD =  0.01430   =>   CDf =  0.00734    CDp =  0.00697

 Side 1  free  transition at x/c =  0.8534   69
 Side 2  free  transition at x/c =  0.3207   38

 151   rms: 0.7407E-02   max: -.1234E+00   C at   38  2
       a = -2.500      CL =  0.3501
      Cm = -0.1060     CD =  0.01430   =>   CDf =  0.00734    CDp =  0.00697

 Side 1  free  transition at x/c =  0.8534   69
 Side 2  free  transition at x/c =  0.3207   38

 152   rms: 0.7407E-02   max: -.1234E+00   C at   38  2
       a = -2.500      CL =  0.3501
      Cm = -0.1060     CD =  0.01430   =>   CDf =  0.00734    CDp =  0.00697

 Side 1  free  transition at x/c =  0.8534   69
 Side 2  free  transition at x/c =  0.3207   38

 153   rms: 0.7407E-02   max: -.1234E+00   C at   38  2
       a = -2.500      CL =  0.3501
      Cm = -0.1060     CD =  0.01430   =>   CDf =  0.00734    CDp =  0.00697

 Side 1  free  transition at x/c =  0.8534   69
 Side 2  free  transition at x/c =  0.3207   38

 154   rms: 0.7407E-02   max: -.1234E+00   C at   38  2
       a = -2.500      CL =  0.3501
      Cm = -0.1060     CD =  0.01430   =>   CDf =  0.00734    CDp =  0.00697

 Side 1  free  transition at x/c =  0.8534   69
 Side 2  free  transition at x/c =  0.3207   38

 155   rms: 0.7406E-02   max: -.1234E+00   C at   38  2
       a = -2.500      CL =  0.3501
      Cm = -0.1060     CD =  0.01430   =>   CDf =  0.00734    CDp =  0.00697
 VISCAL:  Convergence failed
 Calculating wake trajectory ...
 Calculating source influence matrix ...

 Solving BL system ...

 Side 1  free  transition at x/c =  0.8534   69
 Side 2  free  transition at x/c =  0.3207   38

   1   rms: 0.1343E+00   max: -.1309E+01   C at   38  2   RLX: 0.382
       a = -2.000      CL =  0.3703
      Cm = -0.1055     CD =  0.01409   =>   CDf =  0.00734    CDp =  0.00675

 Side 1  free  transition at x/c =  0.8441   69
 Side 2  free  transition at x/c =  0.4672   48

   2   rms: 0.3502E+00   max: -.5650E+01   C at   48  2   RLX: 0.088
       a = -2.000      CL =  0.3666
      Cm = -0.1039     CD =  0.01371   =>   CDf =  0.00697    CDp =  0.00675

 Side 1  free  transition at x/c =  0.8437   68
 Side 2  free  transition at x/c =  0.4793   48

   3   rms: 0.1193E+00   max: -.1687E+01   C at   48  2   RLX: 0.296
       a = -2.000      CL =  0.3745
      Cm = -0.1039     CD =  0.01367   =>   CDf =  0.00689    CDp =  0.00678

 Side 1  free  transition at x/c =  0.8380   69
 Side 2  free  transition at x/c =  0.5749   53

   4   rms: 0.1610E+00   max: -.2127E+01   D at    2  1   RLX: 0.235
       a = -2.000      CL =  0.3801
      Cm = -0.1036     CD =  0.01333   =>   CDf =  0.00647    CDp =  0.00686

 Side 1  free  transition at x/c =  0.8370   69
 Side 2  free  transition at x/c =  0.7153   62

   5   rms: 0.6539E+00   max: -.9323E+01   C at   62  2   RLX: 0.054
       a = -2.000      CL =  0.3774
      Cm = -0.1018     CD =  0.01280   =>   CDf =  0.00592    CDp =  0.00688

 Side 1  free  transition at x/c =  0.8369   69
 Side 2  free  transition at x/c =  0.7239   63

   6   rms: 0.5307E+00   max: -.7813E+01   C at   63  2   RLX: 0.064
       a = -2.000      CL =  0.3785
      Cm = -0.1020     CD =  0.01276   =>   CDf =  0.00590    CDp =  0.00686

 Side 1  free  transition at x/c =  0.8369   69
 Side 2  free  transition at x/c =  0.7443   64

   7   rms: 0.7452E+00   max: -.1037E+02   C at   64  2   RLX: 0.048
       a = -2.000      CL =  0.3791
      Cm = -0.1019     CD =  0.01268   =>   CDf =  0.00579    CDp =  0.00689

 Side 1  free  transition at x/c =  0.8369   69
 Side 2  free  transition at x/c =  0.7865   67

   8   rms: 0.2648E+01   max: -.3630E+02   C at   67  2   RLX: 0.014
       a = -2.000      CL =  0.3801
      Cm = -0.1018     CD =  0.01257   =>   CDf =  0.00566    CDp =  0.00692

 Side 1  free  transition at x/c =  0.8371   69
 Side 2  free  transition at x/c =  0.8197   69

   9   rms: 0.1451E+01   max: 0.1970E+02   C at   69  2   RLX: 0.076
       a = -2.000      CL =  0.3731
      Cm = -0.1009     CD =  0.01285   =>   CDf =  0.00558    CDp =  0.00727

 Side 1  free  transition at x/c =  0.8358   69
 Side 2  free  transition at x/c =  0.7342   63

  10   rms: 0.5244E+00   max: -.7369E+01   C at   63  2   RLX: 0.068
       a = -2.000      CL =  0.3740
      Cm = -0.1007     CD =  0.01269   =>   CDf =  0.00583    CDp =  0.00685

 Side 1  free  transition at x/c =  0.8358   69
 Side 2  free  transition at x/c =  0.7583   65

  11   rms: 0.7525E+00   max: -.1051E+02   C at   65  2   RLX: 0.048
       a = -2.000      CL =  0.3750
      Cm = -0.1007     CD =  0.01261   =>   CDf =  0.00574    CDp =  0.00687

 Side 1  free  transition at x/c =  0.8358   69
 Side 2  free  transition at x/c =  0.8035   68

  12   rms: 0.1974E+01   max: 0.2612E+02   C at   68  2   RLX: 0.057
       a = -2.000      CL =  0.3692
      Cm = -0.0999     CD =  0.01281   =>   CDf =  0.00559    CDp =  0.00722

 Side 1  free  transition at x/c =  0.8349   69
 Side 2  free  transition at x/c =  0.7445   64

  13   rms: 0.4890E+00   max: -.6957E+01   C at   64  2   RLX: 0.072
       a = -2.000      CL =  0.3701
      Cm = -0.0995     CD =  0.01261   =>   CDf =  0.00579    CDp =  0.00682

 Side 1  free  transition at x/c =  0.8349   69
 Side 2  free  transition at x/c =  0.7946   67

  14   rms: 0.2444E+01   max: 0.3123E+02   C at   67  2   RLX: 0.048
       a = -2.000      CL =  0.3655
      Cm = -0.0988     CD =  0.01277   =>   CDf =  0.00560    CDp =  0.00717

 Side 1  free  transition at x/c =  0.8341   69
 Side 2  free  transition at x/c =  0.7532   64

  15   rms: 0.5809E+00   max: -.7926E+01   C at   64  2   RLX: 0.063
       a = -2.000      CL =  0.3662
      Cm = -0.0983     CD =  0.01256   =>   CDf =  0.00575    CDp =  0.00681

 Side 1  free  transition at x/c =  0.8343   69
 Side 2  free  transition at x/c =  0.8166   68

  16   rms: 0.5892E+00   max: 0.7057E+01   C at   68  2   RLX: 0.213
       a = -2.000      CL =  0.3589
      Cm = -0.0962     CD =  0.01262   =>   CDf =  0.00554    CDp =  0.00709

 Side 1  free  transition at x/c =  0.8333   69
 Side 2  free  transition at x/c =  0.7548   65

  17   rms: 0.5734E+00   max: -.8186E+01   C at   65  2   RLX: 0.061
       a = -2.000      CL =  0.3607
      Cm = -0.0962     CD =  0.01249   =>   CDf =  0.00576    CDp =  0.00673

 Side 1  free  transition at x/c =  0.8335   69
 Side 2  free  transition at x/c =  0.8245   69

  18   rms: 0.4018E+00   max: 0.4940E+01   C at   69  2   RLX: 0.304
       a = -2.000      CL =  0.3542
      Cm = -0.0944     CD =  0.01255   =>   CDf =  0.00554    CDp =  0.00701

 Side 1  free  transition at x/c =  0.8326   69
 Side 2  free  transition at x/c =  0.7502   64

  19   rms: 0.5330E+00   max: -.7398E+01   C at   64  2   RLX: 0.068
       a = -2.000      CL =  0.3568
      Cm = -0.0948     CD =  0.01244   =>   CDf =  0.00580    CDp =  0.00665

 Side 1  free  transition at x/c =  0.8328   69
 Side 2  free  transition at x/c =  0.8459   70

  20   rms: 0.2749E+00   max: 0.3299E+01   C at   70  2   RLX: 0.455
       a = -2.000      CL =  0.3524
      Cm = -0.0930     CD =  0.01244   =>   CDf =  0.00554    CDp =  0.00690

 Side 1  free  transition at x/c =  0.8323   69
 Side 2  free  transition at x/c =  0.7692   65

  21   rms: 0.1369E+01   max: -.1846E+02   C at   65  2   RLX: 0.027
       a = -2.000      CL =  0.3546
      Cm = -0.0934     CD =  0.01233   =>   CDf =  0.00575    CDp =  0.00657

 Side 1  free  transition at x/c =  0.8325   69
 Side 2  free  transition at x/c =  0.8237   69

  22   rms: 0.3257E+00   max: 0.4156E+01   C at   69  2   RLX: 0.361
       a = -2.000      CL =  0.3520
      Cm = -0.0932     CD =  0.01250   =>   CDf =  0.00559    CDp =  0.00691

 Side 1  free  transition at x/c =  0.8320   69
 Side 2  free  transition at x/c =  0.7701   66

  23   rms: 0.2211E+01   max: -.3122E+02   C at   66  2   RLX: 0.016
       a = -2.000      CL =  0.3531
      Cm = -0.0930     CD =  0.01231   =>   CDf =  0.00574    CDp =  0.00656

 Side 1  free  transition at x/c =  0.8322   69
 Side 2  free  transition at x/c =  0.7935   67
 idif Ue xi dudx           1  0.15746465      1.65915489E-03   94.906540    
 Uenew xinew           2  3.95980955E-04  4.17232513E-06

  24   rms: 0.1021E+01   max: 0.1362E+02   C at   67  2   RLX: 0.110
       a = -2.000      CL =  0.3507
      Cm = -0.0933     CD =  0.01258   =>   CDf =  0.00570    CDp =  0.00688

 Side 1  free  transition at x/c =  0.8317   68
 Side 2  free  transition at x/c =  0.7617   66

  25   rms: 0.7230E+01   max: -.1277E+03   T at    2  2   RLX: 0.004
       a = -2.000      CL =  0.3498
      Cm = -0.0926     CD =  0.01239   =>   CDf =  0.00574    CDp =  0.00665

 Side 1  free  transition at x/c =  0.8317   69
 Side 2  free  transition at x/c =  0.7656   65

  26   rms: 0.1178E+01   max: -.1546E+02   C at   65  2   RLX: 0.032
       a = -2.000      CL =  0.3519
      Cm = -0.0928     CD =  0.01231   =>   CDf =  0.00575    CDp =  0.00657

 Side 1  free  transition at x/c =  0.8320   69
 Side 2  free  transition at x/c =  0.8318   69

  27   rms: 0.2888E+00   max: 0.3538E+01   C at   69  2   RLX: 0.424
       a = -2.000      CL =  0.3502
      Cm = -0.0927     CD =  0.01245   =>   CDf =  0.00556    CDp =  0.00689

 Side 1  free  transition at x/c =  0.8317   69
 Side 2  free  transition at x/c =  0.7658   65

  28   rms: 0.1093E+01   max: -.1489E+02   C at   65  2   RLX: 0.034
       a = -2.000      CL =  0.3523
      Cm = -0.0928     CD =  0.01231   =>   CDf =  0.00575    CDp =  0.00655

 Side 1  free  transition at x/c =  0.8319   69
 Side 2  free  transition at x/c =  0.8407   70

  29   rms: 0.2352E+00   max: 0.2926E+01   C at   70  2   RLX: 0.513
       a = -2.000      CL =  0.3511
      Cm = -0.0927     CD =  0.01244   =>   CDf =  0.00555    CDp =  0.00689

 Side 1  free  transition at x/c =  0.8318   69
 Side 2  free  transition at x/c =  0.7751   66

  30   rms: 0.3497E+01   max: -.4841E+02   C at   66  2   RLX: 0.010
       a = -2.000      CL =  0.3528
      Cm = -0.0928     CD =  0.01227   =>   CDf =  0.00573    CDp =  0.00654

 Side 1  free  transition at x/c =  0.8320   69
 Side 2  free  transition at x/c =  0.8214   69

  31   rms: 0.3126E+00   max: 0.4069E+01   C at   69  2   RLX: 0.369
       a = -2.000      CL =  0.3508
      Cm = -0.0930     CD =  0.01250   =>   CDf =  0.00559    CDp =  0.00691

 Side 1  free  transition at x/c =  0.8317   69
 Side 2  free  transition at x/c =  0.7660   65

  32   rms: 0.1069E+01   max: -.1460E+02   C at   65  2   RLX: 0.034
       a = -2.000      CL =  0.3527
      Cm = -0.0929     CD =  0.01231   =>   CDf =  0.00575    CDp =  0.00655

 Side 1  free  transition at x/c =  0.8319   69
 Side 2  free  transition at x/c =  0.8488   70

  33   rms: 0.2294E+00   max: 0.2793E+01   C at   70  2   RLX: 0.537
       a = -2.000      CL =  0.3515
      Cm = -0.0927     CD =  0.01242   =>   CDf =  0.00554    CDp =  0.00687

 Side 1  free  transition at x/c =  0.8319   69
 Side 2  free  transition at x/c =  0.7820   66

  34   rms: 0.9952E+01   max: -.1343E+03   C at   66  2   RLX: 0.004
       a = -2.000      CL =  0.3534
      Cm = -0.0928     CD =  0.01225   =>   CDf =  0.00571    CDp =  0.00654

 Side 1  free  transition at x/c =  0.8321   69
 Side 2  free  transition at x/c =  0.8466   70

  35   rms: 0.2221E+00   max: 0.2741E+01   C at   70  2   RLX: 0.547
       a = -2.000      CL =  0.3523
      Cm = -0.0929     CD =  0.01244   =>   CDf =  0.00555    CDp =  0.00688

 Side 1  free  transition at x/c =  0.8319   69
 Side 2  free  transition at x/c =  0.7851   66

  36   rms: 0.1118E+02   max: -.1496E+03   C at   66  2   RLX: 0.003
       a = -2.000      CL =  0.3543
[...]

 Side 1  free  transition at x/c =  0.0322   28
 Side 2 forced transition at x/c =  1.0000   66

   2   rms: 0.1648E-01   max: 0.6920E-01   D at   64  1
       a = 13.250      CL =  1.3510
      Cm = -0.0456     CD =  0.07396   =>   CDf =  0.00720    CDp =  0.06676

 Side 1  free  transition at x/c =  0.0320   28
 Side 2 forced transition at x/c =  1.0000   66

   3   rms: 0.3021E-02   max: 0.1417E-01   D at   81  2
       a = 13.250      CL =  1.3487
      Cm = -0.0454     CD =  0.07371   =>   CDf =  0.00713    CDp =  0.06658

 Side 1  free  transition at x/c =  0.0321   28
 Side 2 forced transition at x/c =  1.0000   66

   4   rms: 0.1876E-03   max: 0.1338E-02   D at   81  2
       a = 13.250      CL =  1.3486
      Cm = -0.0454     CD =  0.07366   =>   CDf =  0.00713    CDp =  0.06653

 Side 1  free  transition at x/c =  0.0321   28
 Side 2 forced transition at x/c =  1.0000   66

   5   rms: 0.5474E-05   max: -.4450E-04   C at   66  2
       a = 13.250      CL =  1.3486
      Cm = -0.0454     CD =  0.07365   =>   CDf =  0.00713    CDp =  0.06652
 plradd ia,ip,cpol           40           0  1.75067195E-04

 Point added to stored polar  1
 Point written to save file  n11_Re150k.base.pol                             
 Dump file unspecified or not available
 Calculating wake trajectory ...
 Calculating source influence matrix ...

 Solving BL system ...

 Side 1  free  transition at x/c =  0.0321   28
 Side 2 forced transition at x/c =  1.0000   66

   1   rms: 0.3319E-01   max: 0.1268E+00   D at   61  1   RLX: 0.540
       a = 13.500      CL =  1.3470
      Cm = -0.0459     CD =  0.07632   =>   CDf =  0.00713    CDp =  0.06919

 Side 1  free  transition at x/c =  0.0317   28
 Side 2 forced transition at x/c =  1.0000   66

   2   rms: 0.1606E-01   max: 0.6368E-01   D at   62  1
       a = 13.500      CL =  1.3436
      Cm = -0.0462     CD =  0.07831   =>   CDf =  0.00706    CDp =  0.07125

 Side 1  free  transition at x/c =  0.0315   28
 Side 2 forced transition at x/c =  1.0000   66

   3   rms: 0.2886E-02   max: 0.1408E-01   D at   82  2
       a = 13.500      CL =  1.3414
      Cm = -0.0460     CD =  0.07806   =>   CDf =  0.00700    CDp =  0.07106

 Side 1  free  transition at x/c =  0.0316   28
 Side 2 forced transition at x/c =  1.0000   66

   4   rms: 0.1970E-03   max: 0.1511E-02   D at   82  2
       a = 13.500      CL =  1.3413
      Cm = -0.0460     CD =  0.07801   =>   CDf =  0.00699    CDp =  0.07101

 Side 1  free  transition at x/c =  0.0316   28
 Side 2 forced transition at x/c =  1.0000   66

   5   rms: 0.7413E-05   max: -.6295E-04   C at   66  2
       a = 13.500      CL =  1.3413
      Cm = -0.0460     CD =  0.07801   =>   CDf =  0.00699    CDp =  0.07101
 plradd ia,ip,cpol           41           0  1.75067195E-04

 Point added to stored polar  1
 Point written to save file  n11_Re150k.base.pol                             
 Dump file unspecified or not available
 Calculating wake trajectory ...
 Calculating source influence matrix ...

 Solving BL system ...

 Side 1  free  transition at x/c =  0.0316   28
 Side 2 forced transition at x/c =  1.0000   66

   1   rms: 0.3105E-01   max: 0.1150E+00   D at   59  1   RLX: 0.521
       a = 13.750      CL =  1.3403
      Cm = -0.0465     CD =  0.08048   =>   CDf =  0.00700    CDp =  0.07348

 Side 1  free  transition at x/c =  0.0312   28
 Side 2 forced transition at x/c =  1.0000   66

   2   rms: 0.1586E-01   max: 0.6362E-01   D at   61  1
       a = 13.750      CL =  1.3374
      Cm = -0.0468     CD =  0.08258   =>   CDf =  0.00694    CDp =  0.07564

 Side 1  free  transition at x/c =  0.0310   28
 Side 2 forced transition at x/c =  1.0000   66

   3   rms: 0.3121E-02   max: 0.1562E-01   D at   82  2
       a = 13.750      CL =  1.3351
      Cm = -0.0467     CD =  0.08233   =>   CDf =  0.00688    CDp =  0.07545

 Side 1  free  transition at x/c =  0.0310   28
 Side 2 forced transition at x/c =  1.0000   66

   4   rms: 0.2449E-03   max: 0.2604E-02   D at   82  2
       a = 13.750      CL =  1.3349
      Cm = -0.0467     CD =  0.08226   =>   CDf =  0.00687    CDp =  0.07539

 Side 1  free  transition at x/c =  0.0310   28
 Side 2 forced transition at x/c =  1.0000   66

   5   rms: 0.1059E-04   max: -.8303E-04   C at   66  2
       a = 13.750      CL =  1.3349
      Cm = -0.0467     CD =  0.08226   =>   CDf =  0.00687    CDp =  0.07538
 plradd ia,ip,cpol           42           0  1.75067195E-04

 Point added to stored polar  1
 Point written to save file  n11_Re150k.base.pol                             
 Dump file unspecified or not available
 Calculating wake trajectory ...
 Calculating source influence matrix ...

 Solving BL system ...

 Side 1  free  transition at x/c =  0.0310   28
 Side 2 forced transition at x/c =  1.0000   66

   1   rms: 0.2947E-01   max: 0.1049E+00   D at   58  1   RLX: 0.503
       a = 14.000      CL =  1.3345
      Cm = -0.0470     CD =  0.08457   =>   CDf =  0.00688    CDp =  0.07769

 Side 1  free  transition at x/c =  0.0307   28
 Side 2 forced transition at x/c =  1.0000   66

   2   rms: 0.1519E-01   max: 0.5656E-01   D at   60  1
       a = 14.000      CL =  1.3323
      Cm = -0.0473     CD =  0.08662   =>   CDf =  0.00683    CDp =  0.07979

 Side 1  free  transition at x/c =  0.0304   28
 Side 2 forced transition at x/c =  1.0000   66

   3   rms: 0.3142E-02   max: 0.1439E-01   D at   82  2
       a = 14.000      CL =  1.3300
      Cm = -0.0472     CD =  0.08638   =>   CDf =  0.00677    CDp =  0.07960

 Side 1  free  transition at x/c =  0.0305   28
 Side 2 forced transition at x/c =  1.0000   66

   4   rms: 0.2431E-03   max: 0.1762E-02   D at   82  2
       a = 14.000      CL =  1.3298
      Cm = -0.0472     CD =  0.08630   =>   CDf =  0.00677    CDp =  0.07954

 Side 1  free  transition at x/c =  0.0305   28
 Side 2 forced transition at x/c =  1.0000   66

   5   rms: 0.1138E-04   max: -.4341E-04   D at   57  1
       a = 14.000      CL =  1.3298
      Cm = -0.0472     CD =  0.08630   =>   CDf =  0.00677    CDp =  0.07953
 plradd ia,ip,cpol           43           0  1.75067195E-04

 Point added to stored polar  1
 Point written to save file  n11_Re150k.base.pol                             
 Dump file unspecified or not available
 Calculating wake trajectory ...
 Calculating source influence matrix ...

 Solving BL system ...

 Side 1  free  transition at x/c =  0.0305   28
 Side 2 forced transition at x/c =  1.0000   66

   1   rms: 0.2817E-01   max: 0.9403E-01   D at   57  1   RLX: 0.487
       a = 14.250      CL =  1.3300
      Cm = -0.0475     CD =  0.08843   =>   CDf =  0.00677    CDp =  0.08166

 Side 1  free  transition at x/c =  0.0300   28
 Side 2 forced transition at x/c =  1.0000   66

   2   rms: 0.1474E-01   max: 0.5177E-01   D at   59  1
       a = 14.250      CL =  1.3286
      Cm = -0.0478     CD =  0.09046   =>   CDf =  0.00673    CDp =  0.08373

 Side 1  free  transition at x/c =  0.0297   28
 Side 2 forced transition at x/c =  1.0000   66

   3   rms: 0.3278E-02   max: 0.1330E-01   D at   83  2
       a = 14.250      CL =  1.3262
      Cm = -0.0478     CD =  0.09025   =>   CDf =  0.00669    CDp =  0.08357

 Side 1  free  transition at x/c =  0.0298   28
 Side 2 forced transition at x/c =  1.0000   66

   4   rms: 0.2376E-03   max: 0.1685E-02   D at   82  2
       a = 14.250      CL =  1.3260
      Cm = -0.0477     CD =  0.09016   =>   CDf =  0.00668    CDp =  0.08348

 Side 1  free  transition at x/c =  0.0298   28
 Side 2 forced transition at x/c =  1.0000   66

   5   rms: 0.1956E-04   max: -.7809E-04   C at   66  2
       a = 14.250      CL =  1.3260
      Cm = -0.0477     CD =  0.09016   =>   CDf =  0.00668    CDp =  0.08348
 plradd ia,ip,cpol           44           0 -6.06698086E-05

 Point added to stored polar  1
 Point written to save file  n11_Re150k.base.pol                             
 Dump file unspecified or not available
 Calculating wake trajectory ...
 Calculating source influence matrix ...

 Solving BL system ...

 Side 1  free  transition at x/c =  0.0298   28
 Side 2 forced transition at x/c =  1.0000   66

   1   rms: 0.2718E-01   max: 0.8963E-01   T at   28  1   RLX: 0.473
       a = 14.500      CL =  1.3266
      Cm = -0.0480     CD =  0.09214   =>   CDf =  0.00668    CDp =  0.08545

 Side 1  free  transition at x/c =  0.0294   28
 Side 2 forced transition at x/c =  1.0000   66

   2   rms: 0.1439E-01   max: 0.4757E-01   D at   58  1
       a = 14.500      CL =  1.3260
      Cm = -0.0483     CD =  0.09412   =>   CDf =  0.00665    CDp =  0.08747

 Side 1  free  transition at x/c =  0.0290   28
 Side 2 forced transition at x/c =  1.0000   66

   3   rms: 0.3274E-02   max: 0.1340E-01   D at   83  2
       a = 14.500      CL =  1.3237
      Cm = -0.0483     CD =  0.09393   =>   CDf =  0.00662    CDp =  0.08731

 Side 1  free  transition at x/c =  0.0291   28
 Side 2 forced transition at x/c =  1.0000   66

   4   rms: 0.2388E-03   max: 0.1819E-02   D at   83  2
       a = 14.500      CL =  1.3235
      Cm = -0.0482     CD =  0.09383   =>   CDf =  0.00661    CDp =  0.08722

 Side 1  free  transition at x/c =  0.0291   28
 Side 2 forced transition at x/c =  1.0000   66

   5   rms: 0.2224E-04   max: -.6874E-04   D at   85  2
       a = 14.500      CL =  1.3235
      Cm = -0.0482     CD =  0.09383   =>   CDf =  0.00661    CDp =  0.08722
 plradd ia,ip,cpol           45           0 -6.06698086E-05

 Point added to stored polar  1
 Point written to save file  n11_Re150k.base.pol                             
 Dump file unspecified or not available
 Calculating wake trajectory ...
 Calculating source influence matrix ...

 Solving BL system ...

 Side 1  free  transition at x/c =  0.0291   28
 Side 2 forced transition at x/c =  1.0000   66

   1   rms: 0.2662E-01   max: 0.1133E+00   T at   28  1   RLX: 0.460
       a = 14.750      CL =  1.3246
      Cm = -0.0484     CD =  0.09559   =>   CDf =  0.00661    CDp =  0.08897

 Side 1  free  transition at x/c =  0.0287   28
 Side 2 forced transition at x/c =  1.0000   66

   2   rms: 0.1434E-01   max: 0.5757E-01   T at   28  1
       a = 14.750      CL =  1.3245
      Cm = -0.0487     CD =  0.09755   =>   CDf =  0.00660    CDp =  0.09095

 Side 1  free  transition at x/c =  0.0282   28
 Side 2 forced transition at x/c =  1.0000   66

   3   rms: 0.3154E-02   max: 0.1303E-01   D at   83  2
       a = 14.750      CL =  1.3222
      Cm = -0.0487     CD =  0.09736   =>   CDf =  0.00658    CDp =  0.09079

 Side 1  free  transition at x/c =  0.0283   28
 Side 2 forced transition at x/c =  1.0000   66

   4   rms: 0.2144E-03   max: 0.2044E-02   D at   83  2
       a = 14.750      CL =  1.3221
      Cm = -0.0486     CD =  0.09727   =>   CDf =  0.00657    CDp =  0.09070

 Side 1  free  transition at x/c =  0.0283   28
 Side 2 forced transition at x/c =  1.0000   66

   5   rms: 0.3086E-04   max: 0.9881E-04   T at   28  1
       a = 14.750      CL =  1.3221
      Cm = -0.0486     CD =  0.09727   =>   CDf =  0.00657    CDp =  0.09070
 plradd ia,ip,cpol           46           0 -6.06698086E-05

 Point added to stored polar  1
 Point written to save file  n11_Re150k.base.pol                             
 Dump file unspecified or not available
 Calculating wake trajectory ...
 Calculating source influence matrix ...

 Solving BL system ...

 Side 1  free  transition at x/c =  0.0283   28
 Side 2 forced transition at x/c =  1.0000   66

   1   rms: 0.2671E-01   max: 0.1357E+00   T at   28  1   RLX: 0.448
       a = 15.000      CL =  1.3236
      Cm = -0.0487     CD =  0.09884   =>   CDf =  0.00657    CDp =  0.09227

 Side 1  free  transition at x/c =  0.0279   28
 Side 2 forced transition at x/c =  1.0000   66

   2   rms: 0.1448E-01   max: 0.7749E-01   T at   28  1
       a = 15.000      CL =  1.3252
      Cm = -0.0485     CD =  0.10024   =>   CDf =  0.00657    CDp =  0.09367

 Side 1  free  transition at x/c =  0.0275   28
 Side 2 forced transition at x/c =  1.0000   66

   3   rms: 0.3080E-02   max: 0.1147E-01   D at   83  2
       a = 15.000      CL =  1.3231
      Cm = -0.0486     CD =  0.10021   =>   CDf =  0.00658    CDp =  0.09363

 Side 1  free  transition at x/c =  0.0275   28
 Side 2 forced transition at x/c =  1.0000   66

   4   rms: 0.1958E-03   max: 0.1423E-02   D at   83  2
       a = 15.000      CL =  1.3229
      Cm = -0.0485     CD =  0.10013   =>   CDf =  0.00657    CDp =  0.09356

 Side 1  free  transition at x/c =  0.0275   28
 Side 2 forced transition at x/c =  1.0000   66

   5   rms: 0.2727E-04   max: 0.8458E-04   T at   28  1
       a = 15.000      CL =  1.3229
      Cm = -0.0485     CD =  0.10012   =>   CDf =  0.00657    CDp =  0.09355
 plradd ia,ip,cpol           47           0 -6.06698086E-05

 Point added to stored polar  1
 Point written to save file  n11_Re150k.base.pol                             
 Dump file unspecified or not available
 Calculating wake trajectory ...
 Calculating source influence matrix ...

 Solving BL system ...

 Side 1  free  transition at x/c =  0.0275   28
 Side 2 forced transition at x/c =  1.0000   66

   1   rms: 0.3083E-01   max: 0.1727E+00   T at   28  1   RLX: 0.439
       a = 15.250      CL =  1.3262
      Cm = -0.0480     CD =  0.10091   =>   CDf =  0.00657    CDp =  0.09434

 Side 1  free  transition at x/c =  0.0271   28
 Side 2 forced transition at x/c =  1.0000   66

   2   rms: 0.2304E-01   max: 0.1068E+00   T at   28  1
       a = 15.250      CL =  1.3328
      Cm = -0.0462     CD =  0.10069   =>   CDf =  0.00602    CDp =  0.09467

 Side 1  free  transition at x/c =  0.0267   28
 Side 2 forced transition at x/c =  1.0000   65
 idif Ue xi dudx           1  0.11109465      8.48376751E-03   13.094967    
 Uenew xinew           2  5.32315229E-04  4.06503677E-05

   3   rms: 0.1914E-01   max: -.3218E+00   D at    2  1
       a = 15.250      CL =  1.3318
      Cm = -0.0468     CD =  0.10145   =>   CDf =  0.00711    CDp =  0.09434

 Side 1  free  transition at x/c =  0.0267   27
 Side 2 forced transition at x/c =  1.0000   66

   4   rms: 0.2608E-02   max: -.3453E-01   T at    2  2
       a = 15.250      CL =  1.3310
      Cm = -0.0468     CD =  0.10135   =>   CDf =  0.00662    CDp =  0.09473

 Side 1  free  transition at x/c =  0.0267   27
 Side 2 forced transition at x/c =  1.0000   66

   5   rms: 0.6143E-03   max: 0.7244E-02   D at    4  2
       a = 15.250      CL =  1.3309
      Cm = -0.0467     CD =  0.10131   =>   CDf =  0.00662    CDp =  0.09469

 Side 1  free  transition at x/c =  0.0267   27
 Side 2 forced transition at x/c =  1.0000   66

   6   rms: 0.6635E-05   max: -.5738E-04   C at   66  2
       a = 15.250      CL =  1.3309
      Cm = -0.0467     CD =  0.10131   =>   CDf =  0.00662    CDp =  0.09469
 plradd ia,ip,cpol           48           0 -6.06698086E-05

 Point added to stored polar  1
 Point written to save file  n11_Re150k.base.pol                             
 Dump file unspecified or not available
 Calculating wake trajectory ...
 Calculating source influence matrix ...

 Solving BL system ...

 Side 1  free  transition at x/c =  0.0267   27
 Side 2 forced transition at x/c =  1.0000   66

   1   rms: 0.2724E-01   max: -.1115E+00   D at    3  2   RLX: 0.432
       a = 15.500      CL =  1.3340
      Cm = -0.0467     CD =  0.10257   =>   CDf =  0.00605    CDp =  0.09652

 Side 1  free  transition at x/c =  0.0266   28
 Side 2 forced transition at x/c =  1.0000   65

   2   rms: 0.1785E-01   max: 0.1493E+00   D at    2  1
       a = 15.500      CL =  1.3375
      Cm = -0.0466     CD =  0.10405   =>   CDf =  0.00654    CDp =  0.09751

 Side 1  free  transition at x/c =  0.0264   28
 Side 2 forced transition at x/c =  1.0000   65

   3   rms: 0.3906E-02   max: 0.1348E-01   D at   59  1
       a = 15.500      CL =  1.3349
      Cm = -0.0468     CD =  0.10418   =>   CDf =  0.00646    CDp =  0.09771

 Side 1  free  transition at x/c =  0.0264   28
 Side 2 forced transition at x/c =  1.0000   65

   4   rms: 0.3932E-03   max: 0.2591E-02   D at   82  2
       a = 15.500      CL =  1.3346
      Cm = -0.0467     CD =  0.10404   =>   CDf =  0.00646    CDp =  0.09758

 Side 1  free  transition at x/c =  0.0264   28
 Side 2 forced transition at x/c =  1.0000   65

   5   rms: 0.3058E-04   max: -.1072E-03   D at   56  1
       a = 15.500      CL =  1.3346
      Cm = -0.0467     CD =  0.10403   =>   CDf =  0.00646    CDp =  0.09756
 plradd ia,ip,cpol           49           0 -6.06698086E-05

 Point added to stored polar  1
 Point written to save file  n11_Re150k.base.pol                             
 Dump file unspecified or not available
 Calculating wake trajectory ...
 Calculating source influence matrix ...

 Solving BL system ...

 Side 1  free  transition at x/c =  0.0264   28
 Side 2 forced transition at x/c =  1.0000   65

   1   rms: 0.2770E-01   max: 0.7913E-01   D at   31  1   RLX: 0.423
       a = 15.750      CL =  1.3381
      Cm = -0.0465     CD =  0.10512   =>   CDf =  0.00647    CDp =  0.09866

 Side 1  free  transition at x/c =  0.0263   28
 Side 2 forced transition at x/c =  1.0000   65

   2   rms: 0.1548E-01   max: 0.4216E-01   D at   31  1
       a = 15.750      CL =  1.3410
      Cm = -0.0466     CD =  0.10696   =>   CDf =  0.00640    CDp =  0.10056

 Side 1  free  transition at x/c =  0.0262   28
 Side 2 forced transition at x/c =  1.0000   65

   3   rms: 0.4421E-02   max: 0.1474E-01   D at   59  1
       a = 15.750      CL =  1.3380
      Cm = -0.0468     CD =  0.10708   =>   CDf =  0.00631    CDp =  0.10076

 Side 1  free  transition at x/c =  0.0262   28
 Side 2 forced transition at x/c =  1.0000   65

   4   rms: 0.4223E-03   max: 0.2946E-02   D at   82  2
       a = 15.750      CL =  1.3377
      Cm = -0.0468     CD =  0.10690   =>   CDf =  0.00631    CDp =  0.10059

 Side 1  free  transition at x/c =  0.0262   28
 Side 2 forced transition at x/c =  1.0000   65

   5   rms: 0.3564E-04   max: -.1150E-03   D at   56  1
       a = 15.750      CL =  1.3377
      Cm = -0.0468     CD =  0.10689   =>   CDf =  0.00632    CDp =  0.10057
 plradd ia,ip,cpol           50           0 -6.06698086E-05

 Point added to stored polar  1
 Point written to save file  n11_Re150k.base.pol                             
 Dump file unspecified or not available
 Calculating wake trajectory ...
 Calculating source influence matrix ...

 Solving BL system ...

 Side 1  free  transition at x/c =  0.0262   28
 Side 2 forced transition at x/c =  1.0000   65

   1   rms: 0.2741E-01   max: 0.7891E-01   D at   31  1   RLX: 0.414
       a = 16.000      CL =  1.3405
      Cm = -0.0467     CD =  0.10817   =>   CDf =  0.00632    CDp =  0.10185

 Side 1  free  transition at x/c =  0.0261   28
 Side 2 forced transition at x/c =  1.0000   65

   2   rms: 0.1583E-01   max: 0.4265E-01   D at   31  1
       a = 16.000      CL =  1.3426
      Cm = -0.0469     CD =  0.11024   =>   CDf =  0.00625    CDp =  0.10399

 Side 1  free  transition at x/c =  0.0260   28
 Side 2 forced transition at x/c =  1.0000   65

   3   rms: 0.4661E-02   max: 0.1603E-01   D at   58  1
       a = 16.000      CL =  1.3395
      Cm = -0.0472     CD =  0.11032   =>   CDf =  0.00615    CDp =  0.10417

 Side 1  free  transition at x/c =  0.0260   28
 Side 2 forced transition at x/c =  1.0000   65

   4   rms: 0.4293E-03   max: 0.3051E-02   D at   83  2
       a = 16.000      CL =  1.3392
      Cm = -0.0471     CD =  0.11012   =>   CDf =  0.00616    CDp =  0.10397

 Side 1  free  transition at x/c =  0.0260   28
 Side 2 forced transition at x/c =  1.0000   65

   5   rms: 0.4199E-04   max: -.1231E-03   D at   56  1
       a = 16.000      CL =  1.3392
      Cm = -0.0471     CD =  0.11011   =>   CDf =  0.00616    CDp =  0.10396
 plradd ia,ip,cpol           51           0 -6.06698086E-05

 Point added to stored polar  1
 Point written to save file  n11_Re150k.base.pol                             
 Dump file unspecified or not available

.OPERva   c>  
 Polar accumulation disabled

.OPERv   c>  
 XFOIL   c>  
 XFOIL   c>  