
 ===================================================
  XFOIL Version 6.99
  Copyright (C) 2000   Mark Drela, Harold Youngren

  This software comes with ABSOLUTELY NO WARRANTY,
    subject to the GNU General Public License.

  Caveat computor
 ===================================================

 File  xfoil.def  not found

   QUIT    Exit program

  .OPER    Direct operating point(s)
  .MDES    Complex mapping design routine
  .QDES    Surface speed design routine
  .GDES    Geometry design routine

   SAVE f  Write airfoil to labeled coordinate file
   PSAV f  Write airfoil to plain coordinate file
   ISAV f  Write airfoil to ISES coordinate file
   MSAV f  Write airfoil to MSES coordinate file
   REVE    Reverse written-airfoil node ordering

   LOAD f  Read buffer airfoil from coordinate file
   NACA i  Set NACA 4,5-digit airfoil and buffer airfoil
   INTE    Set buffer airfoil by interpolating two airfoils
   NORM    Buffer airfoil normalization toggle
   XYCM rr Change CM reference location, currently  0.25000 0.00000

   BEND    Display structural properties of current airfoil

   PCOP    Set current-airfoil panel nodes directly from buffer airfoil points
   PANE    Set current-airfoil panel nodes ( 160 ) based on curvature
  .PPAR    Show/change paneling

  .PLOP    Plotting options

   WDEF f  Write  current-settings file
   RDEF f  Reread current-settings file
   NAME s  Specify new airfoil name
   NINC    Increment name version number

   Z       Zoom    | (available in all menus)
   U       Unzoom  | 

 XFOIL   c>  
 Labeled airfoil file.  Name:  N-14                                            

 Number of input coordinate points:  33
 Counterclockwise ordering
 Max thickness =     0.114800  at x =   0.300
 Max camber    =     0.000736  at x =   0.200

  LE  x,y  =  -0.00000  -0.00030  |   Chord =   1.00000
  TE  x,y  =   1.00000   0.00000  |

 Current airfoil nodes set from buffer airfoil nodes (  33 )

 WARNING: Poor input coordinate distribution
          Excessive panel angle   71.1  at i =  17
          Repaneling with PANE and/or PPAR suggested
           (doing GDES,CADD before repaneling _may_
            improve excessively coarse LE spacing

 XFOIL   c>  
 XFOIL   c>  
 Sharp trailing edge

 Paneling parameters used...
   Number of panel nodes       160
   Panel bunching parameter    1.000
   TE/LE panel density ratio   0.150
   Refined-area/LE panel density ratio    0.200
   Top    side refined area x/c limits  1.000 1.000
   Bottom side refined area x/c limits  1.000 1.000

 XFOIL   c>  
.OPERi   c>  
 Xtr/c     =  1.0000    top    side
 Xtr/c     =  1.0000    bottom side
 Ncrit     =    9.00   ( 0.070 % turb. level )
 Vacc      =  0.0100

 Klag  =  5.6000     Uxwt  =    1.00
 A     =  6.7000     B     =  0.7500       KCt = 0.01485
 CtiniK=  1.8000     CtiniX=  3.3000

..VPAR   c>  
..VPAR   c>  
.OPERi   c>  
 M  =    0.0000
 Re =    300000

.OPERv   c>  
.OPERv   c>  
.OPERv   c>  
 Polar  1 newly created for accumulation
 Airfoil archived with polar: N-14                                            

Enter  polar save filename  OR  <return> for no file   s>  
 New polar save file available

Enter  polar dump filename  OR  <return> for no file   s>  
 Polar dump file will NOT be written

 Polar accumulation enabled

.OPERva   c>   Calculating unit vorticity distributions ...
 Calculating wake trajectory ...
 Calculating source influence matrix ...

 Solving BL system ...

 Initializing BL ...
    side            1  ...
 MRCHUE: Inverse mode at  58     Hk =   3.800
 MRCHUE: Inverse mode at  59     Hk =   4.245
 MRCHUE: Inverse mode at  60     Hk =   4.684
 MRCHUE: Inverse mode at  61     Hk =   5.117
 MRCHUE: Inverse mode at  62     Hk =   5.542
 MRCHUE: Inverse mode at  63     Hk =   5.961
 MRCHUE: Inverse mode at  64     Hk =   6.372
 MRCHUE: Inverse mode at  65     Hk =   6.777
 MRCHUE: Inverse mode at  66     Hk =   7.176
 MRCHUE: Inverse mode at  67     Hk =   7.572
 MRCHUE: Inverse mode at  68     Hk =   7.966
 MRCHUE: Inverse mode at  69     Hk =   8.356
 MRCHUE: Inverse mode at  70     Hk =   8.731
 MRCHUE: Inverse mode at  71     Hk =   9.077
 MRCHUE: Inverse mode at  72     Hk =   9.388
 MRCHUE: Inverse mode at  73     Hk =   9.664
 MRCHUE: Inverse mode at  74     Hk =   8.981
 MRCHUE: Inverse mode at  75     Hk =   8.365
    side            2  ...
 MRCHUE: Inverse mode at  20     Hk =   3.866
 MRCHUE: Inverse mode at  21     Hk =   4.894
 MRCHUE: Inverse mode at  22     Hk =   5.974
 MRCHUE: Inverse mode at  23     Hk =   7.137
 MRCHUE: Inverse mode at  24     Hk =   8.343
 MRCHUE: Inverse mode at  25     Hk =   9.494
 MRCHUE: Inverse mode at  26     Hk =   8.887
 MRCHUE: Inverse mode at  27     Hk =   4.474
 MRCHUE: Inverse mode at  28     Hk =   2.500
 MRCHUE: Inverse mode at  85     Hk =   2.500
 MRCHUE: Inverse mode at  86     Hk =   2.500
 MRCHUE: Convergence failed at  87  side 2    Res =  0.4640E+01
 MRCHUE: Inverse mode at  89     Hk =   3.264

 MRCHDU: Convergence failed at  87  side 2    Res =  0.1433E+01
 Side 1  free  transition at x/c =  0.9878   74
 Side 2  free  transition at x/c =  0.0754   26
 idif Ue xi dudx           1  0.14681211      2.47216225E-03   59.386116    
 Uenew xinew           2  1.17730033E-02  1.98245049E-04

   1   rms: 0.4316E+00   max: 0.2814E+01   D at   90  2   RLX: 0.210
       a = -4.000      CL = -0.4721
      Cm =  0.0014     CD =  0.00718   =>   CDf =  0.00774    CDp = -0.00056

 MRCHDU: Convergence failed at  29  side 2    Res =  0.1886E+01
 Side 1  free  transition at x/c =  0.9871   73
 Side 2  free  transition at x/c =  0.0872   28

   2   rms: 0.3671E+00   max: -.3660E+01   T at   28  2   RLX: 0.137
       a = -4.000      CL = -0.4871
      Cm =  0.0024     CD =  0.00727   =>   CDf =  0.00768    CDp = -0.00041

 Side 1  free  transition at x/c =  0.9865   73
 Side 2  free  transition at x/c =  0.1056   30

   3   rms: 0.5563E+00   max: -.7070E+01   C at   30  2   RLX: 0.071
       a = -4.000      CL = -0.4907
      Cm =  0.0037     CD =  0.00714   =>   CDf =  0.00770    CDp = -0.00056

 Side 1  free  transition at x/c =  0.9856   73
 Side 2  free  transition at x/c =  0.1231   31

   4   rms: 0.6406E+00   max: -.1185E+02   C at   31  2   RLX: 0.042
       a = -4.000      CL = -0.4924
      Cm =  0.0043     CD =  0.00730   =>   CDf =  0.00758    CDp = -0.00028

 Side 1  free  transition at x/c =  0.9851   73
 Side 2  free  transition at x/c =  0.1292   31

   5   rms: 0.2633E+00   max: -.2372E+01   T at   31  2   RLX: 0.211
       a = -4.000      CL = -0.4991
      Cm =  0.0066     CD =  0.00828   =>   CDf =  0.00757    CDp =  0.00071

 MRCHDU: Convergence failed at  34  side 2    Res =  0.1687E+01
 MRCHDU: Convergence failed at  35  side 2    Res =  0.1290E+01
 MRCHDU: Convergence failed at  36  side 2    Res =  0.7873E+00
 MRCHDU: Convergence failed at  37  side 2    Res =  0.9366E+00
 MRCHDU: Convergence failed at  38  side 2    Res =  0.1144E+01
 MRCHDU: Convergence failed at  39  side 2    Res =  0.1439E+01
 MRCHDU: Convergence failed at  40  side 2    Res =  0.1792E+01
 MRCHDU: Convergence failed at  41  side 2    Res =  0.2366E+01
 MRCHDU: Convergence failed at  42  side 2    Res =  0.3242E+01
 MRCHDU: Convergence failed at  43  side 2    Res =  0.4401E+01
 MRCHDU: Convergence failed at  44  side 2    Res =  0.6424E+01
 MRCHDU: Convergence failed at  45  side 2    Res =  0.1056E+02
 MRCHDU: Convergence failed at  46  side 2    Res =  0.2441E+02
 MRCHDU: Convergence failed at  47  side 2    Res =  0.1061E+03
 MRCHDU: Convergence failed at  48  side 2    Res =  0.2992E+02
 MRCHDU: Convergence failed at  49  side 2    Res =  0.3027E+02
 MRCHDU: Convergence failed at  50  side 2    Res =  0.1301E+02
 MRCHDU: Convergence failed at  51  side 2    Res =  0.8580E+01
 MRCHDU: Convergence failed at  52  side 2    Res =  0.6452E+01
 MRCHDU: Convergence failed at  53  side 2    Res =  0.5291E+01
 MRCHDU: Convergence failed at  54  side 2    Res =  0.4831E+01
 MRCHDU: Convergence failed at  55  side 2    Res =  0.4098E+01
 MRCHDU: Convergence failed at  56  side 2    Res =  0.3730E+01
 MRCHDU: Convergence failed at  57  side 2    Res =  0.3384E+01
 MRCHDU: Convergence failed at  58  side 2    Res =  0.3145E+01
 MRCHDU: Convergence failed at  59  side 2    Res =  0.2979E+01
 MRCHDU: Convergence failed at  60  side 2    Res =  0.2818E+01
 MRCHDU: Convergence failed at  61  side 2    Res =  0.2722E+01
 MRCHDU: Convergence failed at  62  side 2    Res =  0.2625E+01
 MRCHDU: Convergence failed at  63  side 2    Res =  0.7703E+00
 MRCHDU: Convergence failed at  64  side 2    Res =  0.7956E+00
 MRCHDU: Convergence failed at  65  side 2    Res =  0.8212E+00
 MRCHDU: Convergence failed at  66  side 2    Res =  0.8468E+00
 MRCHDU: Convergence failed at  67  side 2    Res =  0.8720E+00
 MRCHDU: Convergence failed at  68  side 2    Res =  0.8964E+00
 MRCHDU: Convergence failed at  69  side 2    Res =  0.9199E+00
 MRCHDU: Convergence failed at  70  side 2    Res =  0.9426E+00
 MRCHDU: Convergence failed at  71  side 2    Res =  0.9660E+00
 MRCHDU: Convergence failed at  72  side 2    Res =  0.1001E+01
 MRCHDU: Convergence failed at  73  side 2    Res =  0.1038E+01
 MRCHDU: Convergence failed at  74  side 2    Res =  0.1077E+01
 MRCHDU: Convergence failed at  75  side 2    Res =  0.1117E+01
 MRCHDU: Convergence failed at  76  side 2    Res =  0.1589E+01
 MRCHDU: Convergence failed at  77  side 2    Res =  0.1657E+01
 MRCHDU: Convergence failed at  78  side 2    Res =  0.1734E+01
 MRCHDU: Convergence failed at  79  side 2    Res =  0.1812E+01
 MRCHDU: Convergence failed at  80  side 2    Res =  0.1900E+01
 MRCHDU: Convergence failed at  81  side 2    Res =  0.1990E+01
 MRCHDU: Convergence failed at  82  side 2    Res =  0.2112E+01
 MRCHDU: Convergence failed at  83  side 2    Res =  0.2320E+01
 MRCHDU: Convergence failed at  84  side 2    Res =  0.2690E+01
 MRCHDU: Convergence failed at  85  side 2    Res =  0.1824E+01
 MRCHDU: Convergence failed at  86  side 2    Res =  0.1992E+01
 MRCHDU: Convergence failed at  87  side 2    Res =  0.2177E+01
 MRCHDU: Convergence failed at  88  side 2    Res =  0.2901E+01
 Side 1  free  transition at x/c =  0.9840   73
 Side 2  free  transition at x/c =  0.3749   47

   6   rms: 0.1585E+02   max: -.3907E+03   C at   47  2   RLX: 0.001
       a = -4.000      CL = -2.0567
      Cm =  0.5645     CD =  0.00268   =>   CDf =  0.03857    CDp = -0.03588

 Side 1  free  transition at x/c =  0.9840   73
 Side 2  free  transition at x/c =  0.3764   47

   7   rms: 0.7756E+00   max: 0.1340E+01   D at   91  2   RLX: 0.156
       a = -4.000      CL = -1.8038
      Cm =  0.4641     CD =  0.00450   =>   CDf =  0.01413    CDp = -0.00963

 Side 1  free  transition at x/c =  0.9818   72
 Side 2  free  transition at x/c =  0.4304   51

   8   rms: 0.6461E+00   max: 0.1312E+01   D at   91  2   RLX: 0.332
       a = -4.000      CL = -1.3675
      Cm =  0.3022     CD =  0.00529   =>   CDf =  0.01221    CDp = -0.00691

 Side 1  free  transition at x/c =  0.9725   71
 Side 2  free  transition at x/c =  0.3620   46

   9   rms: 0.4673E+00   max: 0.2893E+01   C at   46  2   RLX: 0.518
       a = -4.000      CL = -0.9452
      Cm =  0.1502     CD =  0.00760   =>   CDf =  0.01040    CDp = -0.00280

 Side 1  free  transition at x/c =  0.9655   71
 Side 2  free  transition at x/c =  0.3242   44

  10   rms: 0.2401E+00   max: 0.3945E+00   D at   97  2
       a = -4.000      CL = -0.5557
      Cm =  0.0186     CD =  0.01084   =>   CDf =  0.00834    CDp =  0.00250

 Side 1  free  transition at x/c =  0.9683   71
 Side 2  free  transition at x/c =  0.2015   36

  11   rms: 0.3424E-01   max: -.2362E+00   D at   37  2
       a = -4.000      CL = -0.5266
      Cm =  0.0132     CD =  0.01291   =>   CDf =  0.00710    CDp =  0.00580

 Side 1  free  transition at x/c =  0.9727   71
 Side 2  free  transition at x/c =  0.1767   35

  12   rms: 0.2564E-01   max: -.2472E+00   T at   71  1
       a = -4.000      CL = -0.5070
      Cm =  0.0091     CD =  0.01311   =>   CDf =  0.00724    CDp =  0.00587

 Side 1  free  transition at x/c =  0.9805   72
 Side 2  free  transition at x/c =  0.1825   35

  13   rms: 0.3905E-01   max: 0.3730E+00   D at   74  1
       a = -4.000      CL = -0.5228
      Cm =  0.0125     CD =  0.01300   =>   CDf =  0.00719    CDp =  0.00581

 Side 1  free  transition at x/c =  0.9731   72
 Side 2  free  transition at x/c =  0.1767   35

  14   rms: 0.4452E-02   max: -.5436E-01   D at   72  1
       a = -4.000      CL = -0.5220
      Cm =  0.0124     CD =  0.01310   =>   CDf =  0.00724    CDp =  0.00587

 Side 1  free  transition at x/c =  0.9736   72
 Side 2  free  transition at x/c =  0.1773   35

  15   rms: 0.1310E-03   max: -.9403E-03   C at   35  2
       a = -4.000      CL = -0.5219
      Cm =  0.0124     CD =  0.01310   =>   CDf =  0.00723    CDp =  0.00587

 Side 1  free  transition at x/c =  0.9736   72
 Side 2  free  transition at x/c =  0.1773   35

  16   rms: 0.7413E-06   max: -.4478E-05   C at   35  2
       a = -4.000      CL = -0.5219
      Cm =  0.0124     CD =  0.01310   =>   CDf =  0.00723    CDp =  0.00587
 plradd ia,ip,cpol            1           0  1.52466847E-02

 Point added to stored polar  1
 Point written to save file  n14_Re300k.base.pol                             
 Dump file unspecified or not available
 Calculating wake trajectory ...
 Calculating source influence matrix ...

 Solving BL system ...

 Side 1  free  transition at x/c =  0.9736   72
 Side 2  free  transition at x/c =  0.1773   35

   1   rms: 0.1298E+00   max: -.1600E+01   C at   35  2   RLX: 0.312
       a = -3.500      CL = -0.4996
      Cm =  0.0111     CD =  0.01287   =>   CDf =  0.00723    CDp =  0.00564

 Side 1  free  transition at x/c =  0.9723   71
 Side 2  free  transition at x/c =  0.1898   36

   2   rms: 0.8516E-01   max: 0.8128E+00   T at   71  1   RLX: 0.632
       a = -3.500      CL = -0.5000
      Cm =  0.0162     CD =  0.01250   =>   CDf =  0.00729    CDp =  0.00521

 Side 1  free  transition at x/c =  0.9590   71
 Side 2  free  transition at x/c =  0.2096   36

   3   rms: 0.1565E+00   max: -.2338E+01   C at   36  2   RLX: 0.214
       a = -3.500      CL = -0.4816
      Cm =  0.0132     CD =  0.01337   =>   CDf =  0.00709    CDp =  0.00628

 Side 1  free  transition at x/c =  0.9645   72
 Side 2  free  transition at x/c =  0.2206   37

   4   rms: 0.6159E-01   max: -.9456E+00   C at   37  2   RLX: 0.529
       a = -3.500      CL = -0.4720
      Cm =  0.0120     CD =  0.01239   =>   CDf =  0.00706    CDp =  0.00534

 Side 1  free  transition at x/c =  0.9643   72
 Side 2  free  transition at x/c =  0.2360   38

   5   rms: 0.4196E-01   max: -.6751E+00   C at   38  2   RLX: 0.741
       a = -3.500      CL = -0.4663
      Cm =  0.0115     CD =  0.01229   =>   CDf =  0.00698    CDp =  0.00531

 Side 1  free  transition at x/c =  0.9642   72
 Side 2  free  transition at x/c =  0.2520   39

   6   rms: 0.2163E-01   max: -.3696E+00   C at   39  2
       a = -3.500      CL = -0.4644
      Cm =  0.0113     CD =  0.01225   =>   CDf =  0.00690    CDp =  0.00535

 Side 1  free  transition at x/c =  0.9641   72
 Side 2  free  transition at x/c =  0.2643   39

   7   rms: 0.2285E-02   max: -.4459E-01   C at   39  2
       a = -3.500      CL = -0.4641
      Cm =  0.0112     CD =  0.01228   =>   CDf =  0.00681    CDp =  0.00547

 Side 1  free  transition at x/c =  0.9641   72
 Side 2  free  transition at x/c =  0.2654   39

   8   rms: 0.9021E-05   max: -.9729E-04   D at   42  2
       a = -3.500      CL = -0.4642
      Cm =  0.0112     CD =  0.01228   =>   CDf =  0.00681    CDp =  0.00547
 plradd ia,ip,cpol            2           0  1.52466847E-02

 Point added to stored polar  1
 Point written to save file  n14_Re300k.base.pol                             
 Dump file unspecified or not available
 Calculating wake trajectory ...
 Calculating source influence matrix ...

 Solving BL system ...

 Side 1  free  transition at x/c =  0.9641   72
 Side 2  free  transition at x/c =  0.2654   39

   1   rms: 0.1542E+00   max: -.2501E+01   C at   39  2   RLX: 0.200
       a = -3.000      CL = -0.4507
      Cm =  0.0106     CD =  0.01214   =>   CDf =  0.00681    CDp =  0.00534

 Side 1  free  transition at x/c =  0.9628   72
 Side 2  free  transition at x/c =  0.2921   41

   2   rms: 0.1386E+00   max: -.2302E+01   C at   41  2   RLX: 0.217
       a = -3.000      CL = -0.4396
      Cm =  0.0101     CD =  0.01193   =>   CDf =  0.00668    CDp =  0.00525

 Side 1  free  transition at x/c =  0.9618   72
 Side 2  free  transition at x/c =  0.3120   42

   3   rms: 0.8635E-01   max: -.1199E+01   C at   42  2   RLX: 0.417
       a = -3.000      CL = -0.4205
      Cm =  0.0091     CD =  0.01180   =>   CDf =  0.00660    CDp =  0.00519

 Side 1  free  transition at x/c =  0.9604   72
 Side 2  free  transition at x/c =  0.3486   45

   4   rms: 0.7067E-01   max: -.1125E+01   C at   45  2   RLX: 0.444
       a = -3.000      CL = -0.4103
      Cm =  0.0087     CD =  0.01151   =>   CDf =  0.00651    CDp =  0.00500

 Side 1  free  transition at x/c =  0.9597   72
 Side 2  free  transition at x/c =  0.3634   45
 idif Ue xi dudx           1  0.14635919      2.11417675E-03   69.227509    
 Uenew xinew           2  5.05056791E-03  7.29560852E-05

   5   rms: 0.4716E-01   max: 0.5730E+00   T at   72  1
       a = -3.000      CL = -0.4400
      Cm =  0.0174     CD =  0.01163   =>   CDf =  0.00636    CDp =  0.00528

 Side 1  free  transition at x/c =  0.9435   70
 Side 2  free  transition at x/c =  0.3514   45

   6   rms: 0.1973E+00   max: -.2458E+01   C at   45  2   RLX: 0.203
       a = -3.000      CL = -0.4208
      Cm =  0.0138     CD =  0.01265   =>   CDf =  0.00650    CDp =  0.00615

 Side 1  free  transition at x/c =  0.9512   72
 Side 2  free  transition at x/c =  0.3677   45

   7   rms: 0.2421E-01   max: -.3733E+00   C at   45  2
       a = -3.000      CL = -0.4091
      Cm =  0.0107     CD =  0.01139   =>   CDf =  0.00637    CDp =  0.00502

 Side 1  free  transition at x/c =  0.9538   72
 Side 2  free  transition at x/c =  0.3807   46

   8   rms: 0.8649E-02   max: -.1445E+00   C at   46  2
       a = -3.000      CL = -0.4071
      Cm =  0.0103     CD =  0.01136   =>   CDf =  0.00630    CDp =  0.00505

 Side 1  free  transition at x/c =  0.9548   72
 Side 2  free  transition at x/c =  0.3853   46

   9   rms: 0.6149E-03   max: -.1082E-01   C at   46  2
       a = -3.000      CL = -0.4069
      Cm =  0.0103     CD =  0.01136   =>   CDf =  0.00627    CDp =  0.00509

 Side 1  free  transition at x/c =  0.9548   72
 Side 2  free  transition at x/c =  0.3857   46

  10   rms: 0.8474E-05   max: -.1294E-03   C at   46  2
       a = -3.000      CL = -0.4069
      Cm =  0.0103     CD =  0.01136   =>   CDf =  0.00627    CDp =  0.00509
 plradd ia,ip,cpol            3           0  1.52466847E-02

 Point added to stored polar  1
 Point written to save file  n14_Re300k.base.pol                             
 Dump file unspecified or not available
 Calculating wake trajectory ...
 Calculating source influence matrix ...

 Solving BL system ...

 Side 1  free  transition at x/c =  0.9548   72
 Side 2  free  transition at x/c =  0.3857   46

   1   rms: 0.2130E+00   max: -.3740E+01   C at   46  2   RLX: 0.134
       a = -2.500      CL = -0.4004
      Cm =  0.0104     CD =  0.01121   =>   CDf =  0.00627    CDp =  0.00494

 Side 1  free  transition at x/c =  0.9531   72
 Side 2  free  transition at x/c =  0.4044   47

   2   rms: 0.1940E+00   max: -.3410E+01   C at   47  2   RLX: 0.147
       a = -2.500      CL = -0.3930
      Cm =  0.0103     CD =  0.01110   =>   CDf =  0.00618    CDp =  0.00492

 Side 1  free  transition at x/c =  0.9517   72
 Side 2  free  transition at x/c =  0.4260   48

   3   rms: 0.1537E+00   max: -.2612E+01   C at   48  2   RLX: 0.191
       a = -2.500      CL = -0.3839
      Cm =  0.0100     CD =  0.01097   =>   CDf =  0.00609    CDp =  0.00488

 Side 1  free  transition at x/c =  0.9504   72
 Side 2  free  transition at x/c =  0.4613   51

   4   rms: 0.1797E+00   max: -.3185E+01   C at   51  2   RLX: 0.157
       a = -2.500      CL = -0.3799
      Cm =  0.0102     CD =  0.01072   =>   CDf =  0.00592    CDp =  0.00480

 Side 1  free  transition at x/c =  0.9495   72
 Side 2  free  transition at x/c =  0.4786   52

   5   rms: 0.1474E+00   max: -.2587E+01   C at   52  2   RLX: 0.193
       a = -2.500      CL = -0.3738
      Cm =  0.0100     CD =  0.01060   =>   CDf =  0.00583    CDp =  0.00477

 Side 1  free  transition at x/c =  0.9487   72
 Side 2  free  transition at x/c =  0.4998   53

   6   rms: 0.1069E+00   max: -.1833E+01   C at   53  2   RLX: 0.273
       a = -2.500      CL = -0.3665
      Cm =  0.0097     CD =  0.01047   =>   CDf =  0.00574    CDp =  0.00473

 Side 1  free  transition at x/c =  0.9480   72
 Side 2  free  transition at x/c =  0.5326   55

   7   rms: 0.7142E-01   max: -.1190E+01   C at   55  2   RLX: 0.420
       a = -2.500      CL = -0.3589
      Cm =  0.0096     CD =  0.01026   =>   CDf =  0.00558    CDp =  0.00468

 Side 1  free  transition at x/c =  0.9472   72
 Side 2  free  transition at x/c =  0.5712   58

   8   rms: 0.3832E-01   max: -.6173E+00   C at   58  2   RLX: 0.810
       a = -2.500      CL = -0.3512
      Cm =  0.0097     CD =  0.01000   =>   CDf =  0.00540    CDp =  0.00460

 Side 1  free  transition at x/c =  0.9464   72
 Side 2  free  transition at x/c =  0.5910   59

   9   rms: 0.9189E-02   max: -.1470E+00   C at   59  2
       a = -2.500      CL = -0.3481
      Cm =  0.0094     CD =  0.00999   =>   CDf =  0.00532    CDp =  0.00468

 Side 1  free  transition at x/c =  0.9464   72
 Side 2  free  transition at x/c =  0.5999   60

  10   rms: 0.6055E-03   max: -.1087E-01   C at   60  2
       a = -2.500      CL = -0.3481
      Cm =  0.0094     CD =  0.00999   =>   CDf =  0.00528    CDp =  0.00471

 Side 1  free  transition at x/c =  0.9464   72
 Side 2  free  transition at x/c =  0.6002   60

  11   rms: 0.1151E-05   max: -.9590E-05   D at   59  2
       a = -2.500      CL = -0.3481
      Cm =  0.0094     CD =  0.00999   =>   CDf =  0.00528    CDp =  0.00471
 plradd ia,ip,cpol            4           0  1.52466847E-02

 Point added to stored polar  1
 Point written to save file  n14_Re300k.base.pol                             
 Dump file unspecified or not available
 Calculating wake trajectory ...
 Calculating source influence matrix ...

 Solving BL system ...

 Side 1  free  transition at x/c =  0.9464   72
 Side 2  free  transition at x/c =  0.6002   60

   1   rms: 0.2517E+00   max: -.4072E+01   C at   60  2   RLX: 0.123
       a = -2.000      CL = -0.3401
      Cm =  0.0092     CD =  0.00982   =>   CDf =  0.00528    CDp =  0.00454

 Side 1  free  transition at x/c =  0.9458   71
 Side 2  free  transition at x/c =  0.6171   61

   2   rms: 0.3143E+01   max: -.3547E+02   C at   61  2   RLX: 0.014
       a = -2.000      CL = -0.3110
      Cm =  0.0030     CD =  0.00960   =>   CDf =  0.00527    CDp =  0.00433

 Side 1  free  transition at x/c =  0.9587   73
 Side 2  free  transition at x/c =  0.6349   61

   3   rms: 0.1582E+00   max: -.2203E+01   C at   61  2   RLX: 0.227
       a = -2.000      CL = -0.3001
      Cm =  0.0021     CD =  0.00839   =>   CDf =  0.00516    CDp =  0.00323

 Side 1  free  transition at x/c =  0.9540   73
 Side 2  free  transition at x/c =  0.6542   62

   4   rms: 0.1163E+00   max: -.1608E+01   C at   62  2   RLX: 0.311
       a = -2.000      CL = -0.2922
      Cm =  0.0032     CD =  0.00865   =>   CDf =  0.00507    CDp =  0.00358

 Side 1  free  transition at x/c =  0.9490   73
 Side 2  free  transition at x/c =  0.6763   63

   5   rms: 0.6701E-01   max: -.7851E+00   C at   63  2   RLX: 0.637
       a = -2.000      CL = -0.2781
      Cm =  0.0044     CD =  0.00907   =>   CDf =  0.00498    CDp =  0.00408

 Side 1  free  transition at x/c =  0.9444   72
 Side 2  free  transition at x/c =  0.7216   66

   6   rms: 0.7136E+00   max: 0.5487E+01   T at   72  1   RLX: 0.151
       a = -2.000      CL = -0.3720
      Cm =  0.0250     CD =  0.00945   =>   CDf =  0.00476    CDp =  0.00469

 Side 1  free  transition at x/c =  0.9167   71
 Side 2  free  transition at x/c =  0.6587   62

   7   rms: 0.1166E+00   max: -.8032E+00   C at   62  2   RLX: 0.622
       a = -2.000      CL = -0.3279
      Cm =  0.0170     CD =  0.01024   =>   CDf =  0.00511    CDp =  0.00512

 Side 1  free  transition at x/c =  0.9266   71
 Side 2  free  transition at x/c =  0.7215   66

   8   rms: 0.1446E+00   max: -.1009E+01   T at   71  1   RLX: 0.496
       a = -2.000      CL = -0.2710
      Cm =  0.0059     CD =  0.00977   =>   CDf =  0.00482    CDp =  0.00495

 Side 1  free  transition at x/c =  0.9504   73
 Side 2  free  transition at x/c =  0.7526   68

   9   rms: 0.6510E-01   max: 0.5726E+00   D at   73  1
       a = -2.000      CL = -0.2609
      Cm =  0.0035     CD =  0.00903   =>   CDf =  0.00469    CDp =  0.00434

 Side 1  free  transition at x/c =  0.9452   72
 Side 2  free  transition at x/c =  0.7359   67

  10   rms: 0.9919E+00   max: -.7586E+01   T at   72  1   RLX: 0.066
       a = -2.000      CL = -0.2018
      Cm = -0.0097     CD =  0.00859   =>   CDf =  0.00480    CDp =  0.00379

 MRCHDU: Convergence failed at  76  side 1    Res =  0.5415E+01
 MRCHDU: Convergence failed at  77  side 1    Res =  0.1002E+02
 MRCHDU: Convergence failed at  78  side 1    Res =  0.7883E+01
 Side 1  free  transition at x/c =  0.9738   76
 Side 2  free  transition at x/c =  0.7525   67

  11   rms: 0.1934E+00   max: 0.1945E+01   C at   76  1   RLX: 0.771
       a = -2.000      CL = -0.2462
      Cm = -0.0015     CD =  0.00748   =>   CDf =  0.00472    CDp =  0.00276

 Side 1  free  transition at x/c =  0.9415   73
 Side 2  free  transition at x/c =  0.7399   66
 idif Ue xi dudx           1  0.23226716      2.62320042E-03   88.543427    
 Uenew xinew           2  7.98289701E-02  9.01579857E-04

  12   rms: 0.6975E-01   max: 0.3915E+00   T at   73  1
       a = -2.000      CL = -0.3175
      Cm =  0.0154     CD =  0.00938   =>   CDf =  0.00475    CDp =  0.00463

 Side 1  free  transition at x/c =  0.9266   71
 Side 2  free  transition at x/c =  0.7170   66

  13   rms: 0.7567E-01   max: -.4715E+00   T at   71  1
       a = -2.000      CL = -0.2632
      Cm =  0.0042     CD =  0.00917   =>   CDf =  0.00482    CDp =  0.00435

 Side 1  free  transition at x/c =  0.9495   73
 Side 2  free  transition at x/c =  0.7356   67

  14   rms: 0.6064E-01   max: 0.5206E+00   D at   73  1
       a = -2.000      CL = -0.2628
      Cm =  0.0038     CD =  0.00910   =>   CDf =  0.00477    CDp =  0.00433

 Side 1  free  transition at x/c =  0.9447   72
 Side 2  free  transition at x/c =  0.7378   67

  15   rms: 0.7163E+00   max: 0.5356E+01   T at   72  1   RLX: 0.151
       a = -2.000      CL = -0.3567
      Cm =  0.0233     CD =  0.00928   =>   CDf =  0.00475    CDp =  0.00453

 Side 1  free  transition at x/c =  0.9167   71
 Side 2  free  transition at x/c =  0.6916   64

  16   rms: 0.9363E-01   max: -.4386E+00   T at   71  1
       a = -2.000      CL = -0.3008
      Cm =  0.0119     CD =  0.00922   =>   CDf =  0.00494    CDp =  0.00428

 Side 1  free  transition at x/c =  0.9326   72
 Side 2  free  transition at x/c =  0.7361   67

  17   rms: 0.2874E-01   max: -.1570E+00   D at   71  1
       a = -2.000      CL = -0.2922
      Cm =  0.0101     CD =  0.00930   =>   CDf =  0.00474    CDp =  0.00456

 Side 1  free  transition at x/c =  0.9345   72
 Side 2  free  transition at x/c =  0.7277   67

  18   rms: 0.2585E-02   max: -.2962E-01   C at   67  2
       a = -2.000      CL = -0.2926
      Cm =  0.0102     CD =  0.00937   =>   CDf =  0.00478    CDp =  0.00458

 Side 1  free  transition at x/c =  0.9342   72
 Side 2  free  transition at x/c =  0.7285   67

  19   rms: 0.8661E-04   max: -.6366E-03   D at   70  2
       a = -2.000      CL = -0.2926
      Cm =  0.0102     CD =  0.00937   =>   CDf =  0.00477    CDp =  0.00460
 plradd ia,ip,cpol            5           0  1.93077177E-02

 Point added to stored polar  1
 Point written to save file  n14_Re300k.base.pol                             
 Dump file unspecified or not available
 Calculating wake trajectory ...
 Calculating source influence matrix ...

 Solving BL system ...

 Side 1  free  transition at x/c =  0.9342   72
 Side 2  free  transition at x/c =  0.7285   67

   1   rms: 0.1305E+00   max: -.1191E+01   C at   67  2   RLX: 0.420
       a = -1.500      CL = -0.2594
      Cm =  0.0085     CD =  0.00916   =>   CDf =  0.00480    CDp =  0.00436

 Side 1  free  transition at x/c =  0.9316   73
 Side 2  free  transition at x/c =  0.7532   67

   2   rms: 0.7415E-01   max: -.5188E+00   T at    2  1   RLX: 0.964
       a = -1.500      CL = -0.2143
      Cm =  0.0058     CD =  0.00904   =>   CDf =  0.00478    CDp =  0.00426

 MRCHDU: Convergence failed at  70  side 2    Res =  0.1963E+01
 MRCHDU: Convergence failed at  71  side 2    Res =  0.2110E+01
 MRCHDU: Convergence failed at  72  side 2    Res =  0.1127E+01
 MRCHDU: Convergence failed at  73  side 2    Res =  0.1834E+01
 MRCHDU: Convergence failed at  74  side 2    Res =  0.2421E+01
 MRCHDU: Convergence failed at  75  side 2    Res =  0.3016E+01
 MRCHDU: Convergence failed at  76  side 2    Res =  0.3601E+01
 MRCHDU: Convergence failed at  77  side 2    Res =  0.4063E+01
 MRCHDU: Convergence failed at  78  side 2    Res =  0.4362E+01
 MRCHDU: Convergence failed at  79  side 2    Res =  0.4466E+01
 MRCHDU: Convergence failed at  80  side 2    Res =  0.4396E+01
 MRCHDU: Convergence failed at  81  side 2    Res =  0.4191E+01
 MRCHDU: Convergence failed at  82  side 2    Res =  0.3858E+01
 MRCHDU: Convergence failed at  83  side 2    Res =  0.4067E+01
 MRCHDU: Convergence failed at  84  side 2    Res =  0.1116E+02
 Side 1  free  transition at x/c =  0.9297   72
 Side 2  free  transition at x/c =  0.7982   70

   3   rms: 0.4701E+00   max: -.2701E+01   T at   72  1   RLX: 0.185
       a = -1.500      CL = -0.1701
      Cm =  0.0121     CD =  0.00602   =>   CDf =  0.00428    CDp =  0.00174

 MRCHDU: Convergence failed at  76  side 1    Res =  0.1019E+02
 MRCHDU: Convergence failed at  77  side 1    Res =  0.2448E+02
 MRCHDU: Convergence failed at  78  side 1    Res =  0.2491E+02
 MRCHDU: Convergence failed at  79  side 1    Res =  0.1804E+02
 Side 1  free  transition at x/c =  0.9625   76
 Side 2  free  transition at x/c =  0.8010   69
 idif Ue xi dudx           1  0.22781858      2.27451324E-03   100.16147    
 Uenew xinew           2  6.51694909E-02  6.50644302E-04

   4   rms: 0.3361E+00   max: 0.1981E+01   C at   76  1   RLX: 0.757
       a = -1.500      CL = -0.2231
      Cm =  0.0097     CD =  0.00599   =>   CDf =  0.00502    CDp =  0.00097

 Side 1  free  transition at x/c =  0.9252   72
 Side 2  free  transition at x/c =  0.7957   70

   5   rms: 0.5971E-01   max: -.4555E+00   D at   74  1
       a = -1.500      CL = -0.2381
      Cm =  0.0112     CD =  0.00910   =>   CDf =  0.00469    CDp =  0.00441

 Side 1  free  transition at x/c =  0.9191   72
 Side 2  free  transition at x/c =  0.7901   70

   6   rms: 0.2341E-01   max: -.1492E+00   D at   74  1
       a = -1.500      CL = -0.2266
      Cm =  0.0089     CD =  0.00906   =>   CDf =  0.00463    CDp =  0.00443

 Side 1  free  transition at x/c =  0.9232   72
 Side 2  free  transition at x/c =  0.7910   70

   7   rms: 0.6707E-02   max: -.3902E-01   D at   78  1
       a = -1.500      CL = -0.2226
      Cm =  0.0080     CD =  0.00905   =>   CDf =  0.00462    CDp =  0.00443

 Side 1  free  transition at x/c =  0.9246   72
 Side 2  free  transition at x/c =  0.7913   70

   8   rms: 0.4818E-03   max: -.2732E-02   D at   78  1
       a = -1.500      CL = -0.2222
      Cm =  0.0079     CD =  0.00905   =>   CDf =  0.00462    CDp =  0.00443

 Side 1  free  transition at x/c =  0.9247   72
 Side 2  free  transition at x/c =  0.7913   70

   9   rms: 0.9509E-05   max: -.4766E-04   T at   72  1
       a = -1.500      CL = -0.2222
      Cm =  0.0079     CD =  0.00905   =>   CDf =  0.00463    CDp =  0.00443
 plradd ia,ip,cpol            6           0  7.73932710E-02

 Point added to stored polar  1
 Point written to save file  n14_Re300k.base.pol                             
 Dump file unspecified or not available
 Calculating wake trajectory ...
 Calculating source influence matrix ...

 Solving BL system ...

 Side 1  free  transition at x/c =  0.9247   72
 Side 2  free  transition at x/c =  0.7913   70

   1   rms: 0.1073E+00   max: -.4752E+00   C at   70  2
       a = -1.000      CL = -0.1466
      Cm =  0.0047     CD =  0.00876   =>   CDf =  0.00464    CDp =  0.00412

 Side 1  free  transition at x/c =  0.9123   72
 Side 2  free  transition at x/c =  0.8197   70

   2   rms: 0.4558E-01   max: -.2750E+00   D at   71  2
       a = -1.000      CL = -0.1323
      Cm =  0.0015     CD =  0.00860   =>   CDf =  0.00470    CDp =  0.00390

 Side 1  free  transition at x/c =  0.9235   73
 Side 2  free  transition at x/c =  0.8406   72

   3   rms: 0.5401E-01   max: 0.2830E+00   D at   74  1
       a = -1.000      CL = -0.1481
      Cm =  0.0050     CD =  0.00857   =>   CDf =  0.00452    CDp =  0.00405

 Side 1  free  transition at x/c =  0.9167   73
 Side 2  free  transition at x/c =  0.8334   71

   4   rms: 0.1086E-01   max: -.7581E-01   D at   83  2
       a = -1.000      CL = -0.1390
      Cm =  0.0031     CD =  0.00874   =>   CDf =  0.00456    CDp =  0.00418

 Side 1  free  transition at x/c =  0.9170   73
 Side 2  free  transition at x/c =  0.8300   71

   5   rms: 0.6664E-03   max: -.5637E-02   D at   72  2
       a = -1.000      CL = -0.1385
      Cm =  0.0030     CD =  0.00874   =>   CDf =  0.00457    CDp =  0.00417

 Side 1  free  transition at x/c =  0.9170   73
 Side 2  free  transition at x/c =  0.8302   71

   6   rms: 0.2669E-05   max: -.2611E-04   D at   74  2
       a = -1.000      CL = -0.1385
      Cm =  0.0030     CD =  0.00874   =>   CDf =  0.00457    CDp =  0.00417
 plradd ia,ip,cpol            7           0  7.73932710E-02

 Point added to stored polar  1
 Point written to save file  n14_Re300k.base.pol                             
 Dump file unspecified or not available
 Calculating wake trajectory ...
 Calculating source influence matrix ...

 Solving BL system ...

 Side 1  free  transition at x/c =  0.9170   73
 Side 2  free  transition at x/c =  0.8302   71

   1   rms: 0.1122E+00   max: -.2518E+00   T at   71  2
       a = -0.500      CL = -0.0519
      Cm = -0.0025     CD =  0.00837   =>   CDf =  0.00458    CDp =  0.00379

 Side 1  free  transition at x/c =  0.9141   73
 Side 2  free  transition at x/c =  0.8586   72

   2   rms: 0.5554E-01   max: 0.3193E+00   D at   74  1
       a = -0.500      CL = -0.0881
      Cm =  0.0051     CD =  0.00868   =>   CDf =  0.00453    CDp =  0.00415

 Side 1  free  transition at x/c =  0.8969   72
 Side 2  free  transition at x/c =  0.8604   72

   3   rms: 0.5355E-01   max: -.3187E+00   D at   74  1
       a = -0.500      CL = -0.0429
      Cm = -0.0043     CD =  0.00842   =>   CDf =  0.00454    CDp =  0.00388

 Side 1  free  transition at x/c =  0.9174   74
 Side 2  free  transition at x/c =  0.8581   72

   4   rms: 0.3077E-01   max: 0.2744E+00   D at   74  1
       a = -0.500      CL = -0.0446
      Cm = -0.0042     CD =  0.00843   =>   CDf =  0.00454    CDp =  0.00389

 Side 1  free  transition at x/c =  0.9122   73
 Side 2  free  transition at x/c =  0.8585   72

   5   rms: 0.4599E-01   max: 0.2216E+00   T at   73  1
       a = -0.500      CL = -0.0847
      Cm =  0.0043     CD =  0.00867   =>   CDf =  0.00453    CDp =  0.00415

 Side 1  free  transition at x/c =  0.8979   72
 Side 2  free  transition at x/c =  0.8608   72

   6   rms: 0.5252E-01   max: -.3165E+00   D at   74  1
       a = -0.500      CL = -0.0406
      Cm = -0.0048     CD =  0.00840   =>   CDf =  0.00454    CDp =  0.00386

 MRCHDU: Convergence failed at  74  side 1    Res =  0.1667E+01
 MRCHDU: Convergence failed at  75  side 1    Res =  0.4851E+02
 MRCHDU: Convergence failed at  76  side 1    Res =  0.7346E+01
 MRCHDU: Convergence failed at  77  side 1    Res =  0.6684E+01
 MRCHDU: Convergence failed at  78  side 1    Res =  0.8277E+01
 MRCHDU: Convergence failed at  79  side 1    Res =  0.1419E+02
 MRCHDU: Convergence failed at  80  side 1    Res =  0.3825E+02
 Side 1  free  transition at x/c =  0.9187   74
 Side 2  free  transition at x/c =  0.8579   72

   7   rms: 0.1971E+00   max: 0.1314E+01   C at   74  1
       a = -0.500      CL = -0.1221
      Cm =  0.0122     CD =  0.00758   =>   CDf =  0.00449    CDp =  0.00309

 Side 1  free  transition at x/c =  0.8858   72
 Side 2  free  transition at x/c =  0.8623   72

   8   rms: 0.1088E+00   max: -.6102E+00   D at   78  1   RLX: 0.819
       a = -0.500      CL = -0.0720
      Cm =  0.0021     CD =  0.00871   =>   CDf =  0.00450    CDp =  0.00421

 Side 1  free  transition at x/c =  0.9055   73
 Side 2  free  transition at x/c =  0.8597   72

   9   rms: 0.1168E-01   max: -.1400E+00   D at   78  1
       a = -0.500      CL = -0.0690
      Cm =  0.0011     CD =  0.00860   =>   CDf =  0.00452    CDp =  0.00407

 Side 1  free  transition at x/c =  0.9035   73
 Side 2  free  transition at x/c =  0.8598   72

  10   rms: 0.1519E-02   max: -.9074E-02   D at   78  1
       a = -0.500      CL = -0.0681
      Cm =  0.0009     CD =  0.00859   =>   CDf =  0.00453    CDp =  0.00407

 Side 1  free  transition at x/c =  0.9038   73
 Side 2  free  transition at x/c =  0.8598   72

  11   rms: 0.7471E-05   max: -.5730E-04   D at   80  1
       a = -0.500      CL = -0.0681
      Cm =  0.0009     CD =  0.00859   =>   CDf =  0.00453    CDp =  0.00407
 plradd ia,ip,cpol            8           0  7.73932710E-02

 Point added to stored polar  1
 Point written to save file  n14_Re300k.base.pol                             
 Dump file unspecified or not available
 Calculating wake trajectory ...
 Calculating source influence matrix ...

 Solving BL system ...

 Side 1  free  transition at x/c =  0.9038   73
 Side 2  free  transition at x/c =  0.8598   72

   1   rms: 0.1025E+00   max: -.2600E+00   T at   72  2
       a =  0.000      CL =  0.0106
      Cm = -0.0031     CD =  0.00843   =>   CDf =  0.00453    CDp =  0.00390

 Side 1  free  transition at x/c =  0.8946   73
 Side 2  free  transition at x/c =  0.8796   72

   2   rms: 0.1664E-01   max: 0.8647E-01   T at   73  1
       a =  0.000      CL = -0.0046
      Cm =  0.0000     CD =  0.00858   =>   CDf =  0.00452    CDp =  0.00406

 Side 1  free  transition at x/c =  0.8881   73
 Side 2  free  transition at x/c =  0.8831   72

   3   rms: 0.7796E-02   max: 0.5734E-01   D at   81  1
       a =  0.000      CL = -0.0005
      Cm = -0.0008     CD =  0.00854   =>   CDf =  0.00453    CDp =  0.00401

 Side 1  free  transition at x/c =  0.8901   73
 Side 2  free  transition at x/c =  0.8831   72

   4   rms: 0.8207E-03   max: -.4172E-02   D at   81  1
       a =  0.000      CL = -0.0014
      Cm = -0.0006     CD =  0.00854   =>   CDf =  0.00452    CDp =  0.00402

 Side 1  free  transition at x/c =  0.8899   73
 Side 2  free  transition at x/c =  0.8832   72

   5   rms: 0.4826E-05   max: -.4341E-04   D at   74  1
       a =  0.000      CL = -0.0014
      Cm = -0.0006     CD =  0.00854   =>   CDf =  0.00452    CDp =  0.00402
 plradd ia,ip,cpol            9           0  7.73932710E-02

 Point added to stored polar  1
 Point written to save file  n14_Re300k.base.pol                             
 Dump file unspecified or not available
 Calculating wake trajectory ...
 Calculating source influence matrix ...

 Solving BL system ...

 Side 1  free  transition at x/c =  0.8899   73
 Side 2  free  transition at x/c =  0.8833   72

   1   rms: 0.8275E-01   max: -.3700E+00   T at   72  2
       a =  0.500      CL =  0.0403
      Cm =  0.0031     CD =  0.00833   =>   CDf =  0.00452    CDp =  0.00381

 MRCHDU: Convergence failed at  74  side 2    Res =  0.2493E+02
 MRCHDU: Convergence failed at  75  side 2    Res =  0.3518E+01
 MRCHDU: Convergence failed at  76  side 2    Res =  0.2990E+01
 MRCHDU: Convergence failed at  77  side 2    Res =  0.3265E+01
 MRCHDU: Convergence failed at  78  side 2    Res =  0.3947E+01
 MRCHDU: Convergence failed at  79  side 2    Res =  0.5447E+01
 MRCHDU: Convergence failed at  80  side 2    Res =  0.1408E+02
 Side 1  free  transition at x/c =  0.8679   72
 Side 2  free  transition at x/c =  0.9167   74

   2   rms: 0.4014E+00   max: -.6242E+01   D at    2  1   RLX: 0.080
       a =  0.500      CL =  0.0302
      Cm =  0.0144     CD =  0.00612   =>   CDf =  0.00447    CDp =  0.00165

 Side 1  free  transition at x/c =  0.8687   73
 Side 2  free  transition at x/c =  0.9131   73
 idif Ue xi dudx           1  0.21733868      2.23624706E-03   97.189026    
 Uenew xinew           2  6.24244772E-02  6.42299652E-04

   3   rms: 0.1012E+00   max: 0.9913E+00   D at   80  2
       a =  0.500      CL = -0.0164
      Cm =  0.0164     CD =  0.00764   =>   CDf =  0.00469    CDp =  0.00295

 MRCHDU: Convergence failed at  81  side 2    Res =  0.1593E+02
 Side 1  free  transition at x/c =  0.8672   71
 Side 2  free  transition at x/c =  0.9190   75

   4   rms: 0.8930E-01   max: 0.4167E+00   C at   75  2
       a =  0.500      CL =  0.0651
      Cm = -0.0018     CD =  0.00807   =>   CDf =  0.00453    CDp =  0.00353

 Side 1  free  transition at x/c =  0.8754   73
 Side 2  free  transition at x/c =  0.9067   73

   5   rms: 0.3974E-01   max: -.1944E+00   D at   81  1
       a =  0.500      CL =  0.0866
      Cm = -0.0065     CD =  0.00852   =>   CDf =  0.00449    CDp =  0.00403

 Side 1  free  transition at x/c =  0.8726   73
 Side 2  free  transition at x/c =  0.8964   72

   6   rms: 0.2245E-01   max: -.1296E+00   D at   74  2
       a =  0.500      CL =  0.0658
      Cm = -0.0021     CD =  0.00852   =>   CDf =  0.00452    CDp =  0.00399

 Side 1  free  transition at x/c =  0.8710   73
 Side 2  free  transition at x/c =  0.9036   73

   7   rms: 0.1521E-01   max: 0.9348E-01   D at   73  2
       a =  0.500      CL =  0.0718
      Cm = -0.0033     CD =  0.00852   =>   CDf =  0.00452    CDp =  0.00400

 Side 1  free  transition at x/c =  0.8713   73
 Side 2  free  transition at x/c =  0.9006   73

   8   rms: 0.2151E-02   max: -.2081E-01   D at   79  2
       a =  0.500      CL =  0.0730
      Cm = -0.0036     CD =  0.00854   =>   CDf =  0.00452    CDp =  0.00402

 Side 1  free  transition at x/c =  0.8713   73
 Side 2  free  transition at x/c =  0.9002   73

   9   rms: 0.4716E-04   max: -.5738E-03   D at   79  2
       a =  0.500      CL =  0.0730
      Cm = -0.0036     CD =  0.00854   =>   CDf =  0.00453    CDp =  0.00402
 plradd ia,ip,cpol           10           0  7.63102770E-02

 Point added to stored polar  1
 Point written to save file  n14_Re300k.base.pol                             
 Dump file unspecified or not available
 Calculating wake trajectory ...
 Calculating source influence matrix ...

 Solving BL system ...

 Side 1  free  transition at x/c =  0.8713   73
 Side 2  free  transition at x/c =  0.9002   73

   1   rms: 0.1261E+00   max: 0.3133E+00   D at   77  2
       a =  1.000      CL =  0.1715
      Cm = -0.0113     CD =  0.00854   =>   CDf =  0.00452    CDp =  0.00402

 Side 1  free  transition at x/c =  0.8513   72
 Side 2  free  transition at x/c =  0.9154   73

   2   rms: 0.2429E-01   max: -.1623E+00   D at   73  1
       a =  1.000      CL =  0.1469
      Cm = -0.0062     CD =  0.00874   =>   CDf =  0.00451    CDp =  0.00423

 Side 1  free  transition at x/c =  0.8445   72
 Side 2  free  transition at x/c =  0.9165   73

   3   rms: 0.1537E-02   max: -.1441E-01   D at   72  1
       a =  1.000      CL =  0.1477
      Cm = -0.0063     CD =  0.00875   =>   CDf =  0.00455    CDp =  0.00420

 Side 1  free  transition at x/c =  0.8447   72
 Side 2  free  transition at x/c =  0.9163   73

   4   rms: 0.3333E-04   max: -.1946E-03   D at   83  1
       a =  1.000      CL =  0.1477
      Cm = -0.0063     CD =  0.00875   =>   CDf =  0.00454    CDp =  0.00421
 plradd ia,ip,cpol           11           0  7.63102770E-02

 Point added to stored polar  1
 Point written to save file  n14_Re300k.base.pol                             
 Dump file unspecified or not available
 Calculating wake trajectory ...
 Calculating source influence matrix ...

 Solving BL system ...

 Side 1  free  transition at x/c =  0.8447   72
 Side 2  free  transition at x/c =  0.9163   73

   1   rms: 0.1346E+00   max: 0.4683E+00   D at   76  2
       a =  1.500      CL =  0.2521
      Cm = -0.0151     CD =  0.00924   =>   CDf =  0.00454    CDp =  0.00470

 Side 1  free  transition at x/c =  0.8054   71
 Side 2  free  transition at x/c =  0.9268   72

   2   rms: 0.3314E-01   max: -.3973E+00   D at   72  1
       a =  1.500      CL =  0.2375
      Cm = -0.0120     CD =  0.00925   =>   CDf =  0.00461    CDp =  0.00464

 Side 1  free  transition at x/c =  0.8144   71
 Side 2  free  transition at x/c =  0.9311   73

   3   rms: 0.6317E-02   max: 0.6732E-01   C at   71  1
       a =  1.500      CL =  0.2351
      Cm = -0.0115     CD =  0.00926   =>   CDf =  0.00456    CDp =  0.00470

 Side 1  free  transition at x/c =  0.8118   71
 Side 2  free  transition at x/c =  0.9312   73

   4   rms: 0.2906E-03   max: -.1853E-02   D at   71  1
       a =  1.500      CL =  0.2349
      Cm = -0.0114     CD =  0.00926   =>   CDf =  0.00458    CDp =  0.00469

 Side 1  free  transition at x/c =  0.8118   71
 Side 2  free  transition at x/c =  0.9312   73

   5   rms: 0.3076E-05   max: -.1967E-04   D at   75  2
       a =  1.500      CL =  0.2349
      Cm = -0.0114     CD =  0.00926   =>   CDf =  0.00458    CDp =  0.00469
 plradd ia,ip,cpol           12           0  2.30788533E-02

 Point added to stored polar  1
 Point written to save file  n14_Re300k.base.pol                             
 Dump file unspecified or not available
 Calculating wake trajectory ...
 Calculating source influence matrix ...

 Solving BL system ...

 Side 1  free  transition at x/c =  0.8118   71
 Side 2  free  transition at x/c =  0.9313   73

   1   rms: 0.1339E+00   max: 0.3337E+00   D at   76  2
       a =  2.000      CL =  0.3420
      Cm = -0.0210     CD =  0.00972   =>   CDf =  0.00457    CDp =  0.00516

 Side 1  free  transition at x/c =  0.7408   67
 Side 2  free  transition at x/c =  0.9258   71
 idif Ue xi dudx           1  0.15210287      2.19261646E-03   69.370491    
 Uenew xinew           2  1.82841010E-02  2.63571739E-04

   2   rms: 0.9119E-01   max: -.6514E+00   T at   71  2   RLX: 0.768
       a =  2.000      CL =  0.2932
      Cm = -0.0110     CD =  0.01003   =>   CDf =  0.00485    CDp =  0.00518

 Side 1  free  transition at x/c =  0.7678   68
 Side 2  free  transition at x/c =  0.9480   74

   3   rms: 0.4872E-01   max: 0.3937E+00   D at   75  2
       a =  2.000      CL =  0.2984
      Cm = -0.0121     CD =  0.00946   =>   CDf =  0.00465    CDp =  0.00482

 Side 1  free  transition at x/c =  0.7631   68
 Side 2  free  transition at x/c =  0.9442   73

   4   rms: 0.4552E+00   max: 0.3775E+01   T at   73  2   RLX: 0.211
       a =  2.000      CL =  0.3797
      Cm = -0.0290     CD =  0.00956   =>   CDf =  0.00466    CDp =  0.00490

 Side 1  free  transition at x/c =  0.7356   67
 Side 2  free  transition at x/c =  0.9194   71
 idif Ue xi dudx           1  0.13347775      1.98888779E-03   67.111755    
 Uenew xinew           2  4.01617307E-03  5.98430634E-05

   5   rms: 0.9657E-01   max: -.5200E+00   T at   71  2   RLX: 0.962
       a =  2.000      CL =  0.3153
      Cm = -0.0158     CD =  0.00960   =>   CDf =  0.00481    CDp =  0.00479

 Side 1  free  transition at x/c =  0.7600   68
 Side 2  free  transition at x/c =  0.9413   73

   6   rms: 0.2724E-01   max: 0.2170E+00   D at   75  2
       a =  2.000      CL =  0.3207
      Cm = -0.0168     CD =  0.00955   =>   CDf =  0.00468    CDp =  0.00487

 Side 1  free  transition at x/c =  0.7573   68
 Side 2  free  transition at x/c =  0.9356   73

   7   rms: 0.4250E-02   max: -.2281E-01   D at   76  2
       a =  2.000      CL =  0.3188
      Cm = -0.0164     CD =  0.00957   =>   CDf =  0.00471    CDp =  0.00486

 Side 1  free  transition at x/c =  0.7576   68
 Side 2  free  transition at x/c =  0.9363   73

   8   rms: 0.1564E-03   max: -.1602E-02   D at    4  2
       a =  2.000      CL =  0.3188
      Cm = -0.0164     CD =  0.00957   =>   CDf =  0.00471    CDp =  0.00486

 Side 1  free  transition at x/c =  0.7576   68
 Side 2  free  transition at x/c =  0.9363   73

   9   rms: 0.3610E-05   max: -.4543E-04   D at    4  2
       a =  2.000      CL =  0.3188
      Cm = -0.0164     CD =  0.00957   =>   CDf =  0.00471    CDp =  0.00486
 plradd ia,ip,cpol           13           0  2.30788533E-02

 Point added to stored polar  1
 Point written to save file  n14_Re300k.base.pol                             
 Dump file unspecified or not available
 Calculating wake trajectory ...
 Calculating source influence matrix ...

 Solving BL system ...

 Side 1  free  transition at x/c =  0.7576   68
 Side 2  free  transition at x/c =  0.9363   73

   1   rms: 0.1280E+00   max: 0.8415E+00   C at   68  1   RLX: 0.738
       a =  2.500      CL =  0.3733
      Cm = -0.0185     CD =  0.00976   =>   CDf =  0.00469    CDp =  0.00507

 Side 1  free  transition at x/c =  0.6841   64
 Side 2  free  transition at x/c =  0.9420   72

   2   rms: 0.3114E-01   max: -.2281E+00   D at   70  1
       a =  2.500      CL =  0.3714
      Cm = -0.0150     CD =  0.00984   =>   CDf =  0.00494    CDp =  0.00490

 Side 1  free  transition at x/c =  0.6626   62
 Side 2  free  transition at x/c =  0.9499   73

   3   rms: 0.1759E-01   max: 0.1234E+00   D at   75  2
       a =  2.500      CL =  0.3770
      Cm = -0.0162     CD =  0.00986   =>   CDf =  0.00502    CDp =  0.00485

 Side 1  free  transition at x/c =  0.6601   62
 Side 2  free  transition at x/c =  0.9475   73

   4   rms: 0.1172E-02   max: -.9395E-02   D at   73  2
       a =  2.500      CL =  0.3766
      Cm = -0.0161     CD =  0.00989   =>   CDf =  0.00501    CDp =  0.00487

 Side 1  free  transition at x/c =  0.6605   62
 Side 2  free  transition at x/c =  0.9476   73

   5   rms: 0.8065E-05   max: 0.8739E-04   D at   80  2
       a =  2.500      CL =  0.3766
      Cm = -0.0161     CD =  0.00989   =>   CDf =  0.00501    CDp =  0.00488
 plradd ia,ip,cpol           14           0  1.84492618E-02

 Point added to stored polar  1
 Point written to save file  n14_Re300k.base.pol                             
 Dump file unspecified or not available
 Calculating wake trajectory ...
 Calculating source influence matrix ...

 Solving BL system ...

 Side 1  free  transition at x/c =  0.6605   62
 Side 2  free  transition at x/c =  0.9476   73

   1   rms: 0.1548E+00   max: 0.1974E+01   C at   62  1   RLX: 0.760
       a =  3.000      CL =  0.4342
      Cm = -0.0188     CD =  0.01032   =>   CDf =  0.00498    CDp =  0.00535

 Side 1  free  transition at x/c =  0.5155   54
 Side 2  free  transition at x/c =  0.9526   72

   2   rms: 0.2831E-01   max: -.1768E+00   D at   55  1
       a =  3.000      CL =  0.4403
      Cm = -0.0175     CD =  0.01079   =>   CDf =  0.00570    CDp =  0.00509

 Side 1  free  transition at x/c =  0.4895   52
 Side 2  free  transition at x/c =  0.9573   72

   3   rms: 0.1474E-01   max: -.2029E+00   C at   52  1
       a =  3.000      CL =  0.4326
      Cm = -0.0159     CD =  0.01085   =>   CDf =  0.00578    CDp =  0.00506

 Side 1  free  transition at x/c =  0.5008   53
 Side 2  free  transition at x/c =  0.9595   72

   4   rms: 0.5157E-02   max: -.4469E-01   T at   72  2
       a =  3.000      CL =  0.4290
      Cm = -0.0151     CD =  0.01080   =>   CDf =  0.00571    CDp =  0.00509

 Side 1  free  transition at x/c =  0.5033   53
 Side 2  free  transition at x/c =  0.9608   73

   5   rms: 0.8939E-02   max: 0.6113E-01   D at   75  2
       a =  3.000      CL =  0.4309
      Cm = -0.0155     CD =  0.01079   =>   CDf =  0.00571    CDp =  0.00509

 Side 1  free  transition at x/c =  0.5015   53
 Side 2  free  transition at x/c =  0.9601   73

   6   rms: 0.2578E-03   max: -.2598E-02   D at   73  2
       a =  3.000      CL =  0.4309
      Cm = -0.0155     CD =  0.01081   =>   CDf =  0.00571    CDp =  0.00509

 Side 1  free  transition at x/c =  0.5016   53
 Side 2  free  transition at x/c =  0.9601   73

   7   rms: 0.2360E-05   max: 0.2086E-04   D at   79  2
       a =  3.000      CL =  0.4309
      Cm = -0.0155     CD =  0.01081   =>   CDf =  0.00571    CDp =  0.00509
 plradd ia,ip,cpol           15           0  1.84492618E-02

 Point added to stored polar  1
 Point written to save file  n14_Re300k.base.pol                             
 Dump file unspecified or not available
 Calculating wake trajectory ...
 Calculating source influence matrix ...

 Solving BL system ...

 Side 1  free  transition at x/c =  0.5016   53
 Side 2  free  transition at x/c =  0.9601   73

   1   rms: 0.2221E+00   max: 0.3629E+01   C at   53  1   RLX: 0.413
       a =  3.500      CL =  0.4635
      Cm = -0.0176     CD =  0.01123   =>   CDf =  0.00571    CDp =  0.00551

 Side 1  free  transition at x/c =  0.4269   49
 Side 2  free  transition at x/c =  0.9615   73

   2   rms: 0.8116E-01   max: 0.1007E+01   C at   49  1
       a =  3.500      CL =  0.5009
      Cm = -0.0190     CD =  0.01186   =>   CDf =  0.00604    CDp =  0.00582

 Side 1  free  transition at x/c =  0.3722   46
 Side 2  free  transition at x/c =  0.9650   72

   3   rms: 0.2562E-01   max: -.2310E+00   C at   46  1
       a =  3.500      CL =  0.4973
      Cm = -0.0182     CD =  0.01170   =>   CDf =  0.00634    CDp =  0.00536

 Side 1  free  transition at x/c =  0.3787   46
 Side 2  free  transition at x/c =  0.9676   72

   4   rms: 0.7823E-02   max: -.1184E+00   C at   46  1
       a =  3.500      CL =  0.4969
      Cm = -0.0181     CD =  0.01171   =>   CDf =  0.00632    CDp =  0.00540

 Side 1  free  transition at x/c =  0.3781   46
 Side 2  free  transition at x/c =  0.9676   72

   5   rms: 0.7683E-02   max: -.1385E+00   C at   46  1
       a =  3.500      CL =  0.4969
      Cm = -0.0181     CD =  0.01171   =>   CDf =  0.00632    CDp =  0.00539

 Side 1  free  transition at x/c =  0.3782   46
 Side 2  free  transition at x/c =  0.9676   72

   6   rms: 0.7563E-02   max: -.1366E+00   C at   46  1
       a =  3.500      CL =  0.4969
      Cm = -0.0181     CD =  0.01171   =>   CDf =  0.00632    CDp =  0.00539

 Side 1  free  transition at x/c =  0.3782   46
 Side 2  free  transition at x/c =  0.9676   72

   7   rms: 0.7584E-02   max: -.1370E+00   C at   46  1
       a =  3.500      CL =  0.4969
      Cm = -0.0181     CD =  0.01171   =>   CDf =  0.00632    CDp =  0.00539

 Side 1  free  transition at x/c =  0.3782   46
 Side 2  free  transition at x/c =  0.9676   72

   8   rms: 0.7580E-02   max: -.1369E+00   C at   46  1
       a =  3.500      CL =  0.4969
      Cm = -0.0181     CD =  0.01171   =>   CDf =  0.00632    CDp =  0.00539

 Side 1  free  transition at x/c =  0.3782   46
 Side 2  free  transition at x/c =  0.9676   72

   9   rms: 0.7581E-02   max: -.1369E+00   C at   46  1
       a =  3.500      CL =  0.4969
      Cm = -0.0181     CD =  0.01171   =>   CDf =  0.00632    CDp =  0.00539

 Side 1  free  transition at x/c =  0.3782   46
 Side 2  free  transition at x/c =  0.9676   72

  10   rms: 0.7581E-02   max: -.1369E+00   C at   46  1
       a =  3.500      CL =  0.4969
      Cm = -0.0181     CD =  0.01171   =>   CDf =  0.00632    CDp =  0.00539

 Side 1  free  transition at x/c =  0.3782   46
 Side 2  free  transition at x/c =  0.9676   72

  11   rms: 0.7581E-02   max: -.1369E+00   C at   46  1
       a =  3.500      CL =  0.4969
      Cm = -0.0181     CD =  0.01171   =>   CDf =  0.00632    CDp =  0.00539

 Side 1  free  transition at x/c =  0.3782   46
 Side 2  free  transition at x/c =  0.9676   72

  12   rms: 0.7581E-02   max: -.1369E+00   C at   46  1
       a =  3.500      CL =  0.4969
      Cm = -0.0181     CD =  0.01171   =>   CDf =  0.00632    CDp =  0.00539

 Side 1  free  transition at x/c =  0.3782   46
 Side 2  free  transition at x/c =  0.9676   72

  13   rms: 0.7581E-02   max: -.1369E+00   C at   46  1
       a =  3.500      CL =  0.4969
      Cm = -0.0181     CD =  0.01171   =>   CDf =  0.00632    CDp =  0.00539

 Side 1  free  transition at x/c =  0.3782   46
 Side 2  free  transition at x/c =  0.9676   72

  14   rms: 0.7581E-02   max: -.1369E+00   C at   46  1
       a =  3.500      CL =  0.4969
      Cm = -0.0181     CD =  0.01171   =>   CDf =  0.00632    CDp =  0.00539

 Side 1  free  transition at x/c =  0.3782   46
 Side 2  free  transition at x/c =  0.9676   72

  15   rms: 0.7581E-02   max: -.1369E+00   C at   46  1
       a =  3.500      CL =  0.4969
      Cm = -0.0181     CD =  0.01171   =>   CDf =  0.00632    CDp =  0.00539

 Side 1  free  transition at x/c =  0.3782   46
 Side 2  free  transition at x/c =  0.9676   72

  16   rms: 0.7581E-02   max: -.1369E+00   C at   46  1
       a =  3.500      CL =  0.4969
      Cm = -0.0181     CD =  0.01171   =>   CDf =  0.00632    CDp =  0.00539

 Side 1  free  transition at x/c =  0.3782   46
 Side 2  free  transition at x/c =  0.9676   72

  17   rms: 0.7581E-02   max: -.1369E+00   C at   46  1
       a =  3.500      CL =  0.4969
      Cm = -0.0181     CD =  0.01171   =>   CDf =  0.00632    CDp =  0.00539

 Side 1  free  transition at x/c =  0.3782   46
 Side 2  free  transition at x/c =  0.9676   72

  18   rms: 0.7581E-02   max: -.1369E+00   C at   46  1
       a =  3.500      CL =  0.4969
      Cm = -0.0181     CD =  0.01171   =>   CDf =  0.00632    CDp =  0.00539

 Side 1  free  transition at x/c =  0.3782   46
 Side 2  free  transition at x/c =  0.9676   72

  19   rms: 0.7581E-02   max: -.1369E+00   C at   46  1
       a =  3.500      CL =  0.4969
      Cm = -0.0181     CD =  0.01171   =>   CDf =  0.00632    CDp =  0.00539

 Side 1  free  transition at x/c =  0.3782   46
 Side 2  free  transition at x/c =  0.9676   72

  20   rms: 0.7581E-02   max: -.1369E+00   C at   46  1
       a =  3.500      CL =  0.4969
      Cm = -0.0181     CD =  0.01171   =>   CDf =  0.00632    CDp =  0.00539

 Side 1  free  transition at x/c =  0.3782   46
 Side 2  free  transition at x/c =  0.9676   72

  21   rms: 0.7581E-02   max: -.1369E+00   C at   46  1
       a =  3.500      CL =  0.4969
      Cm = -0.0181     CD =  0.01171   =>   CDf =  0.00632    CDp =  0.00539

 Side 1  free  transition at x/c =  0.3782   46
 Side 2  free  transition at x/c =  0.9676   72

  22   rms: 0.7581E-02   max: -.1369E+00   C at   46  1
       a =  3.500      CL =  0.4969
      Cm = -0.0181     CD =  0.01171   =>   CDf =  0.00632    CDp =  0.00539

 Side 1  free  transition at x/c =  0.3782   46
 Side 2  free  transition at x/c =  0.9676   72

  23   rms: 0.7581E-02   max: -.1369E+00   C at   46  1
       a =  3.500      CL =  0.4969
      Cm = -0.0181     CD =  0.01171   =>   CDf =  0.00632    CDp =  0.00539

 Side 1  free  transition at x/c =  0.3782   46
 Side 2  free  transition at x/c =  0.9676   72

  24   rms: 0.7581E-02   max: -.1369E+00   C at   46  1
       a =  3.500      CL =  0.4969
      Cm = -0.0181     CD =  0.01171   =>   CDf =  0.00632    CDp =  0.00539

 Side 1  free  transition at x/c =  0.3782   46
 Side 2  free  transition at x/c =  0.9676   72

  25   rms: 0.7581E-02   max: -.1369E+00   C at   46  1
       a =  3.500      CL =  0.4969
      Cm = -0.0181     CD =  0.01171   =>   CDf =  0.00632    CDp =  0.00539

 Side 1  free  transition at x/c =  0.3782   46
 Side 2  free  transition at x/c =  0.9676   72

  26   rms: 0.7581E-02   max: -.1369E+00   C at   46  1
       a =  3.500      CL =  0.4969
      Cm = -0.0181     CD =  0.01171   =>   CDf =  0.00632    CDp =  0.00539

 Side 1  free  transition at x/c =  0.3782   46
 Side 2  free  transition at x/c =  0.9676   72

  27   rms: 0.7581E-02   max: -.1369E+00   C at   46  1
       a =  3.500      CL =  0.4969
      Cm = -0.0181     CD =  0.01171   =>   CDf =  0.00632    CDp =  0.00539

 Side 1  free  transition at x/c =  0.3782   46
 Side 2  free  transition at x/c =  0.9676   72

  28   rms: 0.7581E-02   max: -.1369E+00   C at   46  1
       a =  3.500      CL =  0.4969
      Cm = -0.0181     CD =  0.01171   =>   CDf =  0.00632    CDp =  0.00539

 Side 1  free  transition at x/c =  0.3782   46
 Side 2  free  transition at x/c =  0.9676   72

  29   rms: 0.7581E-02   max: -.1369E+00   C at   46  1
       a =  3.500      CL =  0.4969
      Cm = -0.0181     CD =  0.01171   =>   CDf =  0.00632    CDp =  0.00539

 Side 1  free  transition at x/c =  0.3782   46
 Side 2  free  transition at x/c =  0.9676   72

  30   rms: 0.7581E-02   max: -.1369E+00   C at   46  1
       a =  3.500      CL =  0.4969
      Cm = -0.0181     CD =  0.01171   =>   CDf =  0.00632    CDp =  0.00539

 Side 1  free  transition at x/c =  0.3782   46
 Side 2  free  transition at x/c =  0.9676   72

  31   rms: 0.7581E-02   max: -.1369E+00   C at   46  1
       a =  3.500      CL =  0.4969
      Cm = -0.0181     CD =  0.01171   =>   CDf =  0.00632    CDp =  0.00539

 Side 1  free  transition at x/c =  0.3782   46
 Side 2  free  transition at x/c =  0.9676   72

  32   rms: 0.7581E-02   max: -.1369E+00   C at   46  1
       a =  3.500      CL =  0.4969
      Cm = -0.0181     CD =  0.01171   =>   CDf =  0.00632    CDp =  0.00539

 Side 1  free  transition at x/c =  0.3782   46
 Side 2  free  transition at x/c =  0.9676   72

  33   rms: 0.7581E-02   max: -.1369E+00   C at   46  1
       a =  3.500      CL =  0.4969
      Cm = -0.0181     CD =  0.01171   =>   CDf =  0.00632    CDp =  0.00539

 Side 1  free  transition at x/c =  0.3782   46
 Side 2  free  transition at x/c =  0.9676   72

  34   rms: 0.7581E-02   max: -.1369E+00   C at   46  1
       a =  3.500      CL =  0.4969
      Cm = -0.0181     CD =  0.01171   =>   CDf =  0.00632    CDp =  0.00539

 Side 1  free  transition at x/c =  0.3782   46
 Side 2  free  transition at x/c =  0.9676   72

  35   rms: 0.7581E-02   max: -.1369E+00   C at   46  1
       a =  3.500      CL =  0.4969
      Cm = -0.0181     CD =  0.01171   =>   CDf =  0.00632    CDp =  0.00539

 Side 1  free  transition at x/c =  0.3782   46
 Side 2  free  transition at x/c =  0.9676   72

  36   rms: 0.7581E-02   max: -.1369E+00   C at   46  1
       a =  3.500      CL =  0.4969
      Cm = -0.0181     CD =  0.01171   =>   CDf =  0.00632    CDp =  0.00539

 Side 1  free  transition at x/c =  0.3782   46
 Side 2  free  transition at x/c =  0.9676   72

  37   rms: 0.7581E-02   max: -.1369E+00   C at   46  1
       a =  3.500      CL =  0.4969
      Cm = -0.0181     CD =  0.01171   =>   CDf =  0.00632    CDp =  0.00539

 Side 1  free  transition at x/c =  0.3782   46
 Side 2  free  transition at x/c =  0.9676   72

  38   rms: 0.7581E-02   max: -.1369E+00   C at   46  1
       a =  3.500      CL =  0.4969
      Cm = -0.0181     CD =  0.01171   =>   CDf =  0.00632    CDp =  0.00539

 Side 1  free  transition at x/c =  0.3782   46
 Side 2  free  transition at x/c =  0.9676   72

  39   rms: 0.7581E-02   max: -.1369E+00   C at   46  1
       a =  3.500      CL =  0.4969
      Cm = -0.0181     CD =  0.01171   =>   CDf =  0.00632    CDp =  0.00539

 Side 1  free  transition at x/c =  0.3782   46
 Side 2  free  transition at x/c =  0.9676   72

  40   rms: 0.7581E-02   max: -.1369E+00   C at   46  1
       a =  3.500      CL =  0.4969
      Cm = -0.0181     CD =  0.01171   =>   CDf =  0.00632    CDp =  0.00539

 Side 1  free  transition at x/c =  0.3782   46
 Side 2  free  transition at x/c =  0.9676   72

  41   rms: 0.7581E-02   max: -.1369E+00   C at   46  1
       a =  3.500      CL =  0.4969
      Cm = -0.0181     CD =  0.01171   =>   CDf =  0.00632    CDp =  0.00539

 Side 1  free  transition at x/c =  0.3782   46
 Side 2  free  transition at x/c =  0.9676   72

  42   rms: 0.7581E-02   max: -.1369E+00   C at   46  1
       a =  3.500      CL =  0.4969
      Cm = -0.0181     CD =  0.01171   =>   CDf =  0.00632    CDp =  0.00539

 Side 1  free  transition at x/c =  0.3782   46
 Side 2  free  transition at x/c =  0.9676   72

  43   rms: 0.7581E-02   max: -.1369E+00   C at   46  1
       a =  3.500      CL =  0.4969
      Cm = -0.0181     CD =  0.01171   =>   CDf =  0.00632    CDp =  0.00539

 Side 1  free  transition at x/c =  0.3782   46
 Side 2  free  transition at x/c =  0.9676   72

  44   rms: 0.7581E-02   max: -.1369E+00   C at   46  1
       a =  3.500      CL =  0.4969
      Cm = -0.0181     CD =  0.01171   =>   CDf =  0.00632    CDp =  0.00539

 Side 1  free  transition at x/c =  0.3782   46
 Side 2  free  transition at x/c =  0.9676   72

  45   rms: 0.7581E-02   max: -.1369E+00   C at   46  1
       a =  3.500      CL =  0.4969
      Cm = -0.0181     CD =  0.01171   =>   CDf =  0.00632    CDp =  0.00539

 Side 1  free  transition at x/c =  0.3782   46
 Side 2  free  transition at x/c =  0.9676   72

  46   rms: 0.7581E-02   max: -.1369E+00   C at   46  1
       a =  3.500      CL =  0.4969
      Cm = -0.0181     CD =  0.01171   =>   CDf =  0.00632    CDp =  0.00539

 Side 1  free  transition at x/c =  0.3782   46
 Side 2  free  transition at x/c =  0.9676   72

  47   rms: 0.7581E-02   max: -.1369E+00   C at   46  1
       a =  3.500      CL =  0.4969
      Cm = -0.0181     CD =  0.01171   =>   CDf =  0.00632    CDp =  0.00539

 Side 1  free  transition at x/c =  0.3782   46
 Side 2  free  transition at x/c =  0.9676   72

  48   rms: 0.7581E-02   max: -.1369E+00   C at   46  1
       a =  3.500      CL =  0.4969
      Cm = -0.0181     CD =  0.01171   =>   CDf =  0.00632    CDp =  0.00539

 Side 1  free  transition at x/c =  0.3782   46
 Side 2  free  transition at x/c =  0.9676   72

  49   rms: 0.7581E-02   max: -.1369E+00   C at   46  1
       a =  3.500      CL =  0.4969
      Cm = -0.0181     CD =  0.01171   =>   CDf =  0.00632    CDp =  0.00539

 Side 1  free  transition at x/c =  0.3782   46
 Side 2  free  transition at x/c =  0.9676   72

  50   rms: 0.7581E-02   max: -.1369E+00   C at   46  1
       a =  3.500      CL =  0.4969
      Cm = -0.0181     CD =  0.01171   =>   CDf =  0.00632    CDp =  0.00539

 Side 1  free  transition at x/c =  0.3782   46
 Side 2  free  transition at x/c =  0.9676   72

  51   rms: 0.7581E-02   max: -.1369E+00   C at   46  1
       a =  3.500      CL =  0.4969
      Cm = -0.0181     CD =  0.01171   =>   CDf =  0.00632    CDp =  0.00539

 Side 1  free  transition at x/c =  0.3782   46
 Side 2  free  transition at x/c =  0.9676   72

  52   rms: 0.7581E-02   max: -.1369E+00   C at   46  1
       a =  3.500      CL =  0.4969
      Cm = -0.0181     CD =  0.01171   =>   CDf =  0.00632    CDp =  0.00539

 Side 1  free  transition at x/c =  0.3782   46
 Side 2  free  transition at x/c =  0.9676   72

  53   rms: 0.7581E-02   max: -.1369E+00   C at   46  1
       a =  3.500      CL =  0.4969
      Cm = -0.0181     CD =  0.01171   =>   CDf =  0.00632    CDp =  0.00539

 Side 1  free  transition at x/c =  0.3782   46
 Side 2  free  transition at x/c =  0.9676   72

  54   rms: 0.7581E-02   max: -.1369E+00   C at   46  1
       a =  3.500      CL =  0.4969
      Cm = -0.0181     CD =  0.01171   =>   CDf =  0.00632    CDp =  0.00539

 Side 1  free  transition at x/c =  0.3782   46
 Side 2  free  transition at x/c =  0.9676   72

  55   rms: 0.7581E-02   max: -.1369E+00   C at   46  1
       a =  3.500      CL =  0.4969
      Cm = -0.0181     CD =  0.01171   =>   CDf =  0.00632    CDp =  0.00539

 Side 1  free  transition at x/c =  0.3782   46
 Side 2  free  transition at x/c =  0.9676   72

  56   rms: 0.7581E-02   max: -.1369E+00   C at   46  1
       a =  3.500      CL =  0.4969
      Cm = -0.0181     CD =  0.01171   =>   CDf =  0.00632    CDp =  0.00539

 Side 1  free  transition at x/c =  0.3782   46
 Side 2  free  transition at x/c =  0.9676   72

  57   rms: 0.7581E-02   max: -.1369E+00   C at   46  1
       a =  3.500      CL =  0.4969
      Cm = -0.0181     CD =  0.01171   =>   CDf =  0.00632    CDp =  0.00539

 Side 1  free  transition at x/c =  0.3782   46
 Side 2  free  transition at x/c =  0.9676   72

  58   rms: 0.7581E-02   max: -.1369E+00   C at   46  1
       a =  3.500      CL =  0.4969
      Cm = -0.0181     CD =  0.01171   =>   CDf =  0.00632    CDp =  0.00539

 Side 1  free  transition at x/c =  0.3782   46
 Side 2  free  transition at x/c =  0.9676   72

  59   rms: 0.7581E-02   max: -.1369E+00   C at   46  1
       a =  3.500      CL =  0.4969
      Cm = -0.0181     CD =  0.01171   =>   CDf =  0.00632    CDp =  0.00539

 Side 1  free  transition at x/c =  0.3782   46
 Side 2  free  transition at x/c =  0.9676   72

  60   rms: 0.7581E-02   max: -.1369E+00   C at   46  1
       a =  3.500      CL =  0.4969
      Cm = -0.0181     CD =  0.01171   =>   CDf =  0.00632    CDp =  0.00539

 Side 1  free  transition at x/c =  0.3782   46
 Side 2  free  transition at x/c =  0.9676   72

  61   rms: 0.7581E-02   max: -.1369E+00   C at   46  1
       a =  3.500      CL =  0.4969
      Cm = -0.0181     CD =  0.01171   =>   CDf =  0.00632    CDp =  0.00539

 Side 1  free  transition at x/c =  0.3782   46
 Side 2  free  transition at x/c =  0.9676   72

  62   rms: 0.7581E-02   max: -.1369E+00   C at   46  1
       a =  3.500      CL =  0.4969
      Cm = -0.0181     CD =  0.01171   =>   CDf =  0.00632    CDp =  0.00539

 Side 1  free  transition at x/c =  0.3782   46
 Side 2  free  transition at x/c =  0.9676   72

  63   rms: 0.7581E-02   max: -.1369E+00   C at   46  1
       a =  3.500      CL =  0.4969
      Cm = -0.0181     CD =  0.01171   =>   CDf =  0.00632    CDp =  0.00539

 Side 1  free  transition at x/c =  0.3782   46
 Side 2  free  transition at x/c =  0.9676   72

  64   rms: 0.7581E-02   max: -.1369E+00   C at   46  1
       a =  3.500      CL =  0.4969
      Cm = -0.0181     CD =  0.01171   =>   CDf =  0.00632    CDp =  0.00539

 Side 1  free  transition at x/c =  0.3782   46
 Side 2  free  transition at x/c =  0.9676   72

  65   rms: 0.7581E-02   max: -.1369E+00   C at   46  1
       a =  3.500      CL =  0.4969
      Cm = -0.0181     CD =  0.01171   =>   CDf =  0.00632    CDp =  0.00539

 Side 1  free  transition at x/c =  0.3782   46
 Side 2  free  transition at x/c =  0.9676   72

  66   rms: 0.7581E-02   max: -.1369E+00   C at   46  1
       a =  3.500      CL =  0.4969
      Cm = -0.0181     CD =  0.01171   =>   CDf =  0.00632    CDp =  0.00539

 Side 1  free  transition at x/c =  0.3782   46
 Side 2  free  transition at x/c =  0.9676   72

  67   rms: 0.7581E-02   max: -.1369E+00   C at   46  1
       a =  3.500      CL =  0.4969
      Cm = -0.0181     CD =  0.01171   =>   CDf =  0.00632    CDp =  0.00539

 Side 1  free  transition at x/c =  0.3782   46
 Side 2  free  transition at x/c =  0.9676   72

  68   rms: 0.7581E-02   max: -.1369E+00   C at   46  1
       a =  3.500      CL =  0.4969
      Cm = -0.0181     CD =  0.01171   =>   CDf =  0.00632    CDp =  0.00539

 Side 1  free  transition at x/c =  0.3782   46
 Side 2  free  transition at x/c =  0.9676   72

  69   rms: 0.7581E-02   max: -.1369E+00   C at   46  1
       a =  3.500      CL =  0.4969
      Cm = -0.0181     CD =  0.01171   =>   CDf =  0.00632    CDp =  0.00539

 Side 1  free  transition at x/c =  0.3782   46
 Side 2  free  transition at x/c =  0.9676   72

  70   rms: 0.7581E-02   max: -.1369E+00   C at   46  1
       a =  3.500      CL =  0.4969
      Cm = -0.0181     CD =  0.01171   =>   CDf =  0.00632    CDp =  0.00539

 Side 1  free  transition at x/c =  0.3782   46
 Side 2  free  transition at x/c =  0.9676   72

  71   rms: 0.7581E-02   max: -.1369E+00   C at   46  1
       a =  3.500      CL =  0.4969
      Cm = -0.0181     CD =  0.01171   =>   CDf =  0.00632    CDp =  0.00539

 Side 1  free  transition at x/c =  0.3782   46
 Side 2  free  transition at x/c =  0.9676   72

  72   rms: 0.7581E-02   max: -.1369E+00   C at   46  1
       a =  3.500      CL =  0.4969
      Cm = -0.0181     CD =  0.01171   =>   CDf =  0.00632    CDp =  0.00539

 Side 1  free  transition at x/c =  0.3782   46
 Side 2  free  transition at x/c =  0.9676   72

  73   rms: 0.7581E-02   max: -.1369E+00   C at   46  1
       a =  3.500      CL =  0.4969
      Cm = -0.0181     CD =  0.01171   =>   CDf =  0.00632    CDp =  0.00539

 Side 1  free  transition at x/c =  0.3782   46
 Side 2  free  transition at x/c =  0.9676   72

  74   rms: 0.7581E-02   max: -.1369E+00   C at   46  1
       a =  3.500      CL =  0.4969
      Cm = -0.0181     CD =  0.01171   =>   CDf =  0.00632    CDp =  0.00539

 Side 1  free  transition at x/c =  0.3782   46
 Side 2  free  transition at x/c =  0.9676   72

  75   rms: 0.7581E-02   max: -.1369E+00   C at   46  1
       a =  3.500      CL =  0.4969
      Cm = -0.0181     CD =  0.01171   =>   CDf =  0.00632    CDp =  0.00539

 Side 1  free  transition at x/c =  0.3782   46
 Side 2  free  transition at x/c =  0.9676   72

  76   rms: 0.7581E-02   max: -.1369E+00   C at   46  1
       a =  3.500      CL =  0.4969
      Cm = -0.0181     CD =  0.01171   =>   CDf =  0.00632    CDp =  0.00539

 Side 1  free  transition at x/c =  0.3782   46
 Side 2  free  transition at x/c =  0.9676   72

  77   rms: 0.7581E-02   max: -.1369E+00   C at   46  1
       a =  3.500      CL =  0.4969
      Cm = -0.0181     CD =  0.01171   =>   CDf =  0.00632    CDp =  0.00539

 Side 1  free  transition at x/c =  0.3782   46
 Side 2  free  transition at x/c =  0.9676   72

  78   rms: 0.7581E-02   max: -.1369E+00   C at   46  1
       a =  3.500      CL =  0.4969
      Cm = -0.0181     CD =  0.01171   =>   CDf =  0.00632    CDp =  0.00539

 Side 1  free  transition at x/c =  0.3782   46
 Side 2  free  transition at x/c =  0.9676   72

  79   rms: 0.7581E-02   max: -.1369E+00   C at   46  1
       a =  3.500      CL =  0.4969
      Cm = -0.0181     CD =  0.01171   =>   CDf =  0.00632    CDp =  0.00539

 Side 1  free  transition at x/c =  0.3782   46
 Side 2  free  transition at x/c =  0.9676   72

  80   rms: 0.7581E-02   max: -.1369E+00   C at   46  1
       a =  3.500      CL =  0.4969
      Cm = -0.0181     CD =  0.01171   =>   CDf =  0.00632    CDp =  0.00539

 Side 1  free  transition at x/c =  0.3782   46
 Side 2  free  transition at x/c =  0.9676   72

  81   rms: 0.7581E-02   max: -.1369E+00   C at   46  1
       a =  3.500      CL =  0.4969
      Cm = -0.0181     CD =  0.01171   =>   CDf =  0.00632    CDp =  0.00539

 Side 1  free  transition at x/c =  0.3782   46
 Side 2  free  transition at x/c =  0.9676   72

  82   rms: 0.7581E-02   max: -.1369E+00   C at   46  1
       a =  3.500      CL =  0.4969
      Cm = -0.0181     CD =  0.01171   =>   CDf =  0.00632    CDp =  0.00539

 Side 1  free  transition at x/c =  0.3782   46
 Side 2  free  transition at x/c =  0.9676   72

  83   rms: 0.7581E-02   max: -.1369E+00   C at   46  1
       a =  3.500      CL =  0.4969
      Cm = -0.0181     CD =  0.01171   =>   CDf =  0.00632    CDp =  0.00539

 Side 1  free  transition at x/c =  0.3782   46
 Side 2  free  transition at x/c =  0.9676   72

  84   rms: 0.7581E-02   max: -.1369E+00   C at   46  1
       a =  3.500      CL =  0.4969
      Cm = -0.0181     CD =  0.01171   =>   CDf =  0.00632    CDp =  0.00539

 Side 1  free  transition at x/c =  0.3782   46
 Side 2  free  transition at x/c =  0.9676   72

  85   rms: 0.7581E-02   max: -.1369E+00   C at   46  1
       a =  3.500      CL =  0.4969
      Cm = -0.0181     CD =  0.01171   =>   CDf =  0.00632    CDp =  0.00539

 Side 1  free  transition at x/c =  0.3782   46
 Side 2  free  transition at x/c =  0.9676   72

  86   rms: 0.7581E-02   max: -.1369E+00   C at   46  1
       a =  3.500      CL =  0.4969
      Cm = -0.0181     CD =  0.01171   =>   CDf =  0.00632    CDp =  0.00539

 Side 1  free  transition at x/c =  0.3782   46
 Side 2  free  transition at x/c =  0.9676   72

  87   rms: 0.7581E-02   max: -.1369E+00   C at   46  1
       a =  3.500      CL =  0.4969
      Cm = -0.0181     CD =  0.01171   =>   CDf =  0.00632    CDp =  0.00539

 Side 1  free  transition at x/c =  0.3782   46
 Side 2  free  transition at x/c =  0.9676   72

  88   rms: 0.7581E-02   max: -.1369E+00   C at   46  1
       a =  3.500      CL =  0.4969
      Cm = -0.0181     CD =  0.01171   =>   CDf =  0.00632    CDp =  0.00539

 Side 1  free  transition at x/c =  0.3782   46
 Side 2  free  transition at x/c =  0.9676   72

  89   rms: 0.7581E-02   max: -.1369E+00   C at   46  1
       a =  3.500      CL =  0.4969
      Cm = -0.0181     CD =  0.01171   =>   CDf =  0.00632    CDp =  0.00539

 Side 1  free  transition at x/c =  0.3782   46
 Side 2  free  transition at x/c =  0.9676   72

  90   rms: 0.7581E-02   max: -.1369E+00   C at   46  1
       a =  3.500      CL =  0.4969
      Cm = -0.0181     CD =  0.01171   =>   CDf =  0.00632    CDp =  0.00539

 Side 1  free  transition at x/c =  0.3782   46
 Side 2  free  transition at x/c =  0.9676   72

  91   rms: 0.7580E-02   max: -.1369E+00   C at   46  1
       a =  3.500      CL =  0.4969
      Cm = -0.0181     CD =  0.01171   =>   CDf =  0.00632    CDp =  0.00539

 Side 1  free  transition at x/c =  0.3782   46
 Side 2  free  transition at x/c =  0.9676   72

  92   rms: 0.7581E-02   max: -.1369E+00   C at   46  1
       a =  3.500      CL =  0.4969
      Cm = -0.0181     CD =  0.01171   =>   CDf =  0.00632    CDp =  0.00539

 Side 1  free  transition at x/c =  0.3782   46
 Side 2  free  transition at x/c =  0.9676   72

  93   rms: 0.7581E-02   max: -.1369E+00   C at   46  1
       a =  3.500      CL =  0.4969
      Cm = -0.0181     CD =  0.01171   =>   CDf =  0.00632    CDp =  0.00539

 Side 1  free  transition at x/c =  0.3782   46
 Side 2  free  transition at x/c =  0.9676   72

  94   rms: 0.7581E-02   max: -.1369E+00   C at   46  1
       a =  3.500      CL =  0.4969
      Cm = -0.0181     CD =  0.01171   =>   CDf =  0.00632    CDp =  0.00539

 Side 1  free  transition at x/c =  0.3782   46
 Side 2  free  transition at x/c =  0.9676   72

  95   rms: 0.7581E-02   max: -.1369E+00   C at   46  1
       a =  3.500      CL =  0.4969
      Cm = -0.0181     CD =  0.01171   =>   CDf =  0.00632    CDp =  0.00539

 Side 1  free  transition at x/c =  0.3782   46
 Side 2  free  transition at x/c =  0.9676   72

  96   rms: 0.7581E-02   max: -.1369E+00   C at   46  1
       a =  3.500      CL =  0.4969
      Cm = -0.0181     CD =  0.01171   =>   CDf =  0.00632    CDp =  0.00539

 Side 1  free  transition at x/c =  0.3782   46
 Side 2  free  transition at x/c =  0.9676   72

  97   rms: 0.7580E-02   max: -.1369E+00   C at   46  1
       a =  3.500      CL =  0.4969
      Cm = -0.0181     CD =  0.01171   =>   CDf =  0.00632    CDp =  0.00539

 Side 1  free  transition at x/c =  0.3782   46
 Side 2  free  transition at x/c =  0.9676   72

  98   rms: 0.7581E-02   max: -.1369E+00   C at   46  1
       a =  3.500      CL =  0.4969
      Cm = -0.0181     CD =  0.01171   =>   CDf =  0.00632    CDp =  0.00539

 Side 1  free  transition at x/c =  0.3782   46
 Side 2  free  transition at x/c =  0.9676   72

  99   rms: 0.7581E-02   max: -.1369E+00   C at   46  1
       a =  3.500      CL =  0.4969
      Cm = -0.0181     CD =  0.01171   =>   CDf =  0.00632    CDp =  0.00539

 Side 1  free  transition at x/c =  0.3782   46
 Side 2  free  transition at x/c =  0.9676   72

 100   rms: 0.7581E-02   max: -.1369E+00   C at   46  1
       a =  3.500      CL =  0.4969
      Cm = -0.0181     CD =  0.01171   =>   CDf =  0.00632    CDp =  0.00539

 Side 1  free  transition at x/c =  0.3782   46
 Side 2  free  transition at x/c =  0.9676   72

 101   rms: 0.7581E-02   max: -.1369E+00   C at   46  1
       a =  3.500      CL =  0.4969
      Cm = -0.0181     CD =  0.01171   =>   CDf =  0.00632    CDp =  0.00539

[...]
 x:  0.10663  0.11854  0.11854  N:  8.874  9.000  9.031  Nx:  12.985   dN: 0.305E-01
 TRCHEK2: N2 convergence failed.
 x:  0.10663  0.11854  0.11854  N:  8.874  9.000  9.028  Nx:  12.800   dN: 0.284E-01
 TRCHEK2: N2 convergence failed.
 x:  0.10663  0.11821  0.11854  N:  8.874  9.000  9.010  Nx:  12.864   dN: 0.243E-01
 TRCHEK2: N2 convergence failed.
 x:  0.10663  0.11762  0.11854  N:  8.874  9.000  9.008  Nx:  13.873   dN:-0.273E-02
 TRCHEK2: N2 convergence failed.
 x:  0.10663  0.11755  0.11854  N:  8.874  9.000  9.009  Nx:  13.946   dN:-0.234E-02
 TRCHEK2: N2 convergence failed.
 x:  0.10663  0.11769  0.11854  N:  8.874  9.000  9.017  Nx:  13.025   dN: 0.200E-01
 TRCHEK2: N2 convergence failed.
 x:  0.10663  0.11721  0.11854  N:  8.874  9.000  9.009  Nx:  38.515   dN:-0.716E-02
 TRCHEK2: N2 convergence failed.
 x:  0.10663  0.11737  0.11854  N:  8.874  9.000  9.009  Nx:  29.295   dN:-0.471E-02
 TRCHEK2: N2 convergence failed.
 x:  0.10663  0.11777  0.11854  N:  8.874  9.000  9.016  Nx:  13.059   dN: 0.213E-01
 TRCHEK2: N2 convergence failed.
 x:  0.10663  0.11728  0.11854  N:  8.874  9.000  9.008  Nx:  41.123   dN:-0.705E-02
 TRCHEK2: N2 convergence failed.
 x:  0.10663  0.11787  0.11854  N:  8.874  9.000  9.015  Nx:  13.062   dN: 0.226E-01
 TRCHEK2: N2 convergence failed.
 x:  0.10663  0.11727  0.11854  N:  8.874  9.000  9.008  Nx:  40.819   dN:-0.704E-02
 TRCHEK2: N2 convergence failed.
 x:  0.10663  0.11786  0.11854  N:  8.874  9.000  9.015  Nx:  13.058   dN: 0.225E-01
 TRCHEK2: N2 convergence failed.
 x:  0.10663  0.11728  0.11854  N:  8.874  9.000  9.008  Nx:  41.264   dN:-0.703E-02
 MRCHDU: Convergence failed at  31  side 1    Res =  0.4642E+03
 MRCHDU: Convergence failed at  32  side 1    Res =  0.1196E+02
 MRCHDU: Convergence failed at  33  side 1    Res =  0.2522E+02
 MRCHDU: Convergence failed at  34  side 1    Res =  0.3695E+02
 MRCHDU: Convergence failed at  35  side 1    Res =  0.4964E+02
 MRCHDU: Convergence failed at  36  side 1    Res =  0.5387E+02
 MRCHDU: Convergence failed at  37  side 1    Res =  0.5111E+02
 MRCHDU: Convergence failed at  38  side 1    Res =  0.4606E+02
 MRCHDU: Convergence failed at  39  side 1    Res =  0.4765E+02
 MRCHDU: Convergence failed at  40  side 1    Res =  0.4333E+02
 MRCHDU: Convergence failed at  41  side 1    Res =  0.3820E+02
 MRCHDU: Convergence failed at  42  side 1    Res =  0.3938E+02
 MRCHDU: Convergence failed at  43  side 1    Res =  0.2791E+02
 MRCHDU: Convergence failed at  44  side 1    Res =  0.3070E+02
 MRCHDU: Convergence failed at  45  side 1    Res =  0.3495E+02
 MRCHDU: Convergence failed at  46  side 1    Res =  0.3750E+02
 MRCHDU: Convergence failed at  47  side 1    Res =  0.4100E+02
 MRCHDU: Convergence failed at  48  side 1    Res =  0.4614E+02
 MRCHDU: Convergence failed at  49  side 1    Res =  0.5182E+02
 MRCHDU: Convergence failed at  50  side 1    Res =  0.5328E+02
 MRCHDU: Convergence failed at  51  side 1    Res =  0.5969E+02
 MRCHDU: Convergence failed at  52  side 1    Res =  0.6693E+02
 MRCHDU: Convergence failed at  53  side 1    Res =  0.7205E+02
 MRCHDU: Convergence failed at  54  side 1    Res =  0.8113E+02
 MRCHDU: Convergence failed at  55  side 1    Res =  0.9198E+02
 MRCHDU: Convergence failed at  56  side 1    Res =  0.1223E+03
 MRCHDU: Convergence failed at  57  side 1    Res =  0.1438E+03
 MRCHDU: Convergence failed at  58  side 1    Res =  0.3914E+03
 MRCHDU: Convergence failed at  59  side 1    Res =  0.1493E+03
 MRCHDU: Convergence failed at  60  side 1    Res =  0.1657E+03
 MRCHDU: Convergence failed at  61  side 1    Res =  0.2022E+03
 MRCHDU: Convergence failed at  62  side 1    Res =  0.2564E+03
 MRCHDU: Convergence failed at  63  side 1    Res =  0.3431E+03
 MRCHDU: Convergence failed at  64  side 1    Res =  0.4386E+03
 MRCHDU: Convergence failed at  65  side 1    Res =  0.5326E+03
 MRCHDU: Convergence failed at  66  side 1    Res =  0.1047E+04
 MRCHDU: Convergence failed at  67  side 1    Res =  0.1865E+05
 MRCHDU: Convergence failed at  68  side 1    Res =  0.1212E+04
 MRCHDU: Convergence failed at  69  side 1    Res =  0.6229E+03
 MRCHDU: Convergence failed at  70  side 1    Res =  0.2541E+03
 MRCHDU: Convergence failed at  71  side 1    Res =  0.2202E+03
 MRCHDU: Convergence failed at  72  side 1    Res =  0.1933E+03
 MRCHDU: Convergence failed at  73  side 1    Res =  0.1713E+03
 MRCHDU: Convergence failed at  74  side 1    Res =  0.1538E+03
 MRCHDU: Convergence failed at  75  side 1    Res =  0.1133E+03
 MRCHDU: Convergence failed at  76  side 1    Res =  0.1055E+03
 MRCHDU: Convergence failed at  77  side 1    Res =  0.9903E+02
 MRCHDU: Convergence failed at  78  side 1    Res =  0.9369E+02
 MRCHDU: Convergence failed at  79  side 1    Res =  0.1445E+03
 MRCHDU: Convergence failed at  80  side 1    Res =  0.1326E+03
 MRCHDU: Convergence failed at  81  side 1    Res =  0.1232E+03
 MRCHDU: Convergence failed at  82  side 1    Res =  0.1156E+03
 MRCHDU: Convergence failed at  83  side 1    Res =  0.1093E+03
 MRCHDU: Convergence failed at  84  side 1    Res =  0.1043E+03
 MRCHDU: Convergence failed at  85  side 1    Res =  0.1004E+03
 MRCHDU: Convergence failed at  86  side 1    Res =  0.9626E+02
 MRCHDU: Convergence failed at  87  side 1    Res =  0.9067E+02
 MRCHDU: Convergence failed at  88  side 1    Res =  0.8321E+02
 MRCHDU: Convergence failed at  89  side 1    Res =  0.1167E+03
 MRCHDU: Convergence failed at  90  side 1    Res =  0.1265E+03
 MRCHDU: Convergence failed at  91  side 1    Res =  0.1376E+03
 MRCHDU: Convergence failed at  92  side 1    Res =  0.1328E+03
 MRCHDU: Convergence failed at  83  side 2    Res =  0.3529E+01
 MRCHDU: Convergence failed at  84  side 2    Res =  0.3868E+01
 MRCHDU: Convergence failed at  85  side 2    Res =  0.5106E+01
 MRCHDU: Convergence failed at  86  side 2    Res =  0.4925E+01
 MRCHDU: Convergence failed at  87  side 2    Res =  0.1193E+01
 MRCHDU: Convergence failed at  88  side 2    Res =  0.1225E+01
 Side 1  free  transition at x/c =  0.0714   31
 Side 2 forced transition at x/c =  1.0000   70

  57   rms: 0.2876E+01   max: 0.1510E+02   D at   81  2   RLX: 0.099
       a = 15.500      CL =  1.7549
      Cm = -0.3644     CD =  0.01894   =>   CDf =  0.00278    CDp =  0.01616

 MRCHDU: Convergence failed at  81  side 2    Res =  0.7813E+01
 MRCHDU: Convergence failed at  82  side 2    Res =  0.4352E+01
 Side 1  free  transition at x/c =  0.0527   29
 Side 2 forced transition at x/c =  1.0000   70

  58   rms: 0.3017E+01   max: -.3627E+02   T at   30  1   RLX: 0.014
       a = 15.500      CL =  1.4389
      Cm = -0.2610     CD =  0.18489   =>   CDf =  0.00338    CDp =  0.18152

 Side 1  free  transition at x/c =  0.0502   29
 Side 2 forced transition at x/c =  1.0000   70

  59   rms: 0.7330E+00   max: 0.5316E+01   C at   70  2   RLX: 0.191
       a = 15.500      CL =  1.3066
      Cm = -0.2194     CD =  0.13832   =>   CDf =  0.00339    CDp =  0.13493

 Side 1  free  transition at x/c =  0.0449   29
 Side 2 forced transition at x/c =  1.0000   70

  60   rms: 0.7016E+00   max: 0.4790E+01   C at   70  2   RLX: 0.164
       a = 15.500      CL =  1.1783
      Cm = -0.1768     CD =  0.16670   =>   CDf =  0.00362    CDp =  0.16307

 Side 1  free  transition at x/c =  0.0444   29
 Side 2 forced transition at x/c =  1.0000   70

  61   rms: 0.6732E+00   max: 0.5904E+01   C at   70  2   RLX: 0.132
       a = 15.500      CL =  1.1072
      Cm = -0.1509     CD =  0.21704   =>   CDf =  0.00383    CDp =  0.21321

 Side 1  free  transition at x/c =  0.0442   29
 Side 2 forced transition at x/c =  1.0000   70
 idif Ue xi dudx           1  0.12299904      4.82523441E-03   25.490791    
 Uenew xinew           2  4.86805988E-03  1.90973282E-04

  62   rms: 0.6768E+00   max: 0.5079E+01   C at   70  2   RLX: 0.114
       a = 15.500      CL =  1.0413
      Cm = -0.1289     CD =  0.23494   =>   CDf =  0.00407    CDp =  0.23087

 Side 1  free  transition at x/c =  0.0443   28
 Side 2 forced transition at x/c =  1.0000   71

  63   rms: 0.6780E+00   max: 0.6076E+01   C at   71  2   RLX: 0.113
       a = 15.500      CL =  0.9852
      Cm = -0.1106     CD =  0.24261   =>   CDf =  0.00410    CDp =  0.23851

 Side 1  free  transition at x/c =  0.0443   28
 Side 2 forced transition at x/c =  1.0000   71

  64   rms: 0.6233E+00   max: 0.5433E+01   C at   71  2   RLX: 0.116
       a = 15.500      CL =  0.9263
      Cm = -0.0927     CD =  0.24308   =>   CDf =  0.00417    CDp =  0.23891

 Side 1  free  transition at x/c =  0.0445   28
 Side 2 forced transition at x/c =  1.0000   71

  65   rms: 0.5940E+00   max: 0.4673E+01   C at   71  2   RLX: 0.143
       a = 15.500      CL =  0.8487
      Cm = -0.0720     CD =  0.22910   =>   CDf =  0.00423    CDp =  0.22487

 Side 1  free  transition at x/c =  0.0449   28
 Side 2 forced transition at x/c =  1.0000   71

  66   rms: 0.5738E+00   max: 0.4965E+01   C at   71  2   RLX: 0.146
       a = 15.500      CL =  0.7795
      Cm = -0.0541     CD =  0.21564   =>   CDf =  0.00427    CDp =  0.21137

 MRCHDU: Convergence failed at  93  side 2    Res =  0.8471E-01
 Side 1  free  transition at x/c =  0.0456   28
 Side 2 forced transition at x/c =  1.0000   71

  67   rms: 0.5579E+00   max: 0.4903E+01   C at   71  2   RLX: 0.117
       a = 15.500      CL =  0.7315
      Cm = -0.0410     CD =  0.21432   =>   CDf =  0.00428    CDp =  0.21005

 MRCHDU: Convergence failed at  93  side 2    Res =  0.2644E+00
 Side 1  free  transition at x/c =  0.0462   28
 Side 2 forced transition at x/c =  1.0000   71

  68   rms: 0.7332E+00   max: -.3435E+01   T at   28  1   RLX: 0.146
       a = 15.500      CL =  0.6279
      Cm = -0.0250     CD =  0.47015   =>   CDf =  0.00429    CDp =  0.46586

 Side 1  free  transition at x/c =  0.0489   28
 Side 2 forced transition at x/c =  1.0000   71
 idif Ue xi dudx           1  0.13104969      4.24277782E-03   30.887711    
 Uenew xinew           2  6.99967612E-03  2.26616859E-04

  69   rms: 0.5631E+00   max: -.2393E+01   T at   28  1   RLX: 0.209
       a = 15.500      CL =  0.5352
      Cm = -0.0112     CD =  0.47116   =>   CDf =  0.00422    CDp =  0.46694

 Side 1  free  transition at x/c =  0.0485   27
 Side 2 forced transition at x/c =  1.0000   72

  70   rms: 0.4735E+00   max: -.1795E+01   T at   94  2   RLX: 0.279
       a = 15.500      CL =  0.4555
      Cm =  0.0001     CD =  0.51409   =>   CDf =  0.00398    CDp =  0.51011

 Side 1  free  transition at x/c =  0.0495   27
 Side 2 forced transition at x/c =  1.0000   72

  71   rms: 0.3729E+00   max: -.1497E+01   T at   94  2   RLX: 0.334
       a = 15.500      CL =  0.3960
      Cm =  0.0097     CD =  0.58558   =>   CDf =  0.00377    CDp =  0.58180

 Side 1  free  transition at x/c =  0.0506   27
 Side 2 forced transition at x/c =  1.0000   72

  72   rms: 0.3024E+00   max: 0.2039E+01   C at   72  2   RLX: 0.452
       a = 15.500      CL =  0.3670
      Cm =  0.0137     CD =  0.48380   =>   CDf =  0.00358    CDp =  0.48022

 Side 1  free  transition at x/c =  0.0517   27
 Side 2 forced transition at x/c =  1.0000   72

  73   rms: 0.2477E+00   max: 0.2196E+01   C at   72  2   RLX: 0.582
       a = 15.500      CL =  0.3674
      Cm =  0.0169     CD =  0.28269   =>   CDf =  0.00336    CDp =  0.27933

 Side 1  free  transition at x/c =  0.0525   27
 Side 2 forced transition at x/c =  1.0000   72

  74   rms: 0.1800E+00   max: 0.1287E+01   C at   72  2   RLX: 0.601
       a = 15.500      CL =  0.3879
      Cm =  0.0188     CD =  0.20552   =>   CDf =  0.00314    CDp =  0.20239

 Side 1  free  transition at x/c =  0.0509   28
 Side 2 forced transition at x/c =  1.0000   71

  75   rms: 0.1192E+00   max: 0.8247E+00   T at   28  1   RLX: 0.683
       a = 15.500      CL =  0.4231
      Cm =  0.0153     CD =  0.17005   =>   CDf =  0.00311    CDp =  0.16694

 Side 1  free  transition at x/c =  0.0468   28
 Side 2 forced transition at x/c =  1.0000   71

  76   rms: 0.7435E-01   max: -.5204E+00   D at   92  2   RLX: 0.961
       a = 15.500      CL =  0.4561
      Cm =  0.0104     CD =  0.15081   =>   CDf =  0.00308    CDp =  0.14773

 Side 1  free  transition at x/c =  0.0458   28
 Side 2 forced transition at x/c =  1.0000   71

  77   rms: 0.2850E-01   max: -.1571E+00   D at   92  2
       a = 15.500      CL =  0.4679
      Cm =  0.0107     CD =  0.14557   =>   CDf =  0.00306    CDp =  0.14251

 Side 1  free  transition at x/c =  0.0455   28
 Side 2 forced transition at x/c =  1.0000   71

  78   rms: 0.5959E-02   max: 0.3160E-01   T at   28  1
       a = 15.500      CL =  0.4713
      Cm =  0.0107     CD =  0.14633   =>   CDf =  0.00304    CDp =  0.14328

 Side 1  free  transition at x/c =  0.0454   28
 Side 2 forced transition at x/c =  1.0000   71

  79   rms: 0.1966E-03   max: -.1444E-02   D at   92  2
       a = 15.500      CL =  0.4713
      Cm =  0.0107     CD =  0.14643   =>   CDf =  0.00304    CDp =  0.14339

 Side 1  free  transition at x/c =  0.0454   28
 Side 2 forced transition at x/c =  1.0000   71

  80   rms: 0.4126E-04   max: 0.1649E-03   T at   28  1
       a = 15.500      CL =  0.4714
      Cm =  0.0107     CD =  0.14643   =>   CDf =  0.00304    CDp =  0.14339
 plradd ia,ip,cpol           51           0  6.12719101E-04

 Point added to stored polar  1
 Point written to save file  n14_Re300k.base.pol                             
 Dump file unspecified or not available
 Calculating wake trajectory ...
 Calculating source influence matrix ...

 Solving BL system ...

 Side 1  free  transition at x/c =  0.0454   28
 Side 2 forced transition at x/c =  1.0000   71

   1   rms: 0.2826E-01   max: 0.2702E+00   T at   28  1   RLX: 0.357
       a = 15.750      CL =  0.4741
      Cm =  0.0106     CD =  0.14732   =>   CDf =  0.00304    CDp =  0.14428

 Side 1  free  transition at x/c =  0.0450   28
 Side 2 forced transition at x/c =  1.0000   71

   2   rms: 0.2197E-01   max: 0.1752E+00   T at   28  1
       a = 15.750      CL =  0.4812
      Cm =  0.0107     CD =  0.14811   =>   CDf =  0.00304    CDp =  0.14507

 Side 1  free  transition at x/c =  0.0444   28
 Side 2 forced transition at x/c =  1.0000   71

   3   rms: 0.5513E-02   max: -.3041E-01   D at   28  1
       a = 15.750      CL =  0.4802
      Cm =  0.0108     CD =  0.14751   =>   CDf =  0.00303    CDp =  0.14448

 Side 1  free  transition at x/c =  0.0444   28
 Side 2 forced transition at x/c =  1.0000   71

   4   rms: 0.1953E-02   max: 0.6307E-02   T at   28  1
       a = 15.750      CL =  0.4813
      Cm =  0.0108     CD =  0.14787   =>   CDf =  0.00303    CDp =  0.14484

 Side 1  free  transition at x/c =  0.0444   28
 Side 2 forced transition at x/c =  1.0000   71

   5   rms: 0.2727E-03   max: -.1166E-02   D at   92  2
       a = 15.750      CL =  0.4814
      Cm =  0.0108     CD =  0.14801   =>   CDf =  0.00303    CDp =  0.14498

 Side 1  free  transition at x/c =  0.0444   28
 Side 2 forced transition at x/c =  1.0000   71

   6   rms: 0.2614E-04   max: -.1182E-03   D at   90  2
       a = 15.750      CL =  0.4814
      Cm =  0.0108     CD =  0.14802   =>   CDf =  0.00303    CDp =  0.14499
 plradd ia,ip,cpol           52           0  6.12719101E-04

 Point added to stored polar  1
 Point written to save file  n14_Re300k.base.pol                             
 Dump file unspecified or not available
 Calculating wake trajectory ...
 Calculating source influence matrix ...

 Solving BL system ...

 Side 1  free  transition at x/c =  0.0444   28
 Side 2 forced transition at x/c =  1.0000   71

   1   rms: 0.3944E-01   max: 0.2918E+00   T at   28  1   RLX: 0.353
       a = 16.000      CL =  0.4850
      Cm =  0.0109     CD =  0.14857   =>   CDf =  0.00295    CDp =  0.14562

 Side 1  free  transition at x/c =  0.0441   29
 Side 2 forced transition at x/c =  1.0000   70

   2   rms: 0.2930E-01   max: 0.2074E+00   T at   29  1
       a = 16.000      CL =  0.4920
      Cm =  0.0112     CD =  0.14942   =>   CDf =  0.00302    CDp =  0.14640

 Side 1  free  transition at x/c =  0.0436   29
 Side 2 forced transition at x/c =  1.0000   70

   3   rms: 0.1249E-01   max: -.4921E-01   D at   29  1
       a = 16.000      CL =  0.4916
      Cm =  0.0115     CD =  0.14844   =>   CDf =  0.00301    CDp =  0.14543

 Side 1  free  transition at x/c =  0.0435   29
 Side 2 forced transition at x/c =  1.0000   70

   4   rms: 0.9046E-02   max: 0.8795E-01   T at   29  1
       a = 16.000      CL =  0.4928
      Cm =  0.0115     CD =  0.15032   =>   CDf =  0.00301    CDp =  0.14732

 Side 1  free  transition at x/c =  0.0433   29
 Side 2 forced transition at x/c =  1.0000   70

   5   rms: 0.1073E-01   max: -.8674E-01   T at   29  1
       a = 16.000      CL =  0.4932
      Cm =  0.0115     CD =  0.14938   =>   CDf =  0.00301    CDp =  0.14637

 Side 1  free  transition at x/c =  0.0435   29
 Side 2 forced transition at x/c =  1.0000   70

   6   rms: 0.7344E-02   max: 0.7147E-01   T at   29  1
       a = 16.000      CL =  0.4925
      Cm =  0.0115     CD =  0.15012   =>   CDf =  0.00300    CDp =  0.14711

 Side 1  free  transition at x/c =  0.0433   29
 Side 2 forced transition at x/c =  1.0000   70

   7   rms: 0.1459E-01   max: -.1262E+00   T at   29  1
       a = 16.000      CL =  0.4942
      Cm =  0.0115     CD =  0.14908   =>   CDf =  0.00301    CDp =  0.14607

 Side 1  free  transition at x/c =  0.0436   29
 Side 2 forced transition at x/c =  1.0000   70

   8   rms: 0.9926E-02   max: 0.6800E-01   T at   29  1
       a = 16.000      CL =  0.4941
      Cm =  0.0117     CD =  0.14955   =>   CDf =  0.00300    CDp =  0.14654

 Side 1  free  transition at x/c =  0.0435   29
 Side 2 forced transition at x/c =  1.0000   70

   9   rms: 0.1242E-01   max: 0.1119E+00   T at   29  1
       a = 16.000      CL =  0.4921
      Cm =  0.0116     CD =  0.15089   =>   CDf =  0.00300    CDp =  0.14788

 Side 1  free  transition at x/c =  0.0432   29
 Side 2 forced transition at x/c =  1.0000   70

  10   rms: 0.8740E-02   max: -.6877E-01   T at   29  1
       a = 16.000      CL =  0.4931
      Cm =  0.0116     CD =  0.14997   =>   CDf =  0.00301    CDp =  0.14696

 Side 1  free  transition at x/c =  0.0434   29
 Side 2 forced transition at x/c =  1.0000   70

  11   rms: 0.3647E-01   max: 0.3251E+00   T at   29  1
       a = 16.000      CL =  0.4891
      Cm =  0.0115     CD =  0.15325   =>   CDf =  0.00300    CDp =  0.15024

 Side 1  free  transition at x/c =  0.0431   28
 Side 2 forced transition at x/c =  1.0000   70

  12   rms: 0.1618E+00   max: 0.8565E+00   D at   29  1
       a = 16.000      CL =  0.4843
      Cm =  0.0072     CD =  0.16985   =>   CDf =  0.00301    CDp =  0.16684

 Side 1  free  transition at x/c =  0.0431   28
 Side 2 forced transition at x/c =  1.0000   70

  13   rms: 0.5423E-01   max: -.1165E+00   C at   70  2
       a = 16.000      CL =  0.4898
      Cm =  0.0114     CD =  0.15411   =>   CDf =  0.00303    CDp =  0.15108

 Side 1  free  transition at x/c =  0.0432   28
 Side 2 forced transition at x/c =  1.0000   70

  14   rms: 0.5556E-02   max: 0.2024E-01   T at   29  1
       a = 16.000      CL =  0.4905
      Cm =  0.0113     CD =  0.15184   =>   CDf =  0.00302    CDp =  0.14882

 Side 1  free  transition at x/c =  0.0432   28
 Side 2 forced transition at x/c =  1.0000   70

  15   rms: 0.8404E-03   max: 0.3966E-02   D at   88  2
       a = 16.000      CL =  0.4900
      Cm =  0.0114     CD =  0.15132   =>   CDf =  0.00302    CDp =  0.14830

 Side 1  free  transition at x/c =  0.0432   28
 Side 2 forced transition at x/c =  1.0000   70

  16   rms: 0.5508E-04   max: -.1740E-03   D at   79  2
       a = 16.000      CL =  0.4900
      Cm =  0.0114     CD =  0.15132   =>   CDf =  0.00302    CDp =  0.14830
 plradd ia,ip,cpol           53           0  6.12719101E-04

 Point added to stored polar  1
 Point written to save file  n14_Re300k.base.pol                             
 Dump file unspecified or not available

.OPERva   c>  
 Polar accumulation disabled

.OPERv   c>  
 XFOIL   c>  
 XFOIL   c>  