  
       XFOIL         Version 6.99
  
 Calculated polar for: N-22                                            
  
 1 1 Reynolds number fixed          Mach number fixed         
  
 xtrf =   1.000 (top)        1.000 (bottom)  
 Mach =   0.000     Re =     0.300 e 6     Ncrit =   9.000
  
   alpha    CL        CD       CDp       CM     Top_Xtr  Bot_Xtr
  ------ -------- --------- --------- -------- -------- --------
-4.000   0.2089   0.01099   0.00386  -0.0917   0.7941   0.1574
-3.500   0.2640   0.01062   0.00359  -0.0913   0.7744   0.2130
-3.000   0.3183   0.01007   0.00342  -0.0910   0.7551   0.3322
-2.500   0.3686   0.00915   0.00340  -0.0899   0.7356   0.6180
-2.000   0.4446   0.00836   0.00340  -0.0927   0.7150   0.9984
-1.500   0.4979   0.00849   0.00331  -0.0920   0.6923   1.0001
-1.000   0.5505   0.00867   0.00325  -0.0912   0.6693   1.0001
-0.500   0.6034   0.00886   0.00328  -0.0905   0.6439   1.0001
0.000   0.6561   0.00909   0.00332  -0.0898   0.6164   1.0001
0.500   0.7086   0.00938   0.00342  -0.0891   0.5867   1.0001
1.000   0.7607   0.00973   0.00358  -0.0884   0.5547   1.0001
1.500   0.8122   0.01015   0.00382  -0.0877   0.5217   1.0001
2.000   0.8633   0.01065   0.00413  -0.0870   0.4908   1.0001
2.500   0.9133   0.01117   0.00448  -0.0862   0.4573   1.0001
3.000   0.9634   0.01172   0.00489  -0.0855   0.4292   1.0001
3.500   1.0139   0.01228   0.00537  -0.0849   0.4078   1.0001
4.000   1.0642   0.01283   0.00589  -0.0844   0.3886   1.0001
4.500   1.1138   0.01340   0.00644  -0.0838   0.3706   1.0001
5.000   1.1629   0.01399   0.00704  -0.0831   0.3541   1.0001
5.500   1.2108   0.01461   0.00769  -0.0823   0.3375   1.0001
6.000   1.2571   0.01526   0.00836  -0.0813   0.3192   1.0001
6.500   1.3009   0.01599   0.00910  -0.0799   0.2995   1.0001
7.000   1.3430   0.01669   0.00988  -0.0782   0.2749   1.0001
7.500   1.3789   0.01764   0.01079  -0.0757   0.2417   1.0001
8.000   1.4050   0.01897   0.01199  -0.0717   0.2063   1.0001
8.500   1.4263   0.02069   0.01359  -0.0674   0.1788   1.0001
9.000   1.4497   0.02246   0.01537  -0.0638   0.1599   1.0001
9.500   1.4718   0.02442   0.01739  -0.0605   0.1460   1.0001
10.000   1.4925   0.02660   0.01963  -0.0576   0.1337   1.0001
10.250   1.5034   0.02770   0.02078  -0.0564   0.1273   1.0001
10.500   1.5113   0.02905   0.02217  -0.0550   0.1216   1.0001
10.750   1.5232   0.03016   0.02337  -0.0541   0.1153   1.0001
11.000   1.5291   0.03178   0.02501  -0.0528   0.1089   1.0001
11.250   1.5389   0.03314   0.02644  -0.0520   0.1000   1.0001
11.500   1.5444   0.03494   0.02825  -0.0511   0.0878   1.0001
11.750   1.5420   0.03754   0.03075  -0.0499   0.0660   1.0001
12.000   1.5277   0.04140   0.03443  -0.0484   0.0448   1.0001
12.250   1.5158   0.04524   0.03825  -0.0474   0.0374   1.0001
12.750   1.4982   0.05279   0.04598  -0.0465   0.0316   1.0001
13.000   1.4893   0.05684   0.05014  -0.0465   0.0300   1.0001
13.250   1.4770   0.06148   0.05489  -0.0468   0.0288   1.0001
13.500   1.4668   0.06604   0.05958  -0.0474   0.0279   1.0001
13.750   1.4587   0.07047   0.06414  -0.0481   0.0270   1.0001
14.000   1.4486   0.07526   0.06906  -0.0490   0.0262   1.0001
14.250   1.4378   0.08027   0.07419  -0.0501   0.0256   1.0001
14.500   1.4256   0.08561   0.07964  -0.0514   0.0250   1.0001
14.750   1.4122   0.09118   0.08532  -0.0529   0.0245   1.0001
15.000   1.3982   0.09689   0.09112  -0.0544   0.0241   1.0001
15.250   1.3842   0.10261   0.09691  -0.0561   0.0237   1.0001
15.500   1.3771   0.10735   0.10175  -0.0575   0.0233   1.0001
15.750   1.3710   0.11195   0.10647  -0.0589   0.0229   1.0001
16.000   1.3655   0.11645   0.11106  -0.0604   0.0225   1.0001
