  
       XFOIL         Version 6.99
  
 Calculated polar for: NACA 2-H-15 AIRFOIL                             
  
 1 1 Reynolds number fixed          Mach number fixed         
  
 xtrf =   1.000 (top)        1.000 (bottom)  
 Mach =   0.000     Re =     0.400 e 6     Ncrit =   9.000
  
   alpha    CL        CD       CDp       CM     Top_Xtr  Bot_Xtr
  ------ -------- --------- --------- -------- -------- --------
  -4.000  -0.1883   0.03861   0.03356  -0.0359   0.6782   0.0479
  -3.500  -0.1632   0.03632   0.03098  -0.0300   0.6768   0.0511
  -3.000  -0.1546   0.03497   0.02917  -0.0216   0.6710   0.0554
  -2.500  -0.1086   0.03186   0.02588  -0.0186   0.6733   0.0588
  -1.000  -0.0146   0.02896   0.02239  -0.0068   0.6594   0.0804
  -0.500  -0.1360   0.03531   0.02857   0.0200   0.6345   0.0764
   0.000   0.2094   0.02358   0.01615  -0.0282   0.6575   0.0453
   0.500   0.3097   0.02165   0.01432  -0.0377   0.6579   0.0474
