
 ===================================================
  XFOIL Version 6.99
  Copyright (C) 2000   Mark Drela, Harold Youngren

  This software comes with ABSOLUTELY NO WARRANTY,
    subject to the GNU General Public License.

  Caveat computor
 ===================================================

 File  xfoil.def  not found

   QUIT    Exit program

  .OPER    Direct operating point(s)
  .MDES    Complex mapping design routine
  .QDES    Surface speed design routine
  .GDES    Geometry design routine

   SAVE f  Write airfoil to labeled coordinate file
   PSAV f  Write airfoil to plain coordinate file
   ISAV f  Write airfoil to ISES coordinate file
   MSAV f  Write airfoil to MSES coordinate file
   REVE    Reverse written-airfoil node ordering

   LOAD f  Read buffer airfoil from coordinate file
   NACA i  Set NACA 4,5-digit airfoil and buffer airfoil
   INTE    Set buffer airfoil by interpolating two airfoils
   NORM    Buffer airfoil normalization toggle
   XYCM rr Change CM reference location, currently  0.25000 0.00000

   BEND    Display structural properties of current airfoil

   PCOP    Set current-airfoil panel nodes directly from buffer airfoil points
   PANE    Set current-airfoil panel nodes ( 160 ) based on curvature
  .PPAR    Show/change paneling

  .PLOP    Plotting options

   WDEF f  Write  current-settings file
   RDEF f  Reread current-settings file
   NAME s  Specify new airfoil name
   NINC    Increment name version number

   Z       Zoom    | (available in all menus)
   U       Unzoom  | 

 XFOIL   c>  
 Labeled airfoil file.  Name:   NACA 63012A AIRFOIL                            

 Number of input coordinate points:  51
 Counterclockwise ordering
 Max thickness =     0.119900  at x =   0.350
 Max camber    =    -0.000000  at x =   0.025

  LE  x,y  =   0.00000   0.00000  |   Chord =   1.00000
  TE  x,y  =   1.00000   0.00000  |

 Current airfoil nodes set from buffer airfoil nodes (  51 )

 WARNING: Poor input coordinate distribution
          Excessive panel angle   54.4  at i =  26
          Repaneling with PANE and/or PPAR suggested
           (doing GDES,CADD before repaneling _may_
            improve excessively coarse LE spacing

 XFOIL   c>  
 XFOIL   c>  
 Blunt trailing edge.  Gap =  0.00050

 Paneling parameters used...
   Number of panel nodes       160
   Panel bunching parameter    1.000
   TE/LE panel density ratio   0.150
   Refined-area/LE panel density ratio    0.200
   Top    side refined area x/c limits  1.000 1.000
   Bottom side refined area x/c limits  1.000 1.000

 XFOIL   c>  
.OPERi   c>  
 Xtr/c     =  1.0000    top    side
 Xtr/c     =  1.0000    bottom side
 Ncrit     =    9.00   ( 0.070 % turb. level )
 Vacc      =  0.0100

 Klag  =  5.6000     Uxwt  =    1.00
 A     =  6.7000     B     =  0.7500       KCt = 0.01485
 CtiniK=  1.8000     CtiniX=  3.3000

..VPAR   c>  
..VPAR   c>  
.OPERi   c>  
 M  =    0.0000
 Re =    300000

.OPERv   c>  
.OPERv   c>  
.OPERv   c>  
 Polar  1 newly created for accumulation
 Airfoil archived with polar: NACA 63012A AIRFOIL                             

Enter  polar save filename  OR  <return> for no file   s>  
 New polar save file available

Enter  polar dump filename  OR  <return> for no file   s>  
 Polar dump file will NOT be written

 Polar accumulation enabled

.OPERva   c>   Calculating unit vorticity distributions ...
 Calculating wake trajectory ...
 Calculating source influence matrix ...

 Solving BL system ...

 Initializing BL ...
    side            1  ...
 MRCHUE: Inverse mode at  55     Hk =   3.995
 MRCHUE: Inverse mode at  56     Hk =   4.429
 MRCHUE: Inverse mode at  57     Hk =   4.856
 MRCHUE: Inverse mode at  58     Hk =   5.277
 MRCHUE: Inverse mode at  59     Hk =   5.693
 MRCHUE: Inverse mode at  60     Hk =   6.104
 MRCHUE: Inverse mode at  61     Hk =   6.510
 MRCHUE: Inverse mode at  62     Hk =   6.912
 MRCHUE: Inverse mode at  63     Hk =   7.310
 MRCHUE: Inverse mode at  64     Hk =   7.705
 MRCHUE: Inverse mode at  65     Hk =   8.097
 MRCHUE: Inverse mode at  66     Hk =   8.485
 MRCHUE: Inverse mode at  67     Hk =   8.868
 MRCHUE: Inverse mode at  68     Hk =   8.422
 MRCHUE: Inverse mode at  69     Hk =   6.776
 MRCHUE: Inverse mode at  70     Hk =   5.636
 MRCHUE: Inverse mode at  71     Hk =   4.750
 MRCHUE: Inverse mode at  72     Hk =   4.075
 MRCHUE: Inverse mode at  73     Hk =   3.567
 MRCHUE: Inverse mode at  76     Hk =   2.500
    side            2  ...
 MRCHUE: Inverse mode at  47     Hk =   3.913
 MRCHUE: Inverse mode at  48     Hk =   4.408
 MRCHUE: Inverse mode at  49     Hk =   4.894
 MRCHUE: Inverse mode at  50     Hk =   3.555
 MRCHUE: Inverse mode at  86     Hk =   2.500

 Side 1  free  transition at x/c =  0.8969   68
 Side 2  free  transition at x/c =  0.4693   50

   1   rms: 0.2943E+00   max: -.2202E+01   C at   50  2   RLX: 0.227
       a = -4.000      CL = -0.4388
      Cm = -0.0027     CD =  0.00812   =>   CDf =  0.00577    CDp =  0.00234

 Side 1  free  transition at x/c =  0.9197   70
 Side 2  free  transition at x/c =  0.4923   51

   2   rms: 0.1392E+00   max: 0.7658E+00   D at   74  1   RLX: 0.727
       a = -4.000      CL = -0.4824
      Cm =  0.0053     CD =  0.00902   =>   CDf =  0.00580    CDp =  0.00322

 Side 1  free  transition at x/c =  0.9349   71
 Side 2  free  transition at x/c =  0.5371   54

   3   rms: 0.9591E-01   max: -.8372E+00   T at   71  1   RLX: 0.597
       a = -4.000      CL = -0.4537
      Cm = -0.0009     CD =  0.00924   =>   CDf =  0.00535    CDp =  0.00389

 Side 1  free  transition at x/c =  0.9510   72
 Side 2  free  transition at x/c =  0.5621   56

   4   rms: 0.7408E-01   max: -.5850E+00   T at   72  1   RLX: 0.855
       a = -4.000      CL = -0.4400
      Cm = -0.0043     CD =  0.00882   =>   CDf =  0.00511    CDp =  0.00371

 Side 1  free  transition at x/c =  0.9688   73
 Side 2  free  transition at x/c =  0.5641   56

   5   rms: 0.2447E-01   max: -.2320E+00   D at   73  1
       a = -4.000      CL = -0.4511
      Cm = -0.0020     CD =  0.00908   =>   CDf =  0.00515    CDp =  0.00393

 Side 1  free  transition at x/c =  0.9639   73
 Side 2  free  transition at x/c =  0.5580   56

   6   rms: 0.5852E-02   max: -.4441E-01   D at   76  1
       a = -4.000      CL = -0.4493
      Cm = -0.0024     CD =  0.00908   =>   CDf =  0.00517    CDp =  0.00391

 Side 1  free  transition at x/c =  0.9654   73
 Side 2  free  transition at x/c =  0.5590   56

   7   rms: 0.3565E-03   max: -.2903E-02   D at   74  1
       a = -4.000      CL = -0.4492
      Cm = -0.0024     CD =  0.00908   =>   CDf =  0.00517    CDp =  0.00391

 Side 1  free  transition at x/c =  0.9655   73
 Side 2  free  transition at x/c =  0.5590   56

   8   rms: 0.4046E-05   max: 0.1795E-04   D at   90  2
       a = -4.000      CL = -0.4492
      Cm = -0.0024     CD =  0.00908   =>   CDf =  0.00517    CDp =  0.00391
 plradd ia,ip,cpol            1           0  4.61831456E-03

 Point added to stored polar  1
 Point written to save file  n63012a_Re300k.base.pol                         
 Dump file unspecified or not available
 Calculating wake trajectory ...
 Calculating source influence matrix ...

 Solving BL system ...

 Side 1  free  transition at x/c =  0.9655   73
 Side 2  free  transition at x/c =  0.5590   56

   1   rms: 0.1238E+00   max: -.8228E+00   C at   56  2   RLX: 0.608
       a = -3.500      CL = -0.4046
      Cm = -0.0046     CD =  0.00887   =>   CDf =  0.00517    CDp =  0.00371

 Side 1  free  transition at x/c =  0.9577   72
 Side 2  free  transition at x/c =  0.5833   58

   2   rms: 0.6673E-01   max: -.5893E+00   T at   58  2   RLX: 0.848
       a = -3.500      CL = -0.3877
      Cm = -0.0044     CD =  0.00853   =>   CDf =  0.00537    CDp =  0.00316

 Side 1  free  transition at x/c =  0.9470   71
 Side 2  free  transition at x/c =  0.5996   59

   3   rms: 0.8934E-01   max: -.6532E+00   T at   59  2   RLX: 0.766
       a = -3.500      CL = -0.3745
      Cm = -0.0067     CD =  0.00839   =>   CDf =  0.00555    CDp =  0.00285

 Side 1  free  transition at x/c =  0.9563   72
 Side 2  free  transition at x/c =  0.6129   59

   4   rms: 0.3407E-01   max: -.3595E+00   D at   59  2
       a = -3.500      CL = -0.3786
      Cm = -0.0055     CD =  0.00885   =>   CDf =  0.00542    CDp =  0.00343

 Side 1  free  transition at x/c =  0.9497   72
 Side 2  free  transition at x/c =  0.6233   60

   5   rms: 0.2866E-01   max: 0.4386E+00   C at   60  2
       a = -3.500      CL = -0.3802
      Cm = -0.0051     CD =  0.00879   =>   CDf =  0.00499    CDp =  0.00380

 Side 1  free  transition at x/c =  0.9493   72
 Side 2  free  transition at x/c =  0.6157   60

   6   rms: 0.4883E-02   max: -.6942E-01   D at   63  2
       a = -3.500      CL = -0.3804
      Cm = -0.0050     CD =  0.00884   =>   CDf =  0.00510    CDp =  0.00374

 Side 1  free  transition at x/c =  0.9493   72
 Side 2  free  transition at x/c =  0.6142   60

   7   rms: 0.1918E-03   max: -.2493E-02   D at   63  2
       a = -3.500      CL = -0.3803
      Cm = -0.0050     CD =  0.00885   =>   CDf =  0.00513    CDp =  0.00372

 Side 1  free  transition at x/c =  0.9493   72
 Side 2  free  transition at x/c =  0.6142   60

   8   rms: 0.9025E-06   max: 0.7549E-05   D at   60  2
       a = -3.500      CL = -0.3803
      Cm = -0.0050     CD =  0.00885   =>   CDf =  0.00513    CDp =  0.00372
 plradd ia,ip,cpol            2           0  4.61831456E-03

 Point added to stored polar  1
 Point written to save file  n63012a_Re300k.base.pol                         
 Dump file unspecified or not available
 Calculating wake trajectory ...
 Calculating source influence matrix ...

 Solving BL system ...

 Side 1  free  transition at x/c =  0.9493   72
 Side 2  free  transition at x/c =  0.6142   60

   1   rms: 0.1181E+00   max: 0.6332E+00   D at   61  2   RLX: 0.915
       a = -3.000      CL = -0.3175
      Cm = -0.0071     CD =  0.00855   =>   CDf =  0.00520    CDp =  0.00335

 Side 1  free  transition at x/c =  0.9366   72
 Side 2  free  transition at x/c =  0.6410   60

   2   rms: 0.3640E-01   max: -.3334E+00   D at   61  2
       a = -3.000      CL = -0.3196
      Cm = -0.0058     CD =  0.00890   =>   CDf =  0.00534    CDp =  0.00356

 MRCHDU: Convergence failed at  62  side 2    Res =  0.7759E+01
 MRCHDU: Convergence failed at  63  side 2    Res =  0.1946E+01
 MRCHDU: Convergence failed at  64  side 2    Res =  0.2222E+01
 MRCHDU: Convergence failed at  65  side 2    Res =  0.3523E+01
 MRCHDU: Convergence failed at  66  side 2    Res =  0.5522E+01
 MRCHDU: Convergence failed at  67  side 2    Res =  0.8036E+01
 MRCHDU: Convergence failed at  68  side 2    Res =  0.1183E+02
 MRCHDU: Convergence failed at  69  side 2    Res =  0.1483E+02
 MRCHDU: Convergence failed at  70  side 2    Res =  0.1684E+02
 MRCHDU: Convergence failed at  71  side 2    Res =  0.1764E+02
 MRCHDU: Convergence failed at  72  side 2    Res =  0.1746E+02
 MRCHDU: Convergence failed at  73  side 2    Res =  0.1668E+02
 MRCHDU: Convergence failed at  74  side 2    Res =  0.1525E+02
 MRCHDU: Convergence failed at  75  side 2    Res =  0.1423E+02
 MRCHDU: Convergence failed at  76  side 2    Res =  0.1323E+02
 MRCHDU: Convergence failed at  77  side 2    Res =  0.1235E+02
 MRCHDU: Convergence failed at  78  side 2    Res =  0.1143E+02
 MRCHDU: Convergence failed at  79  side 2    Res =  0.1046E+02
 MRCHDU: Convergence failed at  80  side 2    Res =  0.9618E+01
 MRCHDU: Convergence failed at  81  side 2    Res =  0.8457E+01
 MRCHDU: Convergence failed at  82  side 2    Res =  0.7400E+01
 MRCHDU: Convergence failed at  83  side 2    Res =  0.6576E+01
 MRCHDU: Convergence failed at  84  side 2    Res =  0.6522E+01
 MRCHDU: Convergence failed at  85  side 2    Res =  0.7639E+01
 Side 1  free  transition at x/c =  0.9271   71
 Side 2  free  transition at x/c =  0.6661   62

   3   rms: 0.2542E+00   max: 0.1045E+01   T at   85  2
       a = -3.000      CL = -0.2568
      Cm = -0.0166     CD =  0.00713   =>   CDf =  0.00398    CDp =  0.00315

 Side 1  free  transition at x/c =  0.9635   74
 Side 2  free  transition at x/c =  0.6590   62

   4   rms: 0.7838E-01   max: 0.6660E+00   C at   74  1
       a = -3.000      CL = -0.2970
      Cm = -0.0107     CD =  0.00854   =>   CDf =  0.00521    CDp =  0.00332

 Side 1  free  transition at x/c =  0.9452   72
 Side 2  free  transition at x/c =  0.6616   62

   5   rms: 0.3556E-01   max: 0.2297E+00   T at   73  1
       a = -3.000      CL = -0.3237
      Cm = -0.0049     CD =  0.00869   =>   CDf =  0.00509    CDp =  0.00360

 Side 1  free  transition at x/c =  0.9233   71
 Side 2  free  transition at x/c =  0.6562   61

   6   rms: 0.1561E-01   max: -.1442E+00   D at   71  1
       a = -3.000      CL = -0.3185
      Cm = -0.0058     CD =  0.00870   =>   CDf =  0.00514    CDp =  0.00356

 Side 1  free  transition at x/c =  0.9303   71
 Side 2  free  transition at x/c =  0.6572   61

   7   rms: 0.2559E-02   max: 0.1988E-01   T at   71  1
       a = -3.000      CL = -0.3204
      Cm = -0.0054     CD =  0.00872   =>   CDf =  0.00512    CDp =  0.00360

 Side 1  free  transition at x/c =  0.9284   71
 Side 2  free  transition at x/c =  0.6567   61

   8   rms: 0.2794E-03   max: -.2962E-02   D at   72  1
       a = -3.000      CL = -0.3203
      Cm = -0.0055     CD =  0.00872   =>   CDf =  0.00512    CDp =  0.00360

 Side 1  free  transition at x/c =  0.9285   71
 Side 2  free  transition at x/c =  0.6567   61

   9   rms: 0.1333E-05   max: -.7109E-05   D at   72  1
       a = -3.000      CL = -0.3203
      Cm = -0.0055     CD =  0.00872   =>   CDf =  0.00512    CDp =  0.00360
 plradd ia,ip,cpol            3           0  6.69332920E-03

 Point added to stored polar  1
 Point written to save file  n63012a_Re300k.base.pol                         
 Dump file unspecified or not available
 Calculating wake trajectory ...
 Calculating source influence matrix ...

 Solving BL system ...

 Side 1  free  transition at x/c =  0.9285   71
 Side 2  free  transition at x/c =  0.6567   61

   1   rms: 0.9406E-01   max: -.5100E+00   T at   61  2   RLX: 0.980
       a = -2.500      CL = -0.2704
      Cm = -0.0042     CD =  0.00880   =>   CDf =  0.00519    CDp =  0.00361

 MRCHDU: Convergence failed at  63  side 2    Res =  0.8126E+02
 MRCHDU: Convergence failed at  64  side 2    Res =  0.2606E+01
 MRCHDU: Convergence failed at  65  side 2    Res =  0.2909E+01
 MRCHDU: Convergence failed at  66  side 2    Res =  0.5013E+01
 MRCHDU: Convergence failed at  67  side 2    Res =  0.8777E+01
 MRCHDU: Convergence failed at  68  side 2    Res =  0.1672E+02
 MRCHDU: Convergence failed at  69  side 2    Res =  0.3002E+02
 MRCHDU: Convergence failed at  70  side 2    Res =  0.5165E+02
 MRCHDU: Convergence failed at  71  side 2    Res =  0.7494E+02
 MRCHDU: Convergence failed at  72  side 2    Res =  0.8186E+02
 MRCHDU: Convergence failed at  73  side 2    Res =  0.6901E+02
 MRCHDU: Convergence failed at  74  side 2    Res =  0.5339E+02
 MRCHDU: Convergence failed at  75  side 2    Res =  0.4122E+02
 MRCHDU: Convergence failed at  76  side 2    Res =  0.3160E+02
 MRCHDU: Convergence failed at  77  side 2    Res =  0.2593E+02
 MRCHDU: Convergence failed at  78  side 2    Res =  0.2135E+02
 MRCHDU: Convergence failed at  79  side 2    Res =  0.1757E+02
 MRCHDU: Convergence failed at  80  side 2    Res =  0.1421E+02
 MRCHDU: Convergence failed at  81  side 2    Res =  0.1152E+02
 MRCHDU: Convergence failed at  82  side 2    Res =  0.9713E+01
 MRCHDU: Convergence failed at  83  side 2    Res =  0.8379E+01
 MRCHDU: Convergence failed at  84  side 2    Res =  0.6944E+01
 Side 1  free  transition at x/c =  0.9008   70
 Side 2  free  transition at x/c =  0.6920   63

   2   rms: 0.2584E+00   max: 0.1052E+01   T at   84  2
       a = -2.500      CL = -0.1879
      Cm = -0.0185     CD =  0.00731   =>   CDf =  0.00414    CDp =  0.00317

 MRCHDU: Convergence failed at  74  side 1    Res =  0.1379E+01
 MRCHDU: Convergence failed at  75  side 1    Res =  0.2872E+01
 MRCHDU: Convergence failed at  76  side 1    Res =  0.1359E+02
 MRCHDU: Convergence failed at  77  side 1    Res =  0.1052E+02
 MRCHDU: Convergence failed at  78  side 1    Res =  0.6515E+01
 Side 1  free  transition at x/c =  0.9442   73
 Side 2  free  transition at x/c =  0.6839   62

   3   rms: 0.1447E+00   max: 0.9122E+00   T at   73  1   RLX: 0.794
       a = -2.500      CL = -0.2841
      Cm = -0.0014     CD =  0.00836   =>   CDf =  0.00519    CDp =  0.00317

 Side 1  free  transition at x/c =  0.8888   70
 Side 2  free  transition at x/c =  0.6875   62

   4   rms: 0.6067E-01   max: -.6183E+00   D at   72  1   RLX: 0.809
       a = -2.500      CL = -0.2687
      Cm = -0.0037     CD =  0.00893   =>   CDf =  0.00522    CDp =  0.00371

 Side 1  free  transition at x/c =  0.9043   71
 Side 2  free  transition at x/c =  0.6921   63

   5   rms: 0.1442E-01   max: -.1649E+00   D at   72  1
       a = -2.500      CL = -0.2655
      Cm = -0.0046     CD =  0.00864   =>   CDf =  0.00514    CDp =  0.00350

 Side 1  free  transition at x/c =  0.9062   71
 Side 2  free  transition at x/c =  0.6911   63

   6   rms: 0.1868E-02   max: 0.1621E-01   C at   71  1
       a = -2.500      CL = -0.2660
      Cm = -0.0045     CD =  0.00865   =>   CDf =  0.00513    CDp =  0.00352

 Side 1  free  transition at x/c =  0.9055   71
 Side 2  free  transition at x/c =  0.6910   63

   7   rms: 0.3293E-04   max: -.3929E-03   D at   71  1
       a = -2.500      CL = -0.2661
      Cm = -0.0045     CD =  0.00865   =>   CDf =  0.00513    CDp =  0.00352
 plradd ia,ip,cpol            4           0  6.69332920E-03

 Point added to stored polar  1
 Point written to save file  n63012a_Re300k.base.pol                         
 Dump file unspecified or not available
 Calculating wake trajectory ...
 Calculating source influence matrix ...

 Solving BL system ...

 Side 1  free  transition at x/c =  0.9055   71
 Side 2  free  transition at x/c =  0.6910   63

   1   rms: 0.9788E-01   max: -.4488E+00   T at   63  2
       a = -2.000      CL = -0.2113
      Cm = -0.0034     CD =  0.00853   =>   CDf =  0.00513    CDp =  0.00339

 Side 1  free  transition at x/c =  0.8864   69
 Side 2  free  transition at x/c =  0.7052   64

   2   rms: 0.8863E-01   max: -.5716E+00   T at   64  2   RLX: 0.875
       a = -2.000      CL = -0.2130
      Cm = -0.0037     CD =  0.00835   =>   CDf =  0.00538    CDp =  0.00297

 Side 1  free  transition at x/c =  0.8836   69
 Side 2  free  transition at x/c =  0.7167   64

   3   rms: 0.4098E-01   max: -.3885E+00   D at   65  2
       a = -2.000      CL = -0.2140
      Cm = -0.0034     CD =  0.00865   =>   CDf =  0.00529    CDp =  0.00337

 Side 1  free  transition at x/c =  0.8826   69
 Side 2  free  transition at x/c =  0.7217   65

   4   rms: 0.9593E-02   max: 0.1230E+00   D at   65  2
       a = -2.000      CL = -0.2134
      Cm = -0.0034     CD =  0.00861   =>   CDf =  0.00516    CDp =  0.00346

 Side 1  free  transition at x/c =  0.8828   69
 Side 2  free  transition at x/c =  0.7188   64

   5   rms: 0.1020E-02   max: 0.1154E-01   D at   65  2
       a = -2.000      CL = -0.2133
      Cm = -0.0034     CD =  0.00862   =>   CDf =  0.00519    CDp =  0.00343

 Side 1  free  transition at x/c =  0.8828   69
 Side 2  free  transition at x/c =  0.7183   64

   6   rms: 0.1944E-04   max: -.3072E-03   D at   65  2
       a = -2.000      CL = -0.2133
      Cm = -0.0034     CD =  0.00862   =>   CDf =  0.00519    CDp =  0.00343
 plradd ia,ip,cpol            5           0  1.64028518E-02

 Point added to stored polar  1
 Point written to save file  n63012a_Re300k.base.pol                         
 Dump file unspecified or not available
 Calculating wake trajectory ...
 Calculating source influence matrix ...

 Solving BL system ...

 Side 1  free  transition at x/c =  0.8828   69
 Side 2  free  transition at x/c =  0.7183   64

   1   rms: 0.8710E-01   max: -.4555E+00   T at   64  2
       a = -1.500      CL = -0.1628
      Cm = -0.0022     CD =  0.00869   =>   CDf =  0.00524    CDp =  0.00345

 MRCHDU: Convergence failed at  66  side 2    Res =  0.3008E+01
 MRCHDU: Convergence failed at  67  side 2    Res =  0.2910E+01
 MRCHDU: Convergence failed at  68  side 2    Res =  0.2517E+02
 MRCHDU: Convergence failed at  69  side 2    Res =  0.1043E+02
 MRCHDU: Convergence failed at  70  side 2    Res =  0.6405E+01
 MRCHDU: Convergence failed at  71  side 2    Res =  0.5406E+01
 MRCHDU: Convergence failed at  72  side 2    Res =  0.5063E+01
 MRCHDU: Convergence failed at  73  side 2    Res =  0.5082E+01
 MRCHDU: Convergence failed at  74  side 2    Res =  0.5282E+01
 MRCHDU: Convergence failed at  75  side 2    Res =  0.5577E+01
 MRCHDU: Convergence failed at  76  side 2    Res =  0.6086E+01
 MRCHDU: Convergence failed at  77  side 2    Res =  0.6922E+01
 MRCHDU: Convergence failed at  78  side 2    Res =  0.8109E+01
 MRCHDU: Convergence failed at  79  side 2    Res =  0.1121E+02
 MRCHDU: Convergence failed at  80  side 2    Res =  0.2134E+02
 MRCHDU: Convergence failed at  81  side 2    Res =  0.1135E+03
 MRCHDU: Convergence failed at  82  side 2    Res =  0.4310E+02
 MRCHDU: Convergence failed at  83  side 2    Res =  0.1551E+02
 Side 1  free  transition at x/c =  0.8568   69
 Side 2  free  transition at x/c =  0.7457   65

   2   rms: 0.2063E+00   max: 0.8731E+00   T at   65  2   RLX: 0.941
       a = -1.500      CL = -0.1005
      Cm = -0.0091     CD =  0.00743   =>   CDf =  0.00448    CDp =  0.00295

 Side 1  free  transition at x/c =  0.8749   70
 Side 2  free  transition at x/c =  0.7072   63

   3   rms: 0.1007E+00   max: -.6593E+00   T at   63  2   RLX: 0.758
       a = -1.500      CL = -0.1446
      Cm = -0.0046     CD =  0.00914   =>   CDf =  0.00552    CDp =  0.00362

 Side 1  free  transition at x/c =  0.8655   69
 Side 2  free  transition at x/c =  0.7313   64

   4   rms: 0.2733E-01   max: -.2113E+00   D at   66  2
       a = -1.500      CL = -0.1610
      Cm = -0.0024     CD =  0.00859   =>   CDf =  0.00540    CDp =  0.00319

 Side 1  free  transition at x/c =  0.8588   69
 Side 2  free  transition at x/c =  0.7450   65

   5   rms: 0.2186E-01   max: 0.2669E+00   C at   65  2
       a = -1.500      CL = -0.1604
      Cm = -0.0024     CD =  0.00850   =>   CDf =  0.00516    CDp =  0.00334

 Side 1  free  transition at x/c =  0.8605   69
 Side 2  free  transition at x/c =  0.7409   65

   6   rms: 0.4524E-02   max: -.5553E-01   D at   68  2
       a = -1.500      CL = -0.1604
      Cm = -0.0023     CD =  0.00855   =>   CDf =  0.00520    CDp =  0.00334

 Side 1  free  transition at x/c =  0.8604   69
 Side 2  free  transition at x/c =  0.7392   65

   7   rms: 0.2472E-03   max: -.3621E-02   D at   68  2
       a = -1.500      CL = -0.1604
      Cm = -0.0023     CD =  0.00855   =>   CDf =  0.00523    CDp =  0.00332

 Side 1  free  transition at x/c =  0.8604   69
 Side 2  free  transition at x/c =  0.7391   65

   8   rms: 0.1088E-05   max: -.8736E-05   D at   68  2
       a = -1.500      CL = -0.1604
      Cm = -0.0023     CD =  0.00855   =>   CDf =  0.00523    CDp =  0.00332
 plradd ia,ip,cpol            6           0  3.63182239E-02

 Point added to stored polar  1
 Point written to save file  n63012a_Re300k.base.pol                         
 Dump file unspecified or not available
 Calculating wake trajectory ...
 Calculating source influence matrix ...

 Solving BL system ...

 Side 1  free  transition at x/c =  0.8604   69
 Side 2  free  transition at x/c =  0.7391   65

   1   rms: 0.8640E-01   max: -.3415E+00   T at   65  2
       a = -1.000      CL = -0.1069
      Cm = -0.0013     CD =  0.00850   =>   CDf =  0.00527    CDp =  0.00323

 Side 1  free  transition at x/c =  0.8419   69
 Side 2  free  transition at x/c =  0.7553   65

   2   rms: 0.2006E-01   max: -.2213E+00   D at   69  1
       a = -1.000      CL = -0.1069
      Cm = -0.0015     CD =  0.00849   =>   CDf =  0.00532    CDp =  0.00317

 Side 1  free  transition at x/c =  0.8401   68
 Side 2  free  transition at x/c =  0.7588   65

   3   rms: 0.1612E-02   max: 0.1507E-01   D at   69  1
       a = -1.000      CL = -0.1070
      Cm = -0.0015     CD =  0.00851   =>   CDf =  0.00530    CDp =  0.00322

 Side 1  free  transition at x/c =  0.8396   68
 Side 2  free  transition at x/c =  0.7586   65

   4   rms: 0.2373E-04   max: -.2761E-03   D at   69  1
       a = -1.000      CL = -0.1070
      Cm = -0.0015     CD =  0.00851   =>   CDf =  0.00529    CDp =  0.00322
 plradd ia,ip,cpol            7           0  0.19677661    

 Point added to stored polar  1
 Point written to save file  n63012a_Re300k.base.pol                         
 Dump file unspecified or not available
 Calculating wake trajectory ...
 Calculating source influence matrix ...

 Solving BL system ...

 Side 1  free  transition at x/c =  0.8396   68
 Side 2  free  transition at x/c =  0.7586   65

   1   rms: 0.8346E-01   max: -.3078E+00   T at   65  2
       a = -0.500      CL = -0.0542
      Cm = -0.0009     CD =  0.00848   =>   CDf =  0.00529    CDp =  0.00319

 Side 1  free  transition at x/c =  0.8138   67
 Side 2  free  transition at x/c =  0.7795   66

   2   rms: 0.2093E-01   max: -.2399E+00   D at   67  1
       a = -0.500      CL = -0.0535
      Cm = -0.0007     CD =  0.00847   =>   CDf =  0.00536    CDp =  0.00310

 Side 1  free  transition at x/c =  0.8197   67
 Side 2  free  transition at x/c =  0.7790   66

   3   rms: 0.3349E-02   max: 0.3409E-01   D at   68  1
       a = -0.500      CL = -0.0536
      Cm = -0.0008     CD =  0.00849   =>   CDf =  0.00532    CDp =  0.00317

 Side 1  free  transition at x/c =  0.8181   67
 Side 2  free  transition at x/c =  0.7787   66

   4   rms: 0.1322E-03   max: -.1474E-02   D at   67  1
       a = -0.500      CL = -0.0536
      Cm = -0.0008     CD =  0.00849   =>   CDf =  0.00533    CDp =  0.00316

 Side 1  free  transition at x/c =  0.8181   67
 Side 2  free  transition at x/c =  0.7787   66

   5   rms: 0.7098E-06   max: 0.4574E-05   D at    4  2
       a = -0.500      CL = -0.0536
      Cm = -0.0008     CD =  0.00849   =>   CDf =  0.00533    CDp =  0.00316
 plradd ia,ip,cpol            8           0  0.28527465    

 Point added to stored polar  1
 Point written to save file  n63012a_Re300k.base.pol                         
 Dump file unspecified or not available
 Calculating wake trajectory ...
 Calculating source influence matrix ...

 Solving BL system ...

 Side 1  free  transition at x/c =  0.8181   67
 Side 2  free  transition at x/c =  0.7787   66

   1   rms: 0.8450E-01   max: -.3419E+00   T at   66  2
       a =  0.000      CL = -0.0006
      Cm = -0.0001     CD =  0.00852   =>   CDf =  0.00535    CDp =  0.00318

 MRCHDU: Convergence failed at  67  side 2    Res =  0.2125E+01
 MRCHDU: Convergence failed at  68  side 2    Res =  0.1044E+02
 MRCHDU: Convergence failed at  69  side 2    Res =  0.2825E+01
 MRCHDU: Convergence failed at  70  side 2    Res =  0.3138E+01
 MRCHDU: Convergence failed at  71  side 2    Res =  0.4969E+01
 MRCHDU: Convergence failed at  72  side 2    Res =  0.7707E+01
 MRCHDU: Convergence failed at  73  side 2    Res =  0.1151E+02
 MRCHDU: Convergence failed at  74  side 2    Res =  0.1636E+02
 MRCHDU: Convergence failed at  75  side 2    Res =  0.2280E+02
 MRCHDU: Convergence failed at  76  side 2    Res =  0.2652E+02
 MRCHDU: Convergence failed at  77  side 2    Res =  0.2230E+02
 MRCHDU: Convergence failed at  78  side 2    Res =  0.1788E+02
 MRCHDU: Convergence failed at  79  side 2    Res =  0.1440E+02
 MRCHDU: Convergence failed at  80  side 2    Res =  0.1167E+02
 MRCHDU: Convergence failed at  81  side 2    Res =  0.9299E+01
 Side 1  free  transition at x/c =  0.7978   67
 Side 2  free  transition at x/c =  0.8048   67

   2   rms: 0.1857E+00   max: 0.9101E+00   T at   81  2
       a =  0.000      CL =  0.0592
      Cm = -0.0122     CD =  0.00780   =>   CDf =  0.00483    CDp =  0.00297

 Side 1  free  transition at x/c =  0.8018   67
 Side 2  free  transition at x/c =  0.7831   66

   3   rms: 0.6730E-01   max: -.3250E+00   D at   67  2
       a =  0.000      CL = -0.0017
      Cm =  0.0003     CD =  0.00845   =>   CDf =  0.00541    CDp =  0.00305

 Side 1  free  transition at x/c =  0.7979   67
 Side 2  free  transition at x/c =  0.8005   67

   4   rms: 0.5253E-02   max: -.4741E-01   D at   69  2
       a =  0.000      CL = -0.0001
      Cm =  0.0000     CD =  0.00847   =>   CDf =  0.00533    CDp =  0.00315

 Side 1  free  transition at x/c =  0.7981   67
 Side 2  free  transition at x/c =  0.7982   67

   5   rms: 0.3786E-03   max: -.4912E-02   D at   69  2
       a =  0.000      CL = -0.0000
      Cm =  0.0000     CD =  0.00847   =>   CDf =  0.00534    CDp =  0.00314

 Side 1  free  transition at x/c =  0.7981   67
 Side 2  free  transition at x/c =  0.7981   67

   6   rms: 0.2232E-05   max: -.3109E-04   D at   69  2
       a =  0.000      CL = -0.0000
      Cm =  0.0000     CD =  0.00847   =>   CDf =  0.00534    CDp =  0.00313
 plradd ia,ip,cpol            9           0  0.30003294    

 Point added to stored polar  1
 Point written to save file  n63012a_Re300k.base.pol                         
 Dump file unspecified or not available
 Calculating wake trajectory ...
 Calculating source influence matrix ...

 Solving BL system ...

 Side 1  free  transition at x/c =  0.7981   67
 Side 2  free  transition at x/c =  0.7981   67

   1   rms: 0.8725E-01   max: -.3382E+00   T at   67  2
       a =  0.500      CL =  0.0538
      Cm =  0.0010     CD =  0.00847   =>   CDf =  0.00534    CDp =  0.00313

 Side 1  free  transition at x/c =  0.7816   67
 Side 2  free  transition at x/c =  0.8123   67

   2   rms: 0.3958E-01   max: -.2703E+00   T at   68  2
       a =  0.500      CL =  0.0533
      Cm =  0.0008     CD =  0.00832   =>   CDf =  0.00542    CDp =  0.00290

 Side 1  free  transition at x/c =  0.7789   66
 Side 2  free  transition at x/c =  0.8201   67

   3   rms: 0.6963E-02   max: -.7285E-01   D at   67  2
       a =  0.500      CL =  0.0536
      Cm =  0.0008     CD =  0.00849   =>   CDf =  0.00533    CDp =  0.00315

 Side 1  free  transition at x/c =  0.7787   66
 Side 2  free  transition at x/c =  0.8179   67

   4   rms: 0.7309E-03   max: -.7731E-02   D at   68  2
       a =  0.500      CL =  0.0536
      Cm =  0.0008     CD =  0.00849   =>   CDf =  0.00533    CDp =  0.00316

 Side 1  free  transition at x/c =  0.7787   66
 Side 2  free  transition at x/c =  0.8181   67

   5   rms: 0.2525E-05   max: -.3768E-04   D at   70  2
       a =  0.500      CL =  0.0536
      Cm =  0.0008     CD =  0.00849   =>   CDf =  0.00533    CDp =  0.00316
 plradd ia,ip,cpol           10           0  0.30003294    

 Point added to stored polar  1
 Point written to save file  n63012a_Re300k.base.pol                         
 Dump file unspecified or not available
 Calculating wake trajectory ...
 Calculating source influence matrix ...

 Solving BL system ...

 Side 1  free  transition at x/c =  0.7787   66
 Side 2  free  transition at x/c =  0.8181   67

   1   rms: 0.8451E-01   max: -.3087E+00   T at   67  2
       a =  1.000      CL =  0.1066
      Cm =  0.0014     CD =  0.00846   =>   CDf =  0.00533    CDp =  0.00313

 Side 1  free  transition at x/c =  0.7546   65
 Side 2  free  transition at x/c =  0.8381   68

   2   rms: 0.2117E-01   max: -.2216E+00   D at   65  1
       a =  1.000      CL =  0.1070
      Cm =  0.0015     CD =  0.00849   =>   CDf =  0.00536    CDp =  0.00313

 Side 1  free  transition at x/c =  0.7599   65
 Side 2  free  transition at x/c =  0.8395   68

   3   rms: 0.2648E-02   max: 0.3407E-01   D at   66  1
       a =  1.000      CL =  0.1069
      Cm =  0.0015     CD =  0.00851   =>   CDf =  0.00529    CDp =  0.00323

 Side 1  free  transition at x/c =  0.7586   65
 Side 2  free  transition at x/c =  0.8396   68

   4   rms: 0.9143E-04   max: -.1009E-02   D at   66  1
       a =  1.000      CL =  0.1069
      Cm =  0.0015     CD =  0.00851   =>   CDf =  0.00529    CDp =  0.00322
 plradd ia,ip,cpol           11           0  0.19677673    

 Point added to stored polar  1
 Point written to save file  n63012a_Re300k.base.pol                         
 Dump file unspecified or not available
 Calculating wake trajectory ...
 Calculating source influence matrix ...

 Solving BL system ...

 Side 1  free  transition at x/c =  0.7586   65
 Side 2  free  transition at x/c =  0.8396   68

   1   rms: 0.8347E-01   max: -.3228E+00   T at   68  2
       a =  1.500      CL =  0.1597
      Cm =  0.0021     CD =  0.00855   =>   CDf =  0.00527    CDp =  0.00329

 MRCHDU: Convergence failed at  70  side 2    Res =  0.6747E+01
 MRCHDU: Convergence failed at  71  side 2    Res =  0.2575E+01
 MRCHDU: Convergence failed at  72  side 2    Res =  0.1486E+01
 MRCHDU: Convergence failed at  73  side 2    Res =  0.1864E+01
 MRCHDU: Convergence failed at  74  side 2    Res =  0.2301E+01
 MRCHDU: Convergence failed at  75  side 2    Res =  0.2712E+01
 MRCHDU: Convergence failed at  76  side 2    Res =  0.3046E+01
 MRCHDU: Convergence failed at  77  side 2    Res =  0.3262E+01
 MRCHDU: Convergence failed at  78  side 2    Res =  0.3355E+01
 MRCHDU: Convergence failed at  79  side 2    Res =  0.3379E+01
 Side 1  free  transition at x/c =  0.7380   65
 Side 2  free  transition at x/c =  0.8694   69

   2   rms: 0.1290E+00   max: 0.1095E+01   C at   69  2
       a =  1.500      CL =  0.1921
      Cm = -0.0051     CD =  0.00801   =>   CDf =  0.00506    CDp =  0.00296

 Side 1  free  transition at x/c =  0.7396   65
 Side 2  free  transition at x/c =  0.8617   69

   3   rms: 0.3218E-01   max: -.2486E+00   D at   73  2
       a =  1.500      CL =  0.1609
      Cm =  0.0022     CD =  0.00854   =>   CDf =  0.00517    CDp =  0.00337

 Side 1  free  transition at x/c =  0.7391   65
 Side 2  free  transition at x/c =  0.8611   69

   4   rms: 0.2511E-02   max: -.3547E-01   D at   73  2
       a =  1.500      CL =  0.1604
      Cm =  0.0023     CD =  0.00855   =>   CDf =  0.00522    CDp =  0.00333

 Side 1  free  transition at x/c =  0.7391   65
 Side 2  free  transition at x/c =  0.8604   69

   5   rms: 0.5131E-04   max: -.7905E-03   D at   73  2
       a =  1.500      CL =  0.1604
      Cm =  0.0023     CD =  0.00855   =>   CDf =  0.00523    CDp =  0.00332
 plradd ia,ip,cpol           12           0  3.63183916E-02

 Point added to stored polar  1
 Point written to save file  n63012a_Re300k.base.pol                         
 Dump file unspecified or not available
 Calculating wake trajectory ...
 Calculating source influence matrix ...

 Solving BL system ...

 Side 1  free  transition at x/c =  0.7391   65
 Side 2  free  transition at x/c =  0.8604   69

   1   rms: 0.8633E-01   max: -.3069E+00   T at   69  2
       a =  2.000      CL =  0.2140
      Cm =  0.0033     CD =  0.00859   =>   CDf =  0.00519    CDp =  0.00340

 Side 1  free  transition at x/c =  0.7172   64
 Side 2  free  transition at x/c =  0.8779   69

   2   rms: 0.2772E-01   max: -.3115E+00   D at   65  1
       a =  2.000      CL =  0.2132
      Cm =  0.0034     CD =  0.00860   =>   CDf =  0.00521    CDp =  0.00339

 Side 1  free  transition at x/c =  0.7189   64
 Side 2  free  transition at x/c =  0.8832   69

   3   rms: 0.1722E-02   max: -.1381E-01   D at   67  1
       a =  2.000      CL =  0.2133
      Cm =  0.0034     CD =  0.00862   =>   CDf =  0.00519    CDp =  0.00343

 Side 1  free  transition at x/c =  0.7183   64
 Side 2  free  transition at x/c =  0.8828   69

   4   rms: 0.2874E-04   max: -.2849E-03   D at   65  1
       a =  2.000      CL =  0.2133
      Cm =  0.0034     CD =  0.00862   =>   CDf =  0.00519    CDp =  0.00343
 plradd ia,ip,cpol           13           0  1.64029803E-02

 Point added to stored polar  1
 Point written to save file  n63012a_Re300k.base.pol                         
 Dump file unspecified or not available
 Calculating wake trajectory ...
 Calculating source influence matrix ...

 Solving BL system ...

 Side 1  free  transition at x/c =  0.7183   64
 Side 2  free  transition at x/c =  0.8828   69

   1   rms: 0.8725E-01   max: 0.4592E+00   T at   64  1
       a =  2.500      CL =  0.2639
      Cm =  0.0045     CD =  0.00855   =>   CDf =  0.00519    CDp =  0.00336

 Side 1  free  transition at x/c =  0.6821   62
 Side 2  free  transition at x/c =  0.9106   71

   2   rms: 0.4043E-01   max: -.4326E+00   D at   63  1
       a =  2.500      CL =  0.2644
      Cm =  0.0049     CD =  0.00869   =>   CDf =  0.00519    CDp =  0.00350

 Side 1  free  transition at x/c =  0.6932   63
 Side 2  free  transition at x/c =  0.9072   71

   3   rms: 0.7957E-02   max: 0.8064E-01   D at   63  1
       a =  2.500      CL =  0.2659
      Cm =  0.0046     CD =  0.00865   =>   CDf =  0.00510    CDp =  0.00354

 Side 1  free  transition at x/c =  0.6912   63
 Side 2  free  transition at x/c =  0.9056   71

   4   rms: 0.6508E-03   max: -.5980E-02   D at   66  1
       a =  2.500      CL =  0.2660
      Cm =  0.0045     CD =  0.00865   =>   CDf =  0.00513    CDp =  0.00352

 Side 1  free  transition at x/c =  0.6910   63
 Side 2  free  transition at x/c =  0.9055   71

   5   rms: 0.5536E-05   max: -.6453E-04   D at   65  1
       a =  2.500      CL =  0.2660
      Cm =  0.0045     CD =  0.00865   =>   CDf =  0.00513    CDp =  0.00352
 plradd ia,ip,cpol           14           0  6.69342559E-03

 Point added to stored polar  1
 Point written to save file  n63012a_Re300k.base.pol                         
 Dump file unspecified or not available
 Calculating wake trajectory ...
 Calculating source influence matrix ...

 Solving BL system ...

 Side 1  free  transition at x/c =  0.6910   63
 Side 2  free  transition at x/c =  0.9055   71

   1   rms: 0.9767E-01   max: -.2777E+00   T at   71  2
       a =  3.000      CL =  0.3212
      Cm =  0.0055     CD =  0.00876   =>   CDf =  0.00508    CDp =  0.00368

 Side 1  free  transition at x/c =  0.6554   61
 Side 2  free  transition at x/c =  0.9233   71

   2   rms: 0.3155E-01   max: 0.4913E+00   D at   63  1
       a =  3.000      CL =  0.3183
      Cm =  0.0058     CD =  0.00884   =>   CDf =  0.00517    CDp =  0.00367

 Side 1  free  transition at x/c =  0.6564   61
 Side 2  free  transition at x/c =  0.9292   71

   3   rms: 0.4713E-02   max: 0.6932E-01   D at   64  1
       a =  3.000      CL =  0.3203
      Cm =  0.0055     CD =  0.00872   =>   CDf =  0.00513    CDp =  0.00359

 Side 1  free  transition at x/c =  0.6567   61
 Side 2  free  transition at x/c =  0.9285   71

   4   rms: 0.1379E-03   max: -.2553E-02   D at   64  1
       a =  3.000      CL =  0.3203
      Cm =  0.0055     CD =  0.00872   =>   CDf =  0.00512    CDp =  0.00360

 Side 1  free  transition at x/c =  0.6567   61
 Side 2  free  transition at x/c =  0.9286   71

   5   rms: 0.7185E-06   max: 0.3638E-05   C at   61  1
       a =  3.000      CL =  0.3203
      Cm =  0.0055     CD =  0.00872   =>   CDf =  0.00512    CDp =  0.00360
 plradd ia,ip,cpol           15           0  6.69342559E-03

 Point added to stored polar  1
 Point written to save file  n63012a_Re300k.base.pol                         
 Dump file unspecified or not available
 Calculating wake trajectory ...
 Calculating source influence matrix ...

 Solving BL system ...

 Side 1  free  transition at x/c =  0.6567   61
 Side 2  free  transition at x/c =  0.9286   71

   1   rms: 0.9412E-01   max: 0.5105E+00   T at   61  1
       a =  3.500      CL =  0.3714
      Cm =  0.0067     CD =  0.00864   =>   CDf =  0.00506    CDp =  0.00358

 Side 1  free  transition at x/c =  0.6061   59
 Side 2  free  transition at x/c =  0.9585   72

   2   rms: 0.5430E-01   max: 0.6278E+00   D at    2  1
       a =  3.500      CL =  0.3888
      Cm =  0.0032     CD =  0.00898   =>   CDf =  0.00530    CDp =  0.00368

 Side 1  free  transition at x/c =  0.6128   59
 Side 2  free  transition at x/c =  0.9413   71

   3   rms: 0.2453E-01   max: -.1787E+00   D at   73  2
       a =  3.500      CL =  0.3741
      Cm =  0.0064     CD =  0.00885   =>   CDf =  0.00517    CDp =  0.00368

 Side 1  free  transition at x/c =  0.6168   60
 Side 2  free  transition at x/c =  0.9546   72

   4   rms: 0.1733E-01   max: 0.1262E+00   C at   72  2
       a =  3.500      CL =  0.3796
      Cm =  0.0052     CD =  0.00883   =>   CDf =  0.00512    CDp =  0.00371

 Side 1  free  transition at x/c =  0.6144   60
 Side 2  free  transition at x/c =  0.9496   72

   5   rms: 0.1123E-02   max: -.8063E-02   D at   76  2
       a =  3.500      CL =  0.3803
      Cm =  0.0050     CD =  0.00885   =>   CDf =  0.00513    CDp =  0.00372

 Side 1  free  transition at x/c =  0.6142   60
 Side 2  free  transition at x/c =  0.9492   72

   6   rms: 0.2973E-04   max: -.2869E-03   D at   73  2
       a =  3.500      CL =  0.3803
      Cm =  0.0050     CD =  0.00885   =>   CDf =  0.00513    CDp =  0.00372
 plradd ia,ip,cpol           16           0  4.61840164E-03

 Point added to stored polar  1
 Point written to save file  n63012a_Re300k.base.pol                         
 Dump file unspecified or not available
 Calculating wake trajectory ...
 Calculating source influence matrix ...

 Solving BL system ...

 Side 1  free  transition at x/c =  0.6142   60
 Side 2  free  transition at x/c =  0.9492   72

   1   rms: 0.1182E+00   max: -.6362E+00   D at   61  1   RLX: 0.786
       a =  4.000      CL =  0.4347
      Cm =  0.0031     CD =  0.00909   =>   CDf =  0.00513    CDp =  0.00396

 Side 1  free  transition at x/c =  0.5724   57
 Side 2  free  transition at x/c =  0.9590   72

   2   rms: 0.3765E-01   max: 0.2942E+00   D at   59  1
       a =  4.000      CL =  0.4338
      Cm =  0.0057     CD =  0.00906   =>   CDf =  0.00516    CDp =  0.00390

 MRCHDU: Convergence failed at  76  side 2    Res =  0.1151E+01
 Side 1  free  transition at x/c =  0.5655   56
 Side 2  free  transition at x/c =  0.9807   74

   3   rms: 0.5544E-01   max: 0.6094E+00   C at   74  2
       a =  4.000      CL =  0.4410
      Cm =  0.0042     CD =  0.00887   =>   CDf =  0.00518    CDp =  0.00369

 Side 1  free  transition at x/c =  0.5622   56
 Side 2  free  transition at x/c =  0.9722   73

   4   rms: 0.1884E-01   max: 0.1379E+00   T at   73  2
       a =  4.000      CL =  0.4529
      Cm =  0.0016     CD =  0.00907   =>   CDf =  0.00517    CDp =  0.00390

 Side 1  free  transition at x/c =  0.5571   56
 Side 2  free  transition at x/c =  0.9618   73

   5   rms: 0.1487E-01   max: -.1145E+00   D at   75  2
       a =  4.000      CL =  0.4493
      Cm =  0.0024     CD =  0.00907   =>   CDf =  0.00518    CDp =  0.00389

 Side 1  free  transition at x/c =  0.5590   56
 Side 2  free  transition at x/c =  0.9652   73

   6   rms: 0.1325E-02   max: -.1234E-01   D at   74  2
       a =  4.000      CL =  0.4492
      Cm =  0.0024     CD =  0.00908   =>   CDf =  0.00517    CDp =  0.00391

 Side 1  free  transition at x/c =  0.5590   56
 Side 2  free  transition at x/c =  0.9654   73

   7   rms: 0.1461E-04   max: 0.9101E-04   D at   76  2
       a =  4.000      CL =  0.4492
      Cm =  0.0024     CD =  0.00908   =>   CDf =  0.00517    CDp =  0.00391
 plradd ia,ip,cpol           17           0  4.61840164E-03

 Point added to stored polar  1
 Point written to save file  n63012a_Re300k.base.pol                         
 Dump file unspecified or not available
 Calculating wake trajectory ...
 Calculating source influence matrix ...

 Solving BL system ...

 Side 1  free  transition at x/c =  0.5590   56
 Side 2  free  transition at x/c =  0.9654   73

   1   rms: 0.1239E+00   max: 0.8231E+00   C at   56  1   RLX: 0.815
       a =  4.500      CL =  0.5094
      Cm = -0.0007     CD =  0.00936   =>   CDf =  0.00509    CDp =  0.00427

 Side 1  free  transition at x/c =  0.4609   50
 Side 2  free  transition at x/c =  0.9749   73

   2   rms: 0.3871E-01   max: -.3010E+00   D at   51  1
       a =  4.500      CL =  0.5230
      Cm = -0.0016     CD =  0.00953   =>   CDf =  0.00550    CDp =  0.00403

 Side 1  free  transition at x/c =  0.4315   48
 Side 2  free  transition at x/c =  0.9783   73

   3   rms: 0.7980E-02   max: -.1219E+00   C at   48  1
       a =  4.500      CL =  0.5215
      Cm = -0.0014     CD =  0.00971   =>   CDf =  0.00557    CDp =  0.00414

 Side 1  free  transition at x/c =  0.4374   49
 Side 2  free  transition at x/c =  0.9787   73

   4   rms: 0.1714E-02   max: 0.2863E-01   C at   49  1
       a =  4.500      CL =  0.5216
      Cm = -0.0015     CD =  0.00970   =>   CDf =  0.00553    CDp =  0.00417

 Side 1  free  transition at x/c =  0.4366   49
 Side 2  free  transition at x/c =  0.9786   73

   5   rms: 0.1366E-04   max: -.1984E-03   C at   49  1
       a =  4.500      CL =  0.5216
      Cm = -0.0015     CD =  0.00970   =>   CDf =  0.00553    CDp =  0.00417
 plradd ia,ip,cpol           18           0  4.61840164E-03

 Point added to stored polar  1
 Point written to save file  n63012a_Re300k.base.pol                         
 Dump file unspecified or not available
 Calculating wake trajectory ...
 Calculating source influence matrix ...

 Solving BL system ...

 Side 1  free  transition at x/c =  0.4366   49
 Side 2  free  transition at x/c =  0.9786   73

   1   rms: 0.2993E+00   max: 0.4865E+01   C at   49  1   RLX: 0.296
       a =  5.000      CL =  0.5417
      Cm = -0.0026     CD =  0.01018   =>   CDf =  0.00553    CDp =  0.00465

 Side 1  free  transition at x/c =  0.3358   42
 Side 2  free  transition at x/c =  0.9823   73

   2   rms: 0.2516E+00   max: 0.4557E+01   C at   42  1   RLX: 0.329
       a =  5.000      CL =  0.5541
      Cm = -0.0030     CD =  0.01093   =>   CDf =  0.00599    CDp =  0.00493

 Side 1  free  transition at x/c =  0.2473   36
 Side 2  free  transition at x/c =  0.9870   74

   3   rms: 0.2026E+00   max: 0.3856E+01   C at   36  1   RLX: 0.389
       a =  5.000      CL =  0.5660
      Cm = -0.0041     CD =  0.01155   =>   CDf =  0.00643    CDp =  0.00513

 Side 1  free  transition at x/c =  0.1861   32
 Side 2  free  transition at x/c =  0.9887   74

   4   rms: 0.1218E+00   max: 0.2310E+01   C at   32  1   RLX: 0.649
       a =  5.000      CL =  0.5782
      Cm = -0.0052     CD =  0.01221   =>   CDf =  0.00674    CDp =  0.00547

 Side 1  free  transition at x/c =  0.1376   28
 Side 2  free  transition at x/c =  0.9908   74

   5   rms: 0.2988E-01   max: 0.4752E+00   C at   28  1
       a =  5.000      CL =  0.5855
      Cm = -0.0057     CD =  0.01236   =>   CDf =  0.00701    CDp =  0.00535

 Side 1  free  transition at x/c =  0.1102   26
 Side 2  free  transition at x/c =  0.9922   74

   6   rms: 0.5488E-02   max: -.1078E+00   C at   26  1
       a =  5.000      CL =  0.5845
      Cm = -0.0056     CD =  0.01250   =>   CDf =  0.00718    CDp =  0.00532

 Side 1  free  transition at x/c =  0.1093   26
 Side 2  free  transition at x/c =  0.9924   74

   7   rms: 0.8910E-02   max: -.1905E+00   C at   26  1
       a =  5.000      CL =  0.5845
      Cm = -0.0056     CD =  0.01250   =>   CDf =  0.00719    CDp =  0.00531

 Side 1  free  transition at x/c =  0.1095   26
 Side 2  free  transition at x/c =  0.9924   74

   8   rms: 0.8738E-02   max: -.1874E+00   C at   26  1
       a =  5.000      CL =  0.5845
      Cm = -0.0056     CD =  0.01250   =>   CDf =  0.00719    CDp =  0.00531

 Side 1  free  transition at x/c =  0.1095   26
 Side 2  free  transition at x/c =  0.9924   74

   9   rms: 0.8777E-02   max: -.1882E+00   C at   26  1
       a =  5.000      CL =  0.5845
      Cm = -0.0056     CD =  0.01250   =>   CDf =  0.00719    CDp =  0.00531

 Side 1  free  transition at x/c =  0.1095   26
 Side 2  free  transition at x/c =  0.9924   74

  10   rms: 0.8770E-02   max: -.1880E+00   C at   26  1
       a =  5.000      CL =  0.5845
      Cm = -0.0056     CD =  0.01250   =>   CDf =  0.00719    CDp =  0.00531

 Side 1  free  transition at x/c =  0.1095   26
 Side 2  free  transition at x/c =  0.9924   74

  11   rms: 0.8771E-02   max: -.1881E+00   C at   26  1
       a =  5.000      CL =  0.5845
      Cm = -0.0056     CD =  0.01250   =>   CDf =  0.00719    CDp =  0.00531

 Side 1  free  transition at x/c =  0.1095   26
 Side 2  free  transition at x/c =  0.9924   74

  12   rms: 0.8771E-02   max: -.1881E+00   C at   26  1
       a =  5.000      CL =  0.5845
      Cm = -0.0056     CD =  0.01250   =>   CDf =  0.00719    CDp =  0.00531

 Side 1  free  transition at x/c =  0.1095   26
 Side 2  free  transition at x/c =  0.9924   74

  13   rms: 0.8771E-02   max: -.1881E+00   C at   26  1
       a =  5.000      CL =  0.5845
      Cm = -0.0056     CD =  0.01250   =>   CDf =  0.00719    CDp =  0.00531

 Side 1  free  transition at x/c =  0.1095   26
 Side 2  free  transition at x/c =  0.9924   74

  14   rms: 0.8771E-02   max: -.1881E+00   C at   26  1
       a =  5.000      CL =  0.5845
      Cm = -0.0056     CD =  0.01250   =>   CDf =  0.00719    CDp =  0.00531

 Side 1  free  transition at x/c =  0.1095   26
 Side 2  free  transition at x/c =  0.9924   74

  15   rms: 0.8771E-02   max: -.1881E+00   C at   26  1
       a =  5.000      CL =  0.5845
      Cm = -0.0056     CD =  0.01250   =>   CDf =  0.00719    CDp =  0.00531

 Side 1  free  transition at x/c =  0.1095   26
 Side 2  free  transition at x/c =  0.9924   74

  16   rms: 0.8771E-02   max: -.1881E+00   C at   26  1
       a =  5.000      CL =  0.5845
      Cm = -0.0056     CD =  0.01250   =>   CDf =  0.00719    CDp =  0.00531

 Side 1  free  transition at x/c =  0.1095   26
 Side 2  free  transition at x/c =  0.9924   74

  17   rms: 0.8771E-02   max: -.1881E+00   C at   26  1
       a =  5.000      CL =  0.5845
      Cm = -0.0056     CD =  0.01250   =>   CDf =  0.00719    CDp =  0.00531

 Side 1  free  transition at x/c =  0.1095   26
 Side 2  free  transition at x/c =  0.9924   74

  18   rms: 0.8771E-02   max: -.1881E+00   C at   26  1
       a =  5.000      CL =  0.5845
      Cm = -0.0056     CD =  0.01250   =>   CDf =  0.00719    CDp =  0.00531

 Side 1  free  transition at x/c =  0.1095   26
 Side 2  free  transition at x/c =  0.9924   74

  19   rms: 0.8771E-02   max: -.1881E+00   C at   26  1
       a =  5.000      CL =  0.5845
      Cm = -0.0056     CD =  0.01250   =>   CDf =  0.00719    CDp =  0.00531

 Side 1  free  transition at x/c =  0.1095   26
 Side 2  free  transition at x/c =  0.9924   74

  20   rms: 0.8771E-02   max: -.1881E+00   C at   26  1
       a =  5.000      CL =  0.5845
      Cm = -0.0056     CD =  0.01250   =>   CDf =  0.00719    CDp =  0.00531

 Side 1  free  transition at x/c =  0.1095   26
 Side 2  free  transition at x/c =  0.9924   74

  21   rms: 0.8771E-02   max: -.1881E+00   C at   26  1
       a =  5.000      CL =  0.5845
      Cm = -0.0056     CD =  0.01250   =>   CDf =  0.00719    CDp =  0.00531

 Side 1  free  transition at x/c =  0.1095   26
 Side 2  free  transition at x/c =  0.9924   74

  22   rms: 0.8771E-02   max: -.1881E+00   C at   26  1
       a =  5.000      CL =  0.5845
      Cm = -0.0056     CD =  0.01250   =>   CDf =  0.00719    CDp =  0.00531

 Side 1  free  transition at x/c =  0.1095   26
 Side 2  free  transition at x/c =  0.9924   74

  23   rms: 0.8771E-02   max: -.1881E+00   C at   26  1
       a =  5.000      CL =  0.5845
      Cm = -0.0056     CD =  0.01250   =>   CDf =  0.00719    CDp =  0.00531

 Side 1  free  transition at x/c =  0.1095   26
 Side 2  free  transition at x/c =  0.9924   74

  24   rms: 0.8771E-02   max: -.1881E+00   C at   26  1
       a =  5.000      CL =  0.5845
      Cm = -0.0056     CD =  0.01250   =>   CDf =  0.00719    CDp =  0.00531

 Side 1  free  transition at x/c =  0.1095   26
 Side 2  free  transition at x/c =  0.9924   74

  25   rms: 0.8771E-02   max: -.1881E+00   C at   26  1
       a =  5.000      CL =  0.5845
      Cm = -0.0056     CD =  0.01250   =>   CDf =  0.00719    CDp =  0.00531

 Side 1  free  transition at x/c =  0.1095   26
 Side 2  free  transition at x/c =  0.9924   74

  26   rms: 0.8771E-02   max: -.1881E+00   C at   26  1
       a =  5.000      CL =  0.5845
      Cm = -0.0056     CD =  0.01250   =>   CDf =  0.00719    CDp =  0.00531

 Side 1  free  transition at x/c =  0.1095   26
 Side 2  free  transition at x/c =  0.9924   74

  27   rms: 0.8771E-02   max: -.1881E+00   C at   26  1
       a =  5.000      CL =  0.5845
      Cm = -0.0056     CD =  0.01250   =>   CDf =  0.00719    CDp =  0.00531

 Side 1  free  transition at x/c =  0.1095   26
 Side 2  free  transition at x/c =  0.9924   74

  28   rms: 0.8771E-02   max: -.1881E+00   C at   26  1
       a =  5.000      CL =  0.5845
      Cm = -0.0056     CD =  0.01250   =>   CDf =  0.00719    CDp =  0.00531

 Side 1  free  transition at x/c =  0.1095   26
 Side 2  free  transition at x/c =  0.9924   74

  29   rms: 0.8771E-02   max: -.1881E+00   C at   26  1
       a =  5.000      CL =  0.5845
      Cm = -0.0056     CD =  0.01250   =>   CDf =  0.00719    CDp =  0.00531

 Side 1  free  transition at x/c =  0.1095   26
 Side 2  free  transition at x/c =  0.9924   74

  30   rms: 0.8771E-02   max: -.1881E+00   C at   26  1
       a =  5.000      CL =  0.5845
      Cm = -0.0056     CD =  0.01250   =>   CDf =  0.00719    CDp =  0.00531

 Side 1  free  transition at x/c =  0.1095   26
 Side 2  free  transition at x/c =  0.9924   74

  31   rms: 0.8771E-02   max: -.1881E+00   C at   26  1
       a =  5.000      CL =  0.5845
      Cm = -0.0056     CD =  0.01250   =>   CDf =  0.00719    CDp =  0.00531

 Side 1  free  transition at x/c =  0.1095   26
 Side 2  free  transition at x/c =  0.9924   74

  32   rms: 0.8771E-02   max: -.1881E+00   C at   26  1
       a =  5.000      CL =  0.5845
      Cm = -0.0056     CD =  0.01250   =>   CDf =  0.00719    CDp =  0.00531

 Side 1  free  transition at x/c =  0.1095   26
 Side 2  free  transition at x/c =  0.9924   74

  33   rms: 0.8771E-02   max: -.1881E+00   C at   26  1
       a =  5.000      CL =  0.5845
      Cm = -0.0056     CD =  0.01250   =>   CDf =  0.00719    CDp =  0.00531

 Side 1  free  transition at x/c =  0.1095   26
 Side 2  free  transition at x/c =  0.9924   74

  34   rms: 0.8771E-02   max: -.1881E+00   C at   26  1
       a =  5.000      CL =  0.5845
      Cm = -0.0056     CD =  0.01250   =>   CDf =  0.00719    CDp =  0.00531

 Side 1  free  transition at x/c =  0.1095   26
 Side 2  free  transition at x/c =  0.9924   74

  35   rms: 0.8771E-02   max: -.1881E+00   C at   26  1
       a =  5.000      CL =  0.5845
      Cm = -0.0056     CD =  0.01250   =>   CDf =  0.00719    CDp =  0.00531

 Side 1  free  transition at x/c =  0.1095   26
 Side 2  free  transition at x/c =  0.9924   74

  36   rms: 0.8771E-02   max: -.1881E+00   C at   26  1
       a =  5.000      CL =  0.5845
      Cm = -0.0056     CD =  0.01250   =>   CDf =  0.00719    CDp =  0.00531

 Side 1  free  transition at x/c =  0.1095   26
 Side 2  free  transition at x/c =  0.9924   74

  37   rms: 0.8771E-02   max: -.1881E+00   C at   26  1
       a =  5.000      CL =  0.5845
      Cm = -0.0056     CD =  0.01250   =>   CDf =  0.00719    CDp =  0.00531

 Side 1  free  transition at x/c =  0.1095   26
 Side 2  free  transition at x/c =  0.9924   74

  38   rms: 0.8771E-02   max: -.1881E+00   C at   26  1
       a =  5.000      CL =  0.5845
      Cm = -0.0056     CD =  0.01250   =>   CDf =  0.00719    CDp =  0.00531

 Side 1  free  transition at x/c =  0.1095   26
 Side 2  free  transition at x/c =  0.9924   74

  39   rms: 0.8771E-02   max: -.1881E+00   C at   26  1
       a =  5.000      CL =  0.5845
      Cm = -0.0056     CD =  0.01250   =>   CDf =  0.00719    CDp =  0.00531

 Side 1  free  transition at x/c =  0.1095   26
 Side 2  free  transition at x/c =  0.9924   74

  40   rms: 0.8771E-02   max: -.1881E+00   C at   26  1
       a =  5.000      CL =  0.5845
      Cm = -0.0056     CD =  0.01250   =>   CDf =  0.00719    CDp =  0.00531

 Side 1  free  transition at x/c =  0.1095   26
 Side 2  free  transition at x/c =  0.9924   74

  41   rms: 0.8771E-02   max: -.1881E+00   C at   26  1
       a =  5.000      CL =  0.5845
      Cm = -0.0056     CD =  0.01250   =>   CDf =  0.00719    CDp =  0.00531

 Side 1  free  transition at x/c =  0.1095   26
 Side 2  free  transition at x/c =  0.9924   74

  42   rms: 0.8771E-02   max: -.1881E+00   C at   26  1
       a =  5.000      CL =  0.5845
      Cm = -0.0056     CD =  0.01250   =>   CDf =  0.00719    CDp =  0.00531

 Side 1  free  transition at x/c =  0.1095   26
 Side 2  free  transition at x/c =  0.9924   74

  43   rms: 0.8771E-02   max: -.1881E+00   C at   26  1
       a =  5.000      CL =  0.5845
      Cm = -0.0056     CD =  0.01250   =>   CDf =  0.00719    CDp =  0.00531

 Side 1  free  transition at x/c =  0.1095   26
 Side 2  free  transition at x/c =  0.9924   74

  44   rms: 0.8771E-02   max: -.1881E+00   C at   26  1
       a =  5.000      CL =  0.5845
      Cm = -0.0056     CD =  0.01250   =>   CDf =  0.00719    CDp =  0.00531

 Side 1  free  transition at x/c =  0.1095   26
 Side 2  free  transition at x/c =  0.9924   74

  45   rms: 0.8771E-02   max: -.1881E+00   C at   26  1
       a =  5.000      CL =  0.5845
      Cm = -0.0056     CD =  0.01250   =>   CDf =  0.00719    CDp =  0.00531

 Side 1  free  transition at x/c =  0.1095   26
 Side 2  free  transition at x/c =  0.9924   74

  46   rms: 0.8771E-02   max: -.1881E+00   C at   26  1
       a =  5.000      CL =  0.5845
      Cm = -0.0056     CD =  0.01250   =>   CDf =  0.00719    CDp =  0.00531

 Side 1  free  transition at x/c =  0.1095   26
 Side 2  free  transition at x/c =  0.9924   74

  47   rms: 0.8771E-02   max: -.1881E+00   C at   26  1
       a =  5.000      CL =  0.5845
      Cm = -0.0056     CD =  0.01250   =>   CDf =  0.00719    CDp =  0.00531

 Side 1  free  transition at x/c =  0.1095   26
 Side 2  free  transition at x/c =  0.9924   74

  48   rms: 0.8771E-02   max: -.1881E+00   C at   26  1
       a =  5.000      CL =  0.5845
      Cm = -0.0056     CD =  0.01250   =>   CDf =  0.00719    CDp =  0.00531

 Side 1  free  transition at x/c =  0.1095   26
 Side 2  free  transition at x/c =  0.9924   74

  49   rms: 0.8771E-02   max: -.1881E+00   C at   26  1
       a =  5.000      CL =  0.5845
      Cm = -0.0056     CD =  0.01250   =>   CDf =  0.00719    CDp =  0.00531

 Side 1  free  transition at x/c =  0.1095   26
 Side 2  free  transition at x/c =  0.9924   74

  50   rms: 0.8771E-02   max: -.1881E+00   C at   26  1
       a =  5.000      CL =  0.5845
      Cm = -0.0056     CD =  0.01250   =>   CDf =  0.00719    CDp =  0.00531

 Side 1  free  transition at x/c =  0.1095   26
 Side 2  free  transition at x/c =  0.9924   74

  51   rms: 0.8771E-02   max: -.1881E+00   C at   26  1
       a =  5.000      CL =  0.5845
      Cm = -0.0056     CD =  0.01250   =>   CDf =  0.00719    CDp =  0.00531

 Side 1  free  transition at x/c =  0.1095   26
 Side 2  free  transition at x/c =  0.9924   74

  52   rms: 0.8771E-02   max: -.1881E+00   C at   26  1
       a =  5.000      CL =  0.5845
      Cm = -0.0056     CD =  0.01250   =>   CDf =  0.00719    CDp =  0.00531

 Side 1  free  transition at x/c =  0.1095   26
 Side 2  free  transition at x/c =  0.9924   74

  53   rms: 0.8771E-02   max: -.1881E+00   C at   26  1
       a =  5.000      CL =  0.5845
      Cm = -0.0056     CD =  0.01250   =>   CDf =  0.00719    CDp =  0.00531

 Side 1  free  transition at x/c =  0.1095   26
 Side 2  free  transition at x/c =  0.9924   74

  54   rms: 0.8771E-02   max: -.1881E+00   C at   26  1
       a =  5.000      CL =  0.5845
      Cm = -0.0056     CD =  0.01250   =>   CDf =  0.00719    CDp =  0.00531

 Side 1  free  transition at x/c =  0.1095   26
 Side 2  free  transition at x/c =  0.9924   74

  55   rms: 0.8771E-02   max: -.1881E+00   C at   26  1
       a =  5.000      CL =  0.5845
      Cm = -0.0056     CD =  0.01250   =>   CDf =  0.00719    CDp =  0.00531

 Side 1  free  transition at x/c =  0.1095   26
 Side 2  free  transition at x/c =  0.9924   74

  56   rms: 0.8771E-02   max: -.1881E+00   C at   26  1
       a =  5.000      CL =  0.5845
      Cm = -0.0056     CD =  0.01250   =>   CDf =  0.00719    CDp =  0.00531

 Side 1  free  transition at x/c =  0.1095   26
 Side 2  free  transition at x/c =  0.9924   74

  57   rms: 0.8771E-02   max: -.1881E+00   C at   26  1
       a =  5.000      CL =  0.5845
      Cm = -0.0056     CD =  0.01250   =>   CDf =  0.00719    CDp =  0.00531

 Side 1  free  transition at x/c =  0.1095   26
 Side 2  free  transition at x/c =  0.9924   74

  58   rms: 0.8771E-02   max: -.1881E+00   C at   26  1
       a =  5.000      CL =  0.5845
      Cm = -0.0056     CD =  0.01250   =>   CDf =  0.00719    CDp =  0.00531

 Side 1  free  transition at x/c =  0.1095   26
 Side 2  free  transition at x/c =  0.9924   74

  59   rms: 0.8771E-02   max: -.1881E+00   C at   26  1
       a =  5.000      CL =  0.5845
      Cm = -0.0056     CD =  0.01250   =>   CDf =  0.00719    CDp =  0.00531

 Side 1  free  transition at x/c =  0.1095   26
 Side 2  free  transition at x/c =  0.9924   74

  60   rms: 0.8771E-02   max: -.1881E+00   C at   26  1
       a =  5.000      CL =  0.5845
      Cm = -0.0056     CD =  0.01250   =>   CDf =  0.00719    CDp =  0.00531

 Side 1  free  transition at x/c =  0.1095   26
 Side 2  free  transition at x/c =  0.9924   74

  61   rms: 0.8771E-02   max: -.1881E+00   C at   26  1
       a =  5.000      CL =  0.5845
      Cm = -0.0056     CD =  0.01250   =>   CDf =  0.00719    CDp =  0.00531

 Side 1  free  transition at x/c =  0.1095   26
 Side 2  free  transition at x/c =  0.9924   74

  62   rms: 0.8771E-02   max: -.1881E+00   C at   26  1
       a =  5.000      CL =  0.5845
      Cm = -0.0056     CD =  0.01250   =>   CDf =  0.00719    CDp =  0.00531

 Side 1  free  transition at x/c =  0.1095   26
 Side 2  free  transition at x/c =  0.9924   74

  63   rms: 0.8771E-02   max: -.1881E+00   C at   26  1
       a =  5.000      CL =  0.5845
      Cm = -0.0056     CD =  0.01250   =>   CDf =  0.00719    CDp =  0.00531

 Side 1  free  transition at x/c =  0.1095   26
 Side 2  free  transition at x/c =  0.9924   74

  64   rms: 0.8771E-02   max: -.1881E+00   C at   26  1
       a =  5.000      CL =  0.5845
      Cm = -0.0056     CD =  0.01250   =>   CDf =  0.00719    CDp =  0.00531

 Side 1  free  transition at x/c =  0.1095   26
 Side 2  free  transition at x/c =  0.9924   74

  65   rms: 0.8771E-02   max: -.1881E+00   C at   26  1
       a =  5.000      CL =  0.5845
      Cm = -0.0056     CD =  0.01250   =>   CDf =  0.00719    CDp =  0.00531

 Side 1  free  transition at x/c =  0.1095   26
 Side 2  free  transition at x/c =  0.9924   74

  66   rms: 0.8771E-02   max: -.1881E+00   C at   26  1
       a =  5.000      CL =  0.5845
      Cm = -0.0056     CD =  0.01250   =>   CDf =  0.00719    CDp =  0.00531

 Side 1  free  transition at x/c =  0.1095   26
 Side 2  free  transition at x/c =  0.9924   74

  67   rms: 0.8771E-02   max: -.1881E+00   C at   26  1
       a =  5.000      CL =  0.5845
      Cm = -0.0056     CD =  0.01250   =>   CDf =  0.00719    CDp =  0.00531

 Side 1  free  transition at x/c =  0.1095   26
 Side 2  free  transition at x/c =  0.9924   74

  68   rms: 0.8771E-02   max: -.1881E+00   C at   26  1
       a =  5.000      CL =  0.5845
      Cm = -0.0056     CD =  0.01250   =>   CDf =  0.00719    CDp =  0.00531

 Side 1  free  transition at x/c =  0.1095   26
 Side 2  free  transition at x/c =  0.9924   74

  69   rms: 0.8771E-02   max: -.1881E+00   C at   26  1
       a =  5.000      CL =  0.5845
      Cm = -0.0056     CD =  0.01250   =>   CDf =  0.00719    CDp =  0.00531

 Side 1  free  transition at x/c =  0.1095   26
 Side 2  free  transition at x/c =  0.9924   74

  70   rms: 0.8771E-02   max: -.1881E+00   C at   26  1
       a =  5.000      CL =  0.5845
      Cm = -0.0056     CD =  0.01250   =>   CDf =  0.00719    CDp =  0.00531

 Side 1  free  transition at x/c =  0.1095   26
 Side 2  free  transition at x/c =  0.9924   74

  71   rms: 0.8771E-02   max: -.1881E+00   C at   26  1
       a =  5.000      CL =  0.5845
      Cm = -0.0056     CD =  0.01250   =>   CDf =  0.00719    CDp =  0.00531

 Side 1  free  transition at x/c =  0.1095   26
 Side 2  free  transition at x/c =  0.9924   74

  72   rms: 0.8771E-02   max: -.1881E+00   C at   26  1
       a =  5.000      CL =  0.5845
      Cm = -0.0056     CD =  0.01250   =>   CDf =  0.00719    CDp =  0.00531

 Side 1  free  transition at x/c =  0.1095   26
 Side 2  free  transition at x/c =  0.9924   74

  73   rms: 0.8771E-02   max: -.1881E+00   C at   26  1
       a =  5.000      CL =  0.5845
      Cm = -0.0056     CD =  0.01250   =>   CDf =  0.00719    CDp =  0.00531

 Side 1  free  transition at x/c =  0.1095   26
 Side 2  free  transition at x/c =  0.9924   74

  74   rms: 0.8771E-02   max: -.1881E+00   C at   26  1
       a =  5.000      CL =  0.5845
      Cm = -0.0056     CD =  0.01250   =>   CDf =  0.00719    CDp =  0.00531

 Side 1  free  transition at x/c =  0.1095   26
 Side 2  free  transition at x/c =  0.9924   74

  75   rms: 0.8771E-02   max: -.1881E+00   C at   26  1
       a =  5.000      CL =  0.5845
      Cm = -0.0056     CD =  0.01250   =>   CDf =  0.00719    CDp =  0.00531

 Side 1  free  transition at x/c =  0.1095   26
 Side 2  free  transition at x/c =  0.9924   74

  76   rms: 0.8771E-02   max: -.1881E+00   C at   26  1
       a =  5.000      CL =  0.5845
      Cm = -0.0056     CD =  0.01250   =>   CDf =  0.00719    CDp =  0.00531

 Side 1  free  transition at x/c =  0.1095   26
 Side 2  free  transition at x/c =  0.9924   74

  77   rms: 0.8771E-02   max: -.1881E+00   C at   26  1
       a =  5.000      CL =  0.5845
      Cm = -0.0056     CD =  0.01250   =>   CDf =  0.00719    CDp =  0.00531

 Side 1  free  transition at x/c =  0.1095   26
 Side 2  free  transition at x/c =  0.9924   74

  78   rms: 0.8771E-02   max: -.1881E+00   C at   26  1
       a =  5.000      CL =  0.5845
      Cm = -0.0056     CD =  0.01250   =>   CDf =  0.00719    CDp =  0.00531

 Side 1  free  transition at x/c =  0.1095   26
 Side 2  free  transition at x/c =  0.9924   74

  79   rms: 0.8771E-02   max: -.1881E+00   C at   26  1
       a =  5.000      CL =  0.5845
      Cm = -0.0056     CD =  0.01250   =>   CDf =  0.00719    CDp =  0.00531

 Side 1  free  transition at x/c =  0.1095   26
 Side 2  free  transition at x/c =  0.9924   74

  80   rms: 0.8771E-02   max: -.1881E+00   C at   26  1
       a =  5.000      CL =  0.5845
      Cm = -0.0056     CD =  0.01250   =>   CDf =  0.00719    CDp =  0.00531

 Side 1  free  transition at x/c =  0.1095   26
 Side 2  free  transition at x/c =  0.9924   74

  81   rms: 0.8771E-02   max: -.1881E+00   C at   26  1
       a =  5.000      CL =  0.5845
      Cm = -0.0056     CD =  0.01250   =>   CDf =  0.00719    CDp =  0.00531

 Side 1  free  transition at x/c =  0.1095   26
 Side 2  free  transition at x/c =  0.9924   74

  82   rms: 0.8771E-02   max: -.1881E+00   C at   26  1
       a =  5.000      CL =  0.5845
      Cm = -0.0056     CD =  0.01250   =>   CDf =  0.00719    CDp =  0.00531

 Side 1  free  transition at x/c =  0.1095   26
 Side 2  free  transition at x/c =  0.9924   74

  83   rms: 0.8771E-02   max: -.1881E+00   C at   26  1
       a =  5.000      CL =  0.5845
      Cm = -0.0056     CD =  0.01250   =>   CDf =  0.00719    CDp =  0.00531

 Side 1  free  transition at x/c =  0.1095   26
 Side 2  free  transition at x/c =  0.9924   74

  84   rms: 0.8771E-02   max: -.1881E+00   C at   26  1
       a =  5.000      CL =  0.5845
      Cm = -0.0056     CD =  0.01250   =>   CDf =  0.00719    CDp =  0.00531

 Side 1  free  transition at x/c =  0.1095   26
 Side 2  free  transition at x/c =  0.9924   74

  85   rms: 0.8771E-02   max: -.1881E+00   C at   26  1
       a =  5.000      CL =  0.5845
      Cm = -0.0056     CD =  0.01250   =>   CDf =  0.00719    CDp =  0.00531

 Side 1  free  transition at x/c =  0.1095   26
 Side 2  free  transition at x/c =  0.9924   74

  86   rms: 0.8771E-02   max: -.1881E+00   C at   26  1
       a =  5.000      CL =  0.5845
      Cm = -0.0056     CD =  0.01250   =>   CDf =  0.00719    CDp =  0.00531

 Side 1  free  transition at x/c =  0.1095   26
 Side 2  free  transition at x/c =  0.9924   74

  87   rms: 0.8771E-02   max: -.1881E+00   C at   26  1
       a =  5.000      CL =  0.5845
      Cm = -0.0056     CD =  0.01250   =>   CDf =  0.00719    CDp =  0.00531

 Side 1  free  transition at x/c =  0.1095   26
 Side 2  free  transition at x/c =  0.9924   74

  88   rms: 0.8771E-02   max: -.1881E+00   C at   26  1
       a =  5.000      CL =  0.5845
      Cm = -0.0056     CD =  0.01250   =>   CDf =  0.00719    CDp =  0.00531

 Side 1  free  transition at x/c =  0.1095   26
 Side 2  free  transition at x/c =  0.9924   74

  89   rms: 0.8771E-02   max: -.1881E+00   C at   26  1
       a =  5.000      CL =  0.5845
      Cm = -0.0056     CD =  0.01250   =>   CDf =  0.00719    CDp =  0.00531

 Side 1  free  transition at x/c =  0.1095   26
 Side 2  free  transition at x/c =  0.9924   74

  90   rms: 0.8771E-02   max: -.1881E+00   C at   26  1
       a =  5.000      CL =  0.5845
      Cm = -0.0056     CD =  0.01250   =>   CDf =  0.00719    CDp =  0.00531

 Side 1  free  transition at x/c =  0.1095   26
 Side 2  free  transition at x/c =  0.9924   74

  91   rms: 0.8771E-02   max: -.1881E+00   C at   26  1
       a =  5.000      CL =  0.5845
      Cm = -0.0056     CD =  0.01250   =>   CDf =  0.00719    CDp =  0.00531

 Side 1  free  transition at x/c =  0.1095   26
 Side 2  free  transition at x/c =  0.9924   74

  92   rms: 0.8771E-02   max: -.1881E+00   C at   26  1
       a =  5.000      CL =  0.5845
      Cm = -0.0056     CD =  0.01250   =>   CDf =  0.00719    CDp =  0.00531

 Side 1  free  transition at x/c =  0.1095   26
 Side 2  free  transition at x/c =  0.9924   74

  93   rms: 0.8771E-02   max: -.1881E+00   C at   26  1
       a =  5.000      CL =  0.5845
      Cm = -0.0056     CD =  0.01250   =>   CDf =  0.00719    CDp =  0.00531

 Side 1  free  transition at x/c =  0.1095   26
 Side 2  free  transition at x/c =  0.9924   74

  94   rms: 0.8771E-02   max: -.1881E+00   C at   26  1
       a =  5.000      CL =  0.5845
      Cm = -0.0056     CD =  0.01250   =>   CDf =  0.00719    CDp =  0.00531

 Side 1  free  transition at x/c =  0.1095   26
 Side 2  free  transition at x/c =  0.9924   74

  95   rms: 0.8771E-02   max: -.1881E+00   C at   26  1
       a =  5.000      CL =  0.5845
      Cm = -0.0056     CD =  0.01250   =>   CDf =  0.00719    CDp =  0.00531

 Side 1  free  transition at x/c =  0.1095   26
 Side 2  free  transition at x/c =  0.9924   74

  96   rms: 0.8771E-02   max: -.1881E+00   C at   26  1
       a =  5.000      CL =  0.5845
      Cm = -0.0056     CD =  0.01250   =>   CDf =  0.00719    CDp =  0.00531

 Side 1  free  transition at x/c =  0.1095   26
 Side 2  free  transition at x/c =  0.9924   74

  97   rms: 0.8771E-02   max: -.1881E+00   C at   26  1
       a =  5.000      CL =  0.5845
      Cm = -0.0056     CD =  0.01250   =>   CDf =  0.00719    CDp =  0.00531

 Side 1  free  transition at x/c =  0.1095   26
 Side 2  free  transition at x/c =  0.9924   74

  98   rms: 0.8771E-02   max: -.1881E+00   C at   26  1
       a =  5.000      CL =  0.5845
      Cm = -0.0056     CD =  0.01250   =>   CDf =  0.00719    CDp =  0.00531

 Side 1  free  transition at x/c =  0.1095   26
 Side 2  free  transition at x/c =  0.9924   74

  99   rms: 0.8771E-02   max: -.1881E+00   C at   26  1
       a =  5.000      CL =  0.5845
      Cm = -0.0056     CD =  0.01250   =>   CDf =  0.00719    CDp =  0.00531

 Side 1  free  transition at x/c =  0.1095   26
 Side 2  free  transition at x/c =  0.9924   74

 100   rms: 0.8771E-02   max: -.1881E+00   C at   26  1
       a =  5.000      CL =  0.5845
      Cm = -0.0056     CD =  0.01250   =>   CDf =  0.00719    CDp =  0.00531

 Side 1  free  transition at x/c =  0.1095   26
 Side 2  free  transition at x/c =  0.9924   74

 101   rms: 0.8771E-02   max: -.1881E+00   C at   26  1
       a =  5.000      CL =  0.5845
      Cm = -0.0056     CD =  0.01250   =>   CDf =  0.00719    CDp =  0.00531

 Side 1  free  transition at x/c =  0.1095   26
 Side 2  free  transition at x/c =  0.9924   74

 102   rms: 0.8771E-02   max: -.1881E+00   C at   26  1
       a =  5.000      CL =  0.5845
      Cm = -0.0056     CD =  0.01250   =>   CDf =  0.00719    CDp =  0.00531

 Side 1  free  transition at x/c =  0.1095   26
 Side 2  free  transition at x/c =  0.9924   74

 103   rms: 0.8771E-02   max: -.1881E+00   C at   26  1
       a =  5.000      CL =  0.5845
      Cm = -0.0056     CD =  0.01250   =>   CDf =  0.00719    CDp =  0.00531

 Side 1  free  transition at x/c =  0.1095   26
 Side 2  free  transition at x/c =  0.9924   74

 104   rms: 0.8771E-02   max: -.1881E+00   C at   26  1
       a =  5.000      CL =  0.5845
      Cm = -0.0056     CD =  0.01250   =>   CDf =  0.00719    CDp =  0.00531

 Side 1  free  transition at x/c =  0.1095   26
 Side 2  free  transition at x/c =  0.9924   74

 105   rms: 0.8771E-02   max: -.1881E+00   C at   26  1
       a =  5.000      CL =  0.5845
      Cm = -0.0056     CD =  0.01250   =>   CDf =  0.00719    CDp =  0.00531

 Side 1  free  transition at x/c =  0.1095   26
 Side 2  free  transition at x/c =  0.9924   74

 106   rms: 0.8771E-02   max: -.1881E+00   C at   26  1
       a =  5.000      CL =  0.5845
      Cm = -0.0056     CD =  0.01250   =>   CDf =  0.00719    CDp =  0.00531

 Side 1  free  transition at x/c =  0.1095   26
 Side 2  free  transition at x/c =  0.9924   74

 107   rms: 0.8771E-02   max: -.1881E+00   C at   26  1
       a =  5.000      CL =  0.5845
      Cm = -0.0056     CD =  0.01250   =>   CDf =  0.00719    CDp =  0.00531

 Side 1  free  transition at x/c =  0.1095   26
 Side 2  free  transition at x/c =  0.9924   74

 108   rms: 0.8771E-02   max: -.1881E+00   C at   26  1
       a =  5.000      CL =  0.5845
      Cm = -0.0056     CD =  0.01250   =>   CDf =  0.00719    CDp =  0.00531

 Side 1  free  transition at x/c =  0.1095   26
 Side 2  free  transition at x/c =  0.9924   74

 109   rms: 0.8771E-02   max: -.1881E+00   C at   26  1
       a =  5.000      CL =  0.5845
      Cm = -0.0056     CD =  0.01250   =>   CDf =  0.00719    CDp =  0.00531

 Side 1  free  transition at x/c =  0.1095   26
 Side 2  free  transition at x/c =  0.9924   74

 110   rms: 0.8771E-02   max: -.1881E+00   C at   26  1
       a =  5.000      CL =  0.5845
      Cm = -0.0056     CD =  0.01250   =>   CDf =  0.00719    CDp =  0.00531

 Side 1  free  transition at x/c =  0.1095   26
 Side 2  free  transition at x/c =  0.9924   74

 111   rms: 0.8771E-02   max: -.1881E+00   C at   26  1
       a =  5.000      CL =  0.5845
      Cm = -0.0056     CD =  0.01250   =>   CDf =  0.00719    CDp =  0.00531

 Side 1  free  transition at x/c =  0.1095   26
 Side 2  free  transition at x/c =  0.9924   74

 112   rms: 0.8771E-02   max: -.1881E+00   C at   26  1
       a =  5.000      CL =  0.5845
      Cm = -0.0056     CD =  0.01250   =>   CDf =  0.00719    CDp =  0.00531

 Side 1  free  transition at x/c =  0.1095   26
 Side 2  free  transition at x/c =  0.9924   74

 113   rms: 0.8771E-02   max: -.1881E+00   C at   26  1
       a =  5.000      CL =  0.5845
      Cm = -0.0056     CD =  0.01250   =>   CDf =  0.00719    CDp =  0.00531

 Side 1  free  transition at x/c =  0.1095   26
 Side 2  free  transition at x/c =  0.9924   74

 114   rms: 0.8771E-02   max: -.1881E+00   C at   26  1
       a =  5.000      CL =  0.5845
      Cm = -0.0056     CD =  0.01250   =>   CDf =  0.00719    CDp =  0.00531

 Side 1  free  transition at x/c =  0.1095   26
 Side 2  free  transition at x/c =  0.9924   74

 115   rms: 0.8771E-02   max: -.1881E+00   C at   26  1
       a =  5.000      CL =  0.5845
      Cm = -0.0056     CD =  0.01250   =>   CDf =  0.00719    CDp =  0.00531

 Side 1  free  transition at x/c =  0.1095   26
 Side 2  free  transition at x/c =  0.9924   74

 116   rms: 0.8771E-02   max: -.1881E+00   C at   26  1
       a =  5.000      CL =  0.5845
      Cm = -0.0056     CD =  0.01250   =>   CDf =  0.00719    CDp =  0.00531

 Side 1  free  transition at x/c =  0.1095   26
 Side 2  free  transition at x/c =  0.9924   74

 117   rms: 0.8771E-02   max: -.1881E+00   C at   26  1
       a =  5.000      CL =  0.5845
      Cm = -0.0056     CD =  0.01250   =>   CDf =  0.00719    CDp =  0.00531

 Side 1  free  transition at x/c =  0.1095   26
 Side 2  free  transition at x/c =  0.9924   74

 118   rms: 0.8771E-02   max: -.1881E+00   C at   26  1
       a =  5.000      CL =  0.5845
      Cm = -0.0056     CD =  0.01250   =>   CDf =  0.00719    CDp =  0.00531

 Side 1  free  transition at x/c =  0.1095   26
 Side 2  free  transition at x/c =  0.9924   74

 119   rms: 0.8771E-02   max: -.1881E+00   C at   26  1
       a =  5.000      CL =  0.5845
      Cm = -0.0056     CD =  0.01250   =>   CDf =  0.00719    CDp =  0.00531

 Side 1  free  transition at x/c =  0.1095   26
 Side 2  free  transition at x/c =  0.9924   74

 120   rms: 0.8771E-02   max: -.1881E+00   C at   26  1
       a =  5.000      CL =  0.5845
      Cm = -0.0056     CD =  0.01250   =>   CDf =  0.00719    CDp =  0.00531

 Side 1  free  transition at x/c =  0.1095   26
 Side 2  free  transition at x/c =  0.9924   74

 121   rms: 0.8771E-02   max: -.1881E+00   C at   26  1
       a =  5.000      CL =  0.5845
      Cm = -0.0056     CD =  0.01250   =>   CDf =  0.00719    CDp =  0.00531

 Side 1  free  transition at x/c =  0.1095   26
 Side 2  free  transition at x/c =  0.9924   74

 122   rms: 0.8771E-02   max: -.1881E+00   C at   26  1
       a =  5.000      CL =  0.5845
      Cm = -0.0056     CD =  0.01250   =>   CDf =  0.00719    CDp =  0.00531

 Side 1  free  transition at x/c =  0.1095   26
 Side 2  free  transition at x/c =  0.9924   74

 123   rms: 0.8771E-02   max: -.1881E+00   C at   26  1
       a =  5.000      CL =  0.5845
      Cm = -0.0056     CD =  0.01250   =>   CDf =  0.00719    CDp =  0.00531

 Side 1  free  transition at x/c =  0.1095   26
 Side 2  free  transition at x/c =  0.9924   74

 124   rms: 0.8771E-02   max: -.1881E+00   C at   26  1
       a =  5.000      CL =  0.5845
      Cm = -0.0056     CD =  0.01250   =>   CDf =  0.00719    CDp =  0.00531

 Side 1  free  transition at x/c =  0.1095   26
 Side 2  free  transition at x/c =  0.9924   74

 125   rms: 0.8771E-02   max: -.1881E+00   C at   26  1
       a =  5.000      CL =  0.5845
      Cm = -0.0056     CD =  0.01250   =>   CDf =  0.00719    CDp =  0.00531

 Side 1  free  transition at x/c =  0.1095   26
 Side 2  free  transition at x/c =  0.9924   74

 126   rms: 0.8771E-02   max: -.1881E+00   C at   26  1
       a =  5.000      CL =  0.5845
      Cm = -0.0056     CD =  0.01250   =>   CDf =  0.00719    CDp =  0.00531

 Side 1  free  transition at x/c =  0.1095   26
 Side 2  free  transition at x/c =  0.9924   74

 127   rms: 0.8771E-02   max: -.1881E+00   C at   26  1
       a =  5.000      CL =  0.5845
      Cm = -0.0056     CD =  0.01250   =>   CDf =  0.00719    CDp =  0.00531

 Side 1  free  transition at x/c =  0.1095   26
 Side 2  free  transition at x/c =  0.9924   74

 128   rms: 0.8771E-02   max: -.1881E+00   C at   26  1
       a =  5.000      CL =  0.5845
      Cm = -0.0056     CD =  0.01250   =>   CDf =  0.00719    CDp =  0.00531

 Side 1  free  transition at x/c =  0.1095   26
 Side 2  free  transition at x/c =  0.9924   74

 129   rms: 0.8771E-02   max: -.1881E+00   C at   26  1
       a =  5.000      CL =  0.5845
      Cm = -0.0056     CD =  0.01250   =>   CDf =  0.00719    CDp =  0.00531

 Side 1  free  transition at x/c =  0.1095   26
 Side 2  free  transition at x/c =  0.9924   74

 130   rms: 0.8771E-02   max: -.1881E+00   C at   26  1
       a =  5.000      CL =  0.5845
      Cm = -0.0056     CD =  0.01250   =>   CDf =  0.00719    CDp =  0.00531

 Side 1  free  transition at x/c =  0.1095   26
 Side 2  free  transition at x/c =  0.9924   74

[...]
 Side 2 forced transition at x/c =  1.0000   74

 115   rms: 0.1100E+04   max: -.2985E+05   C at   88  1   RLX: 0.000
       a = 11.500      CL =  0.0487
      Cm =  0.0728     CD =  0.19864   =>   CDf =  0.00222    CDp =  0.19641

 MRCHDU: Convergence failed at  87  side 2    Res =  0.1343E-01
 MRCHDU: Convergence failed at  88  side 2    Res =  0.1304E-01
 MRCHDU: Convergence failed at  89  side 2    Res =  0.1074E-01
 Side 1  free  transition at x/c =  0.0455   22
 Side 2 forced transition at x/c =  1.0000   74

 116   rms: 0.2566E+04   max: -.6961E+05   C at   88  1   RLX: 0.000
       a = 11.500      CL =  0.0487
      Cm =  0.0728     CD =  0.19862   =>   CDf =  0.00222    CDp =  0.19639

 MRCHDU: Convergence failed at  87  side 2    Res =  0.1344E-01
 MRCHDU: Convergence failed at  88  side 2    Res =  0.1304E-01
 MRCHDU: Convergence failed at  89  side 2    Res =  0.1075E-01
 Side 1  free  transition at x/c =  0.0455   22
 Side 2 forced transition at x/c =  1.0000   74

 117   rms: 0.1967E+05   max: -.5337E+06   C at   88  1   RLX: 0.000
       a = 11.500      CL =  0.0487
      Cm =  0.0728     CD =  0.19861   =>   CDf =  0.00222    CDp =  0.19639

 MRCHDU: Convergence failed at  87  side 2    Res =  0.1344E-01
 MRCHDU: Convergence failed at  88  side 2    Res =  0.1305E-01
 MRCHDU: Convergence failed at  89  side 2    Res =  0.1075E-01
 Side 1  free  transition at x/c =  0.0455   22
 Side 2 forced transition at x/c =  1.0000   74

 118   rms: 0.1393E+05   max: 0.3780E+06   C at   88  1   RLX: 0.000
       a = 11.500      CL =  0.0487
      Cm =  0.0728     CD =  0.19853   =>   CDf =  0.00222    CDp =  0.19631

 MRCHDU: Convergence failed at  88  side 1    Res =  0.7279E-05
 MRCHDU: Convergence failed at  87  side 2    Res =  0.1343E-01
 MRCHDU: Convergence failed at  88  side 2    Res =  0.1304E-01
 MRCHDU: Convergence failed at  89  side 2    Res =  0.1074E-01
 Side 1  free  transition at x/c =  0.0455   22
 Side 2 forced transition at x/c =  1.0000   74

 119   rms: 0.1596E+04   max: -.4328E+05   C at   88  1   RLX: 0.000
       a = 11.500      CL =  0.0487
      Cm =  0.0728     CD =  0.19862   =>   CDf =  0.00222    CDp =  0.19639

 MRCHDU: Convergence failed at  88  side 1    Res =  0.1394E-04
 MRCHDU: Convergence failed at  87  side 2    Res =  0.1343E-01
 MRCHDU: Convergence failed at  88  side 2    Res =  0.1304E-01
 MRCHDU: Convergence failed at  89  side 2    Res =  0.1075E-01
 Side 1  free  transition at x/c =  0.0455   22
 Side 2 forced transition at x/c =  1.0000   74

 120   rms: 0.4365E+04   max: -.1184E+06   C at   88  1   RLX: 0.000
       a = 11.500      CL =  0.0487
      Cm =  0.0728     CD =  0.19860   =>   CDf =  0.00222    CDp =  0.19638

 MRCHDU: Convergence failed at  87  side 2    Res =  0.1344E-01
 MRCHDU: Convergence failed at  88  side 2    Res =  0.1305E-01
 MRCHDU: Convergence failed at  89  side 2    Res =  0.1075E-01
 Side 1  free  transition at x/c =  0.0455   22
 Side 2 forced transition at x/c =  1.0000   74

 121   rms: 0.3555E+05   max: -.9645E+06   C at   88  1   RLX: 0.000
       a = 11.500      CL =  0.0487
      Cm =  0.0728     CD =  0.19860   =>   CDf =  0.00222    CDp =  0.19637

 MRCHDU: Convergence failed at  87  side 2    Res =  0.1344E-01
 MRCHDU: Convergence failed at  88  side 2    Res =  0.1305E-01
 MRCHDU: Convergence failed at  89  side 2    Res =  0.1075E-01
 Side 1  free  transition at x/c =  0.0455   22
 Side 2 forced transition at x/c =  1.0000   74

 122   rms: 0.1524E+05   max: 0.4136E+06   C at   88  1   RLX: 0.000
       a = 11.500      CL =  0.0487
      Cm =  0.0728     CD =  0.19852   =>   CDf =  0.00222    CDp =  0.19630

 MRCHDU: Convergence failed at  87  side 2    Res =  0.1343E-01
 MRCHDU: Convergence failed at  88  side 2    Res =  0.1304E-01
 MRCHDU: Convergence failed at  89  side 2    Res =  0.1075E-01
 Side 1  free  transition at x/c =  0.0455   22
 Side 2 forced transition at x/c =  1.0000   74

 123   rms: 0.2383E+04   max: -.6464E+05   C at   88  1   RLX: 0.000
       a = 11.500      CL =  0.0487
      Cm =  0.0728     CD =  0.19860   =>   CDf =  0.00222    CDp =  0.19638

 MRCHDU: Convergence failed at  87  side 2    Res =  0.1343E-01
 MRCHDU: Convergence failed at  88  side 2    Res =  0.1305E-01
 MRCHDU: Convergence failed at  89  side 2    Res =  0.1075E-01
 Side 1  free  transition at x/c =  0.0455   22
 Side 2 forced transition at x/c =  1.0000   74

 124   rms: 0.7696E+04   max: -.2088E+06   C at   88  1   RLX: 0.000
       a = 11.500      CL =  0.0487
      Cm =  0.0728     CD =  0.19859   =>   CDf =  0.00222    CDp =  0.19637

 MRCHDU: Convergence failed at  87  side 2    Res =  0.1344E-01
 MRCHDU: Convergence failed at  88  side 2    Res =  0.1305E-01
 MRCHDU: Convergence failed at  89  side 2    Res =  0.1075E-01
 Side 1  free  transition at x/c =  0.0455   22
 Side 2 forced transition at x/c =  1.0000   74

 125   rms: 0.1663E+05   max: 0.4512E+06   C at   88  1   RLX: 0.000
       a = 11.500      CL =  0.0488
      Cm =  0.0728     CD =  0.19851   =>   CDf =  0.00222    CDp =  0.19629

 MRCHDU: Convergence failed at  87  side 2    Res =  0.1343E-01
 MRCHDU: Convergence failed at  88  side 2    Res =  0.1305E-01
 MRCHDU: Convergence failed at  89  side 2    Res =  0.1075E-01
 Side 1  free  transition at x/c =  0.0455   22
 Side 2 forced transition at x/c =  1.0000   74

 126   rms: 0.1495E+04   max: -.4057E+05   C at   88  1   RLX: 0.000
       a = 11.500      CL =  0.0487
      Cm =  0.0728     CD =  0.19860   =>   CDf =  0.00222    CDp =  0.19638

 MRCHDU: Convergence failed at  88  side 1    Res =  0.1536E-04
 MRCHDU: Convergence failed at  87  side 2    Res =  0.1343E-01
 MRCHDU: Convergence failed at  88  side 2    Res =  0.1305E-01
 MRCHDU: Convergence failed at  89  side 2    Res =  0.1075E-01
 Side 1  free  transition at x/c =  0.0455   22
 Side 2 forced transition at x/c =  1.0000   74

 127   rms: 0.3931E+04   max: -.1066E+06   C at   88  1   RLX: 0.000
       a = 11.500      CL =  0.0487
      Cm =  0.0728     CD =  0.19859   =>   CDf =  0.00222    CDp =  0.19636

 MRCHDU: Convergence failed at  87  side 2    Res =  0.1343E-01
 MRCHDU: Convergence failed at  88  side 2    Res =  0.1305E-01
 MRCHDU: Convergence failed at  89  side 2    Res =  0.1076E-01
 Side 1  free  transition at x/c =  0.0455   22
 Side 2 forced transition at x/c =  1.0000   74

 128   rms: 0.1646E+06   max: -.4465E+07   C at   88  1   RLX: 0.000
       a = 11.500      CL =  0.0487
      Cm =  0.0728     CD =  0.19858   =>   CDf =  0.00222    CDp =  0.19636

 MRCHDU: Convergence failed at  87  side 2    Res =  0.1344E-01
 MRCHDU: Convergence failed at  88  side 2    Res =  0.1305E-01
 MRCHDU: Convergence failed at  89  side 2    Res =  0.1076E-01
 Side 1  free  transition at x/c =  0.0455   22
 Side 2 forced transition at x/c =  1.0000   74

 129   rms: 0.1478E+05   max: 0.4010E+06   C at   88  1   RLX: 0.000
       a = 11.500      CL =  0.0487
      Cm =  0.0728     CD =  0.19851   =>   CDf =  0.00222    CDp =  0.19628

 MRCHDU: Convergence failed at  88  side 1    Res =  0.7312E-05
 MRCHDU: Convergence failed at  87  side 2    Res =  0.1343E-01
 MRCHDU: Convergence failed at  88  side 2    Res =  0.1305E-01
 MRCHDU: Convergence failed at  89  side 2    Res =  0.1075E-01
 Side 1  free  transition at x/c =  0.0455   22
 Side 2 forced transition at x/c =  1.0000   74

 130   rms: 0.2249E+04   max: -.6100E+05   C at   88  1   RLX: 0.000
       a = 11.500      CL =  0.0487
      Cm =  0.0728     CD =  0.19859   =>   CDf =  0.00222    CDp =  0.19636

 MRCHDU: Convergence failed at  88  side 1    Res =  0.1439E-04
 MRCHDU: Convergence failed at  87  side 2    Res =  0.1343E-01
 MRCHDU: Convergence failed at  88  side 2    Res =  0.1305E-01
 MRCHDU: Convergence failed at  89  side 2    Res =  0.1076E-01
 Side 1  free  transition at x/c =  0.0455   22
 Side 2 forced transition at x/c =  1.0000   74

 131   rms: 0.7695E+04   max: -.2087E+06   C at   88  1   RLX: 0.000
       a = 11.500      CL =  0.0487
      Cm =  0.0728     CD =  0.19858   =>   CDf =  0.00222    CDp =  0.19635

 MRCHDU: Convergence failed at  88  side 1    Res =  0.8914E-05
 MRCHDU: Convergence failed at  87  side 2    Res =  0.1344E-01
 MRCHDU: Convergence failed at  88  side 2    Res =  0.1305E-01
 MRCHDU: Convergence failed at  89  side 2    Res =  0.1076E-01
 Side 1  free  transition at x/c =  0.0455   22
 Side 2 forced transition at x/c =  1.0000   74

 132   rms: 0.2027E+06   max: 0.5499E+07   C at   88  1   RLX: 0.000
       a = 11.500      CL =  0.0488
      Cm =  0.0728     CD =  0.19850   =>   CDf =  0.00222    CDp =  0.19627

 MRCHDU: Convergence failed at  87  side 2    Res =  0.1343E-01
 MRCHDU: Convergence failed at  88  side 2    Res =  0.1305E-01
 MRCHDU: Convergence failed at  89  side 2    Res =  0.1075E-01
 Side 1  free  transition at x/c =  0.0455   22
 Side 2 forced transition at x/c =  1.0000   74

 133   rms: 0.1406E+04   max: -.3815E+05   C at   88  1   RLX: 0.000
       a = 11.500      CL =  0.0487
      Cm =  0.0728     CD =  0.19859   =>   CDf =  0.00222    CDp =  0.19636

 MRCHDU: Convergence failed at  87  side 2    Res =  0.1343E-01
 MRCHDU: Convergence failed at  88  side 2    Res =  0.1305E-01
 MRCHDU: Convergence failed at  89  side 2    Res =  0.1076E-01
 Side 1  free  transition at x/c =  0.0455   22
 Side 2 forced transition at x/c =  1.0000   74

 134   rms: 0.3470E+04   max: -.9413E+05   C at   88  1   RLX: 0.000
       a = 11.500      CL =  0.0487
      Cm =  0.0728     CD =  0.19857   =>   CDf =  0.00222    CDp =  0.19635

 MRCHDU: Convergence failed at  87  side 2    Res =  0.1343E-01
 MRCHDU: Convergence failed at  88  side 2    Res =  0.1306E-01
 MRCHDU: Convergence failed at  89  side 2    Res =  0.1076E-01
 Side 1  free  transition at x/c =  0.0455   22
 Side 2 forced transition at x/c =  1.0000   74

 135   rms: 0.3562E+05   max: -.9664E+06   C at   88  1   RLX: 0.000
       a = 11.500      CL =  0.0487
      Cm =  0.0728     CD =  0.19856   =>   CDf =  0.00222    CDp =  0.19634

 MRCHDU: Convergence failed at  87  side 2    Res =  0.1344E-01
 MRCHDU: Convergence failed at  88  side 2    Res =  0.1306E-01
 MRCHDU: Convergence failed at  89  side 2    Res =  0.1076E-01
 Side 1  free  transition at x/c =  0.0455   22
 Side 2 forced transition at x/c =  1.0000   74

 136   rms: 0.1230E+05   max: 0.3336E+06   C at   88  1   RLX: 0.000
       a = 11.500      CL =  0.0488
      Cm =  0.0728     CD =  0.19849   =>   CDf =  0.00222    CDp =  0.19627

 MRCHDU: Convergence failed at  87  side 2    Res =  0.1343E-01
 MRCHDU: Convergence failed at  88  side 2    Res =  0.1305E-01
 MRCHDU: Convergence failed at  89  side 2    Res =  0.1076E-01
 Side 1  free  transition at x/c =  0.0455   22
 Side 2 forced transition at x/c =  1.0000   74

 137   rms: 0.2060E+04   max: -.5590E+05   C at   88  1   RLX: 0.000
       a = 11.500      CL =  0.0487
      Cm =  0.0728     CD =  0.19857   =>   CDf =  0.00222    CDp =  0.19635

 MRCHDU: Convergence failed at  87  side 2    Res =  0.1343E-01
 MRCHDU: Convergence failed at  88  side 2    Res =  0.1306E-01
 MRCHDU: Convergence failed at  89  side 2    Res =  0.1076E-01
 Side 1  free  transition at x/c =  0.0455   22
 Side 2 forced transition at x/c =  1.0000   74

 138   rms: 0.8904E+04   max: -.2415E+06   C at   88  1   RLX: 0.000
       a = 11.500      CL =  0.0487
      Cm =  0.0728     CD =  0.19856   =>   CDf =  0.00222    CDp =  0.19634

 MRCHDU: Convergence failed at  87  side 2    Res =  0.1343E-01
 MRCHDU: Convergence failed at  88  side 2    Res =  0.1306E-01
 MRCHDU: Convergence failed at  89  side 2    Res =  0.1076E-01
 Side 1  free  transition at x/c =  0.0455   22
 Side 2 forced transition at x/c =  1.0000   74

 139   rms: 0.1679E+05   max: 0.4555E+06   C at   88  1   RLX: 0.000
       a = 11.500      CL =  0.0488
      Cm =  0.0728     CD =  0.19848   =>   CDf =  0.00222    CDp =  0.19626

 MRCHDU: Convergence failed at  87  side 2    Res =  0.1343E-01
 MRCHDU: Convergence failed at  88  side 2    Res =  0.1305E-01
 MRCHDU: Convergence failed at  89  side 2    Res =  0.1076E-01
 Side 1  free  transition at x/c =  0.0455   22
 Side 2 forced transition at x/c =  1.0000   74

 140   rms: 0.1371E+04   max: -.3720E+05   C at   88  1   RLX: 0.000
       a = 11.500      CL =  0.0488
      Cm =  0.0728     CD =  0.19857   =>   CDf =  0.00222    CDp =  0.19634

 MRCHDU: Convergence failed at  87  side 2    Res =  0.1343E-01
 MRCHDU: Convergence failed at  88  side 2    Res =  0.1306E-01
 MRCHDU: Convergence failed at  89  side 2    Res =  0.1076E-01
 Side 1  free  transition at x/c =  0.0455   22
 Side 2 forced transition at x/c =  1.0000   74

 141   rms: 0.3375E+04   max: -.9157E+05   C at   88  1   RLX: 0.000
       a = 11.500      CL =  0.0487
      Cm =  0.0728     CD =  0.19855   =>   CDf =  0.00222    CDp =  0.19633

 MRCHDU: Convergence failed at  88  side 1    Res =  0.1496E-04
 MRCHDU: Convergence failed at  87  side 2    Res =  0.1343E-01
 MRCHDU: Convergence failed at  88  side 2    Res =  0.1306E-01
 MRCHDU: Convergence failed at  89  side 2    Res =  0.1077E-01
 Side 1  free  transition at x/c =  0.0455   22
 Side 2 forced transition at x/c =  1.0000   74

 142   rms: 0.6649E+05   max: -.1804E+07   C at   88  1   RLX: 0.000
       a = 11.500      CL =  0.0487
      Cm =  0.0728     CD =  0.19854   =>   CDf =  0.00222    CDp =  0.19632

 MRCHDU: Convergence failed at  87  side 2    Res =  0.1343E-01
 MRCHDU: Convergence failed at  88  side 2    Res =  0.1306E-01
 MRCHDU: Convergence failed at  89  side 2    Res =  0.1077E-01
 Side 1  free  transition at x/c =  0.0455   22
 Side 2 forced transition at x/c =  1.0000   74

 143   rms: 0.1077E+05   max: 0.2922E+06   C at   88  1   RLX: 0.000
       a = 11.500      CL =  0.0488
      Cm =  0.0728     CD =  0.19847   =>   CDf =  0.00222    CDp =  0.19625

 MRCHDU: Convergence failed at  88  side 1    Res =  0.5684E-05
 MRCHDU: Convergence failed at  87  side 2    Res =  0.1343E-01
 MRCHDU: Convergence failed at  88  side 2    Res =  0.1306E-01
 MRCHDU: Convergence failed at  89  side 2    Res =  0.1076E-01
 Side 1  free  transition at x/c =  0.0455   22
 Side 2 forced transition at x/c =  1.0000   74

 144   rms: 0.1965E+04   max: -.5331E+05   C at   88  1   RLX: 0.000
       a = 11.500      CL =  0.0488
      Cm =  0.0728     CD =  0.19855   =>   CDf =  0.00222    CDp =  0.19633

 MRCHDU: Convergence failed at  87  side 2    Res =  0.1343E-01
 MRCHDU: Convergence failed at  88  side 2    Res =  0.1306E-01
 MRCHDU: Convergence failed at  89  side 2    Res =  0.1077E-01
 Side 1  free  transition at x/c =  0.0455   22
 Side 2 forced transition at x/c =  1.0000   74

 145   rms: 0.5138E+04   max: -.1394E+06   C at   88  1   RLX: 0.000
       a = 11.500      CL =  0.0487
      Cm =  0.0728     CD =  0.19854   =>   CDf =  0.00222    CDp =  0.19632

 MRCHDU: Convergence failed at  87  side 2    Res =  0.1343E-01
 MRCHDU: Convergence failed at  88  side 2    Res =  0.1306E-01
 MRCHDU: Convergence failed at  89  side 2    Res =  0.1077E-01
 Side 1  free  transition at x/c =  0.0455   22
 Side 2 forced transition at x/c =  1.0000   74

 146   rms: 0.3263E+05   max: 0.8854E+06   C at   88  1   RLX: 0.000
       a = 11.500      CL =  0.0488
      Cm =  0.0728     CD =  0.19846   =>   CDf =  0.00222    CDp =  0.19624

 MRCHDU: Convergence failed at  88  side 1    Res =  0.1355E-04
 MRCHDU: Convergence failed at  87  side 2    Res =  0.1342E-01
 MRCHDU: Convergence failed at  88  side 2    Res =  0.1306E-01
 MRCHDU: Convergence failed at  89  side 2    Res =  0.1076E-01
 Side 1  free  transition at x/c =  0.0455   22
 Side 2 forced transition at x/c =  1.0000   74

 147   rms: 0.1326E+04   max: -.3598E+05   C at   88  1   RLX: 0.000
       a = 11.500      CL =  0.0488
      Cm =  0.0728     CD =  0.19855   =>   CDf =  0.00222    CDp =  0.19633

 MRCHDU: Convergence failed at  87  side 2    Res =  0.1343E-01
 MRCHDU: Convergence failed at  88  side 2    Res =  0.1306E-01
 MRCHDU: Convergence failed at  89  side 2    Res =  0.1077E-01
 Side 1  free  transition at x/c =  0.0455   22
 Side 2 forced transition at x/c =  1.0000   74

 148   rms: 0.3094E+04   max: -.8394E+05   C at   88  1   RLX: 0.000
       a = 11.500      CL =  0.0488
      Cm =  0.0728     CD =  0.19854   =>   CDf =  0.00222    CDp =  0.19631

 MRCHDU: Convergence failed at  87  side 2    Res =  0.1343E-01
 MRCHDU: Convergence failed at  88  side 2    Res =  0.1306E-01
 MRCHDU: Convergence failed at  89  side 2    Res =  0.1077E-01
 Side 1  free  transition at x/c =  0.0455   22
 Side 2 forced transition at x/c =  1.0000   74

 149   rms: 0.1328E+05   max: -.3603E+06   C at   88  1   RLX: 0.000
       a = 11.500      CL =  0.0487
      Cm =  0.0728     CD =  0.19853   =>   CDf =  0.00222    CDp =  0.19630

 MRCHDU: Convergence failed at  87  side 2    Res =  0.1343E-01
 MRCHDU: Convergence failed at  88  side 2    Res =  0.1307E-01
 MRCHDU: Convergence failed at  89  side 2    Res =  0.1077E-01
 Side 1  free  transition at x/c =  0.0455   22
 Side 2 forced transition at x/c =  1.0000   74

 150   rms: 0.1339E+05   max: 0.3631E+06   C at   88  1   RLX: 0.000
       a = 11.500      CL =  0.0488
      Cm =  0.0728     CD =  0.19845   =>   CDf =  0.00222    CDp =  0.19623

 MRCHDU: Convergence failed at  88  side 1    Res =  0.7111E-05
 MRCHDU: Convergence failed at  87  side 2    Res =  0.1343E-01
 MRCHDU: Convergence failed at  88  side 2    Res =  0.1306E-01
 MRCHDU: Convergence failed at  89  side 2    Res =  0.1077E-01
 Side 1  free  transition at x/c =  0.0455   22
 Side 2 forced transition at x/c =  1.0000   74

 151   rms: 0.1987E+04   max: -.5390E+05   C at   88  1   RLX: 0.000
       a = 11.500      CL =  0.0488
      Cm =  0.0728     CD =  0.19853   =>   CDf =  0.00222    CDp =  0.19631

 MRCHDU: Convergence failed at  87  side 2    Res =  0.1343E-01
 MRCHDU: Convergence failed at  88  side 2    Res =  0.1306E-01
 MRCHDU: Convergence failed at  89  side 2    Res =  0.1077E-01
 Side 1  free  transition at x/c =  0.0455   22
 Side 2 forced transition at x/c =  1.0000   74

 152   rms: 0.4991E+04   max: -.1354E+06   C at   88  1   RLX: 0.000
       a = 11.500      CL =  0.0488
      Cm =  0.0728     CD =  0.19852   =>   CDf =  0.00222    CDp =  0.19630

 MRCHDU: Convergence failed at  87  side 2    Res =  0.1343E-01
 MRCHDU: Convergence failed at  88  side 2    Res =  0.1307E-01
 MRCHDU: Convergence failed at  89  side 2    Res =  0.1077E-01
 Side 1  free  transition at x/c =  0.0455   22
 Side 2 forced transition at x/c =  1.0000   74

 153   rms: 0.5809E+05   max: 0.1576E+07   C at   88  1   RLX: 0.000
       a = 11.500      CL =  0.0488
      Cm =  0.0728     CD =  0.19844   =>   CDf =  0.00222    CDp =  0.19622

 MRCHDU: Convergence failed at  87  side 2    Res =  0.1342E-01
 MRCHDU: Convergence failed at  88  side 2    Res =  0.1306E-01
 MRCHDU: Convergence failed at  89  side 2    Res =  0.1077E-01
 Side 1  free  transition at x/c =  0.0455   22
 Side 2 forced transition at x/c =  1.0000   74

 154   rms: 0.1256E+04   max: -.3408E+05   C at   88  1   RLX: 0.000
       a = 11.500      CL =  0.0488
      Cm =  0.0728     CD =  0.19853   =>   CDf =  0.00222    CDp =  0.19631

 MRCHDU: Convergence failed at  87  side 2    Res =  0.1343E-01
 MRCHDU: Convergence failed at  88  side 2    Res =  0.1307E-01
 MRCHDU: Convergence failed at  89  side 2    Res =  0.1077E-01
 Side 1  free  transition at x/c =  0.0455   22
 Side 2 forced transition at x/c =  1.0000   74

 155   rms: 0.3036E+04   max: -.8236E+05   C at   88  1   RLX: 0.000
       a = 11.500      CL =  0.0488
      Cm =  0.0728     CD =  0.19852   =>   CDf =  0.00222    CDp =  0.19629
 VISCAL:  Convergence failed

 Sequence halted since previous  4 points did not converge
 Last-converged  alpha =  10.500    CL =   0.95120

.OPERva   c>  
 Polar accumulation disabled

.OPERv   c>  
 XFOIL   c>  
 XFOIL   c>  