
 ===================================================
  XFOIL Version 6.99
  Copyright (C) 2000   Mark Drela, Harold Youngren

  This software comes with ABSOLUTELY NO WARRANTY,
    subject to the GNU General Public License.

  Caveat computor
 ===================================================

 File  xfoil.def  not found

   QUIT    Exit program

  .OPER    Direct operating point(s)
  .MDES    Complex mapping design routine
  .QDES    Surface speed design routine
  .GDES    Geometry design routine

   SAVE f  Write airfoil to labeled coordinate file
   PSAV f  Write airfoil to plain coordinate file
   ISAV f  Write airfoil to ISES coordinate file
   MSAV f  Write airfoil to MSES coordinate file
   REVE    Reverse written-airfoil node ordering

   LOAD f  Read buffer airfoil from coordinate file
   NACA i  Set NACA 4,5-digit airfoil and buffer airfoil
   INTE    Set buffer airfoil by interpolating two airfoils
   NORM    Buffer airfoil normalization toggle
   XYCM rr Change CM reference location, currently  0.25000 0.00000

   BEND    Display structural properties of current airfoil

   PCOP    Set current-airfoil panel nodes directly from buffer airfoil points
   PANE    Set current-airfoil panel nodes ( 160 ) based on curvature
  .PPAR    Show/change paneling

  .PLOP    Plotting options

   WDEF f  Write  current-settings file
   RDEF f  Reread current-settings file
   NAME s  Specify new airfoil name
   NINC    Increment name version number

   Z       Zoom    | (available in all menus)
   U       Unzoom  | 

 XFOIL   c>  
 Labeled airfoil file.  Name:  NACA 63A010 AIRFOIL                             

 Number of input coordinate points:  51
 Counterclockwise ordering
 Max thickness =     0.099900  at x =   0.350
 Max camber    =     0.000000  at x =   0.025

  LE  x,y  =   0.00000   0.00000  |   Chord =   1.00000
  TE  x,y  =   1.00000   0.00000  |

 Current airfoil nodes set from buffer airfoil nodes (  51 )

 WARNING: Poor input coordinate distribution
          Excessive panel angle   63.0  at i =  26
          Repaneling with PANE and/or PPAR suggested
           (doing GDES,CADD before repaneling _may_
            improve excessively coarse LE spacing

 XFOIL   c>  
 XFOIL   c>  
 Blunt trailing edge.  Gap =  0.00042

 Paneling parameters used...
   Number of panel nodes       160
   Panel bunching parameter    1.000
   TE/LE panel density ratio   0.150
   Refined-area/LE panel density ratio    0.200
   Top    side refined area x/c limits  1.000 1.000
   Bottom side refined area x/c limits  1.000 1.000

 XFOIL   c>  
.OPERi   c>  
 Xtr/c     =  1.0000    top    side
 Xtr/c     =  1.0000    bottom side
 Ncrit     =    9.00   ( 0.070 % turb. level )
 Vacc      =  0.0100

 Klag  =  5.6000     Uxwt  =    1.00
 A     =  6.7000     B     =  0.7500       KCt = 0.01485
 CtiniK=  1.8000     CtiniX=  3.3000

..VPAR   c>  
..VPAR   c>  
.OPERi   c>  
 M  =    0.0000
 Re =    300000

.OPERv   c>  
.OPERv   c>  
.OPERv   c>  
 Polar  1 newly created for accumulation
 Airfoil archived with polar: NACA 63A010 AIRFOIL                             

Enter  polar save filename  OR  <return> for no file   s>  
 New polar save file available

Enter  polar dump filename  OR  <return> for no file   s>  
 Polar dump file will NOT be written

 Polar accumulation enabled

.OPERva   c>   Calculating unit vorticity distributions ...
 Calculating wake trajectory ...
 Calculating source influence matrix ...

 Solving BL system ...

 Initializing BL ...
    side            1  ...
 MRCHUE: Inverse mode at  59     Hk =   4.043
 MRCHUE: Inverse mode at  60     Hk =   4.429
 MRCHUE: Inverse mode at  61     Hk =   4.808
 MRCHUE: Inverse mode at  62     Hk =   5.183
 MRCHUE: Inverse mode at  63     Hk =   5.552
 MRCHUE: Inverse mode at  64     Hk =   5.917
 MRCHUE: Inverse mode at  65     Hk =   6.279
 MRCHUE: Inverse mode at  66     Hk =   6.635
 MRCHUE: Inverse mode at  67     Hk =   6.988
 MRCHUE: Inverse mode at  68     Hk =   7.340
 MRCHUE: Inverse mode at  69     Hk =   7.685
 MRCHUE: Inverse mode at  70     Hk =   8.024
 MRCHUE: Inverse mode at  71     Hk =   8.365
 MRCHUE: Inverse mode at  72     Hk =   8.687
 MRCHUE: Inverse mode at  73     Hk =   8.572
 MRCHUE: Inverse mode at  74     Hk =   7.419
 MRCHUE: Inverse mode at  75     Hk =   6.643
 MRCHUE: Inverse mode at  76     Hk =   6.253
    side            2  ...
 MRCHUE: Inverse mode at  13     Hk =   4.042
 MRCHUE: Inverse mode at  14     Hk =   5.144
 MRCHUE: Inverse mode at  15     Hk =   6.383
 MRCHUE: Inverse mode at  16     Hk =   7.815
 MRCHUE: Inverse mode at  17     Hk =   9.405
 MRCHUE: Inverse mode at  18     Hk =   7.726
 MRCHUE: Inverse mode at  19     Hk =   2.500
 MRCHUE: Inverse mode at  86     Hk =   2.500

 Side 1  free  transition at x/c =  0.9721   73
 Side 2  free  transition at x/c =  0.0459   18

   1   rms: 0.1952E+00   max: 0.1016E+01   D at   89  2   RLX: 0.518
       a = -4.000      CL = -0.4946
      Cm =  0.0062     CD =  0.01047   =>   CDf =  0.00737    CDp =  0.00310

 Side 1  free  transition at x/c =  0.9981   76
 Side 2  free  transition at x/c =  0.0511   19

   2   rms: 0.9742E-01   max: -.5358E+00   D at   86  2   RLX: 0.933
       a = -4.000      CL = -0.5307
      Cm =  0.0180     CD =  0.01155   =>   CDf =  0.00750    CDp =  0.00405

 Side 1 forced transition at x/c =  1.0000   76
 Side 2  free  transition at x/c =  0.0598   19

   3   rms: 0.6283E-01   max: 0.4609E+00   D at   19  2
       a = -4.000      CL = -0.4858
      Cm =  0.0087     CD =  0.01160   =>   CDf =  0.00749    CDp =  0.00411

 Side 1 forced transition at x/c =  1.0000   76
 Side 2  free  transition at x/c =  0.0858   21

   4   rms: 0.2873E-01   max: -.3076E+00   D at   21  2
       a = -4.000      CL = -0.4855
      Cm =  0.0085     CD =  0.01138   =>   CDf =  0.00737    CDp =  0.00401

 Side 1 forced transition at x/c =  1.0000   76
 Side 2  free  transition at x/c =  0.1050   23

   5   rms: 0.1059E-01   max: -.1573E+00   D at   22  2
       a = -4.000      CL = -0.4860
      Cm =  0.0085     CD =  0.01135   =>   CDf =  0.00722    CDp =  0.00412

 Side 1 forced transition at x/c =  1.0000   76
 Side 2  free  transition at x/c =  0.0978   22

   6   rms: 0.4356E-02   max: 0.9400E-01   C at   22  2
       a = -4.000      CL = -0.4859
      Cm =  0.0085     CD =  0.01135   =>   CDf =  0.00724    CDp =  0.00411

 Side 1 forced transition at x/c =  1.0000   76
 Side 2  free  transition at x/c =  0.0956   22

   7   rms: 0.1163E-03   max: -.2486E-02   C at   22  2
       a = -4.000      CL = -0.4859
      Cm =  0.0085     CD =  0.01135   =>   CDf =  0.00725    CDp =  0.00409

 Side 1 forced transition at x/c =  1.0000   76
 Side 2  free  transition at x/c =  0.0957   22

   8   rms: 0.1623E-05   max: 0.2548E-04   C at   22  2
       a = -4.000      CL = -0.4859
      Cm =  0.0085     CD =  0.01135   =>   CDf =  0.00725    CDp =  0.00410
 plradd ia,ip,cpol            1           0  3.85206798E-03

 Point added to stored polar  1
 Point written to save file  n63010a_Re300k.base.pol                         
 Dump file unspecified or not available
 Calculating wake trajectory ...
 Calculating source influence matrix ...

 Solving BL system ...

 Side 1 forced transition at x/c =  1.0000   76
 Side 2  free  transition at x/c =  0.0957   22

   1   rms: 0.3911E+00   max: -.7921E+01   C at   22  2   RLX: 0.063
       a = -3.500      CL = -0.4838
      Cm =  0.0087     CD =  0.01120   =>   CDf =  0.00725    CDp =  0.00395

 Side 1 forced transition at x/c =  1.0000   76
 Side 2  free  transition at x/c =  0.1064   23

   2   rms: 0.3956E+00   max: -.7680E+01   C at   23  2   RLX: 0.065
       a = -3.500      CL = -0.4813
      Cm =  0.0089     CD =  0.01107   =>   CDf =  0.00720    CDp =  0.00387

 Side 1 forced transition at x/c =  1.0000   76
 Side 2  free  transition at x/c =  0.1166   24

   3   rms: 0.3601E+00   max: -.6341E+01   C at   24  2   RLX: 0.079
       a = -3.500      CL = -0.4786
      Cm =  0.0092     CD =  0.01093   =>   CDf =  0.00715    CDp =  0.00377

 Side 1 forced transition at x/c =  1.0000   76
 Side 2  free  transition at x/c =  0.1301   25

   4   rms: 0.3684E+00   max: -.6880E+01   C at   25  2   RLX: 0.073
       a = -3.500      CL = -0.4762
      Cm =  0.0093     CD =  0.01081   =>   CDf =  0.00708    CDp =  0.00373

 Side 1 forced transition at x/c =  1.0000   76
 Side 2  free  transition at x/c =  0.1436   26

   5   rms: 0.4028E+00   max: -.7867E+01   C at   26  2   RLX: 0.064
       a = -3.500      CL = -0.4744
      Cm =  0.0095     CD =  0.01070   =>   CDf =  0.00700    CDp =  0.00370

 Side 1 forced transition at x/c =  1.0000   76
 Side 2  free  transition at x/c =  0.1572   26

   6   rms: 0.5090E+00   max: -.1062E+02   C at   26  2   RLX: 0.047
       a = -3.500      CL = -0.4731
      Cm =  0.0096     CD =  0.01064   =>   CDf =  0.00693    CDp =  0.00372

 Side 1 forced transition at x/c =  1.0000   76
 Side 2  free  transition at x/c =  0.1680   27

   7   rms: 0.5161E+00   max: -.1073E+02   C at   27  2   RLX: 0.047
       a = -3.500      CL = -0.4720
      Cm =  0.0096     CD =  0.01054   =>   CDf =  0.00687    CDp =  0.00367

 Side 1 forced transition at x/c =  1.0000   76
 Side 2  free  transition at x/c =  0.1788   28

   8   rms: 0.4989E+00   max: -.1030E+02   C at   28  2   RLX: 0.049
       a = -3.500      CL = -0.4709
      Cm =  0.0097     CD =  0.01045   =>   CDf =  0.00682    CDp =  0.00363

 Side 1 forced transition at x/c =  1.0000   76
 Side 2  free  transition at x/c =  0.1908   29

   9   rms: 0.4987E+00   max: -.1022E+02   C at   29  2   RLX: 0.049
       a = -3.500      CL = -0.4699
      Cm =  0.0097     CD =  0.01035   =>   CDf =  0.00676    CDp =  0.00359

 Side 1 forced transition at x/c =  1.0000   76
 Side 2  free  transition at x/c =  0.2040   30

  10   rms: 0.5000E+00   max: -.1016E+02   C at   30  2   RLX: 0.049
       a = -3.500      CL = -0.4690
      Cm =  0.0098     CD =  0.01024   =>   CDf =  0.00669    CDp =  0.00355

 Side 1 forced transition at x/c =  1.0000   76
 Side 2  free  transition at x/c =  0.2183   31

  11   rms: 0.4921E+00   max: -.9910E+01   C at   31  2   RLX: 0.050
       a = -3.500      CL = -0.4682
      Cm =  0.0098     CD =  0.01014   =>   CDf =  0.00662    CDp =  0.00352

 Side 1 forced transition at x/c =  1.0000   76
 Side 2  free  transition at x/c =  0.2336   32

  12   rms: 0.4678E+00   max: -.9313E+01   C at   32  2   RLX: 0.054
       a = -3.500      CL = -0.4674
      Cm =  0.0099     CD =  0.01003   =>   CDf =  0.00655    CDp =  0.00348

 Side 1 forced transition at x/c =  1.0000   76
 Side 2  free  transition at x/c =  0.2502   33

  13   rms: 0.4339E+00   max: -.8523E+01   C at   33  2   RLX: 0.059
       a = -3.500      CL = -0.4666
      Cm =  0.0099     CD =  0.00993   =>   CDf =  0.00648    CDp =  0.00345

 Side 1 forced transition at x/c =  1.0000   76
 Side 2  free  transition at x/c =  0.2683   34

  14   rms: 0.3882E+00   max: -.7482E+01   C at   34  2   RLX: 0.067
       a = -3.500      CL = -0.4658
      Cm =  0.0099     CD =  0.00982   =>   CDf =  0.00640    CDp =  0.00342

 Side 1 forced transition at x/c =  1.0000   76
 Side 2  free  transition at x/c =  0.2892   36

  15   rms: 0.3842E+00   max: -.7411E+01   C at   36  2   RLX: 0.067
       a = -3.500      CL = -0.4654
      Cm =  0.0100     CD =  0.00966   =>   CDf =  0.00630    CDp =  0.00336

 Side 1 forced transition at x/c =  1.0000   76
 Side 2  free  transition at x/c =  0.3058   37

  16   rms: 0.3313E+00   max: -.6320E+01   C at   37  2   RLX: 0.079
       a = -3.500      CL = -0.4645
      Cm =  0.0100     CD =  0.00956   =>   CDf =  0.00622    CDp =  0.00334

 Side 1 forced transition at x/c =  1.0000   76
 Side 2  free  transition at x/c =  0.3247   38

  17   rms: 0.2535E+00   max: -.4754E+01   C at   38  2   RLX: 0.105
       a = -3.500      CL = -0.4633
      Cm =  0.0101     CD =  0.00946   =>   CDf =  0.00614    CDp =  0.00332

 Side 1 forced transition at x/c =  1.0000   76
 Side 2  free  transition at x/c =  0.3501   40

  18   rms: 0.2212E+00   max: -.4124E+01   C at   40  2   RLX: 0.121
       a = -3.500      CL = -0.4626
      Cm =  0.0102     CD =  0.00930   =>   CDf =  0.00602    CDp =  0.00328

 Side 1  free  transition at x/c =  0.9996   76
 Side 2  free  transition at x/c =  0.3712   41

  19   rms: 0.1605E+00   max: -.2913E+01   C at   41  2   RLX: 0.172
       a = -3.500      CL = -0.4590
      Cm =  0.0099     CD =  0.00922   =>   CDf =  0.00594    CDp =  0.00329

 Side 1  free  transition at x/c =  0.9991   76
 Side 2  free  transition at x/c =  0.4102   44

  20   rms: 0.6891E-01   max: -.1084E+01   C at   44  2   RLX: 0.461
       a = -3.500      CL = -0.4514
      Cm =  0.0092     CD =  0.00899   =>   CDf =  0.00587    CDp =  0.00312

 Side 1  free  transition at x/c =  0.9979   77
 Side 2  free  transition at x/c =  0.4716   47

  21   rms: 0.3194E-01   max: -.3814E+00   T at    2  1
       a = -3.500      CL = -0.4417
      Cm =  0.0083     CD =  0.00880   =>   CDf =  0.00559    CDp =  0.00322

 Side 1  free  transition at x/c =  0.9964   77
 Side 2  free  transition at x/c =  0.5165   51

  22   rms: 0.1885E-01   max: 0.2799E+00   C at   51  2
       a = -3.500      CL = -0.4427
      Cm =  0.0085     CD =  0.00867   =>   CDf =  0.00535    CDp =  0.00331

 Side 1  free  transition at x/c =  0.9965   77
 Side 2  free  transition at x/c =  0.4979   49

  23   rms: 0.1635E-02   max: -.2299E-01   D at   53  2
       a = -3.500      CL = -0.4429
      Cm =  0.0085     CD =  0.00865   =>   CDf =  0.00540    CDp =  0.00325

 Side 1  free  transition at x/c =  0.9965   77
 Side 2  free  transition at x/c =  0.4969   49

  24   rms: 0.4575E-04   max: -.7640E-03   C at   49  2
       a = -3.500      CL = -0.4429
      Cm =  0.0085     CD =  0.00865   =>   CDf =  0.00540    CDp =  0.00325
 plradd ia,ip,cpol            2           0  3.85206798E-03

 Point added to stored polar  1
 Point written to save file  n63010a_Re300k.base.pol                         
 Dump file unspecified or not available
 Calculating wake trajectory ...
 Calculating source influence matrix ...

 Solving BL system ...

 Side 1  free  transition at x/c =  0.9965   77
 Side 2  free  transition at x/c =  0.4970   49

   1   rms: 0.2968E+00   max: -.4650E+01   C at   49  2   RLX: 0.108
       a = -3.000      CL = -0.4349
      Cm =  0.0080     CD =  0.00854   =>   CDf =  0.00540    CDp =  0.00314

 Side 1  free  transition at x/c =  0.9953   77
 Side 2  free  transition at x/c =  0.5277   51

   2   rms: 0.1552E+00   max: -.1139E+01   C at   51  2   RLX: 0.439
       a = -3.000      CL = -0.4033
      Cm =  0.0058     CD =  0.00846   =>   CDf =  0.00528    CDp =  0.00318

 MRCHDU: Convergence failed at  59  side 2    Res =  0.4084E+01
 MRCHDU: Convergence failed at  60  side 2    Res =  0.2153E+01
 MRCHDU: Convergence failed at  61  side 2    Res =  0.2702E+01
 MRCHDU: Convergence failed at  62  side 2    Res =  0.3198E+01
 MRCHDU: Convergence failed at  63  side 2    Res =  0.3589E+01
 MRCHDU: Convergence failed at  64  side 2    Res =  0.3833E+01
 MRCHDU: Convergence failed at  65  side 2    Res =  0.3975E+01
 MRCHDU: Convergence failed at  66  side 2    Res =  0.4031E+01
 MRCHDU: Convergence failed at  67  side 2    Res =  0.4033E+01
 MRCHDU: Convergence failed at  68  side 2    Res =  0.4035E+01
 MRCHDU: Convergence failed at  69  side 2    Res =  0.3995E+01
 MRCHDU: Convergence failed at  70  side 2    Res =  0.3948E+01
 MRCHDU: Convergence failed at  71  side 2    Res =  0.3902E+01
 MRCHDU: Convergence failed at  72  side 2    Res =  0.3860E+01
 MRCHDU: Convergence failed at  73  side 2    Res =  0.3821E+01
 MRCHDU: Convergence failed at  74  side 2    Res =  0.3793E+01
 MRCHDU: Convergence failed at  75  side 2    Res =  0.3765E+01
 MRCHDU: Convergence failed at  76  side 2    Res =  0.3743E+01
 MRCHDU: Convergence failed at  77  side 2    Res =  0.3719E+01
 MRCHDU: Convergence failed at  78  side 2    Res =  0.3698E+01
 MRCHDU: Convergence failed at  79  side 2    Res =  0.3679E+01
 MRCHDU: Convergence failed at  80  side 2    Res =  0.3650E+01
 MRCHDU: Convergence failed at  81  side 2    Res =  0.3623E+01
 MRCHDU: Convergence failed at  82  side 2    Res =  0.3578E+01
 MRCHDU: Convergence failed at  83  side 2    Res =  0.3742E+01
 MRCHDU: Convergence failed at  84  side 2    Res =  0.4207E+01
 MRCHDU: Convergence failed at  85  side 2    Res =  0.4749E+01
 Side 1  free  transition at x/c =  0.9915   76
 Side 2  free  transition at x/c =  0.6387   59

   3   rms: 0.2151E+00   max: 0.8266E+00   D at   89  2
       a = -3.000      CL = -0.3623
      Cm =  0.0044     CD =  0.00709   =>   CDf =  0.00373    CDp =  0.00336

 Side 1 forced transition at x/c =  1.0000   77
 Side 2  free  transition at x/c =  0.6578   60

   4   rms: 0.1192E+00   max: -.1024E+01   C at   60  2   RLX: 0.488
       a = -3.000      CL = -0.3891
      Cm =  0.0088     CD =  0.00825   =>   CDf =  0.00511    CDp =  0.00314

 Side 1  free  transition at x/c =  0.9684   74
 Side 2  free  transition at x/c =  0.6406   59

   5   rms: 0.9146E-01   max: -.5301E+00   D at   77  1   RLX: 0.943
       a = -3.000      CL = -0.3620
      Cm =  0.0029     CD =  0.00798   =>   CDf =  0.00497    CDp =  0.00301

 Side 1  free  transition at x/c =  0.9920   76
 Side 2  free  transition at x/c =  0.6458   60

   6   rms: 0.2515E-01   max: 0.2472E+00   C at   76  1
       a = -3.000      CL = -0.3669
      Cm =  0.0039     CD =  0.00812   =>   CDf =  0.00496    CDp =  0.00316

 Side 1  free  transition at x/c =  0.9847   75
 Side 2  free  transition at x/c =  0.6435   59

   7   rms: 0.1639E-02   max: -.2622E-01   D at   76  1
       a = -3.000      CL = -0.3667
      Cm =  0.0039     CD =  0.00814   =>   CDf =  0.00493    CDp =  0.00320

 Side 1  free  transition at x/c =  0.9851   75
 Side 2  free  transition at x/c =  0.6432   59

   8   rms: 0.2026E-04   max: -.1959E-03   T at   75  1
       a = -3.000      CL = -0.3667
      Cm =  0.0039     CD =  0.00814   =>   CDf =  0.00493    CDp =  0.00320
 plradd ia,ip,cpol            3           0  3.85206798E-03

 Point added to stored polar  1
 Point written to save file  n63010a_Re300k.base.pol                         
 Dump file unspecified or not available
 Calculating wake trajectory ...
 Calculating source influence matrix ...

 Solving BL system ...

 Side 1  free  transition at x/c =  0.9851   75
 Side 2  free  transition at x/c =  0.6432   59

   1   rms: 0.1102E+00   max: 0.3354E+00   D at   60  2
       a = -2.500      CL = -0.2997
      Cm =  0.0013     CD =  0.00803   =>   CDf =  0.00501    CDp =  0.00302

 Side 1  free  transition at x/c =  0.9619   74
 Side 2  free  transition at x/c =  0.7005   62

   2   rms: 0.6260E-01   max: -.4285E+00   T at   74  1
       a = -2.500      CL = -0.2643
      Cm = -0.0062     CD =  0.00807   =>   CDf =  0.00496    CDp =  0.00311

 MRCHDU: Convergence failed at  78  side 1    Res =  0.2831E+01
 Side 1  free  transition at x/c =  0.9980   78
 Side 2  free  transition at x/c =  0.7210   64

   3   rms: 0.8419E-01   max: 0.1070E+01   C at   78  1
       a = -2.500      CL = -0.2907
      Cm = -0.0009     CD =  0.00774   =>   CDf =  0.00480    CDp =  0.00294

 Side 1  free  transition at x/c =  0.9620   74
 Side 2  free  transition at x/c =  0.7097   63

   4   rms: 0.4806E-01   max: -.5052E+00   D at   77  1   RLX: 0.990
       a = -2.500      CL = -0.2736
      Cm = -0.0040     CD =  0.00820   =>   CDf =  0.00481    CDp =  0.00339

 MRCHDU: Convergence failed at  78  side 1    Res =  0.1346E+01
 Side 1  free  transition at x/c =  0.9876   77
 Side 2  free  transition at x/c =  0.7122   63

   5   rms: 0.5705E-01   max: 0.5337E+00   C at   77  1
       a = -2.500      CL = -0.2816
      Cm = -0.0023     CD =  0.00778   =>   CDf =  0.00483    CDp =  0.00295

 Side 1  free  transition at x/c =  0.9802   76
 Side 2  free  transition at x/c =  0.7091   63

   6   rms: 0.2350E-01   max: 0.1659E+00   D at   78  1
       a = -2.500      CL = -0.2923
      Cm =  0.0000     CD =  0.00797   =>   CDf =  0.00484    CDp =  0.00313

 Side 1  free  transition at x/c =  0.9696   75
 Side 2  free  transition at x/c =  0.7058   63

   7   rms: 0.9264E-02   max: -.8728E-01   D at   75  1
       a = -2.500      CL = -0.2912
      Cm = -0.0002     CD =  0.00798   =>   CDf =  0.00484    CDp =  0.00313

 Side 1  free  transition at x/c =  0.9721   75
 Side 2  free  transition at x/c =  0.7064   63

   8   rms: 0.1291E-02   max: 0.9854E-02   D at   78  1
       a = -2.500      CL = -0.2917
      Cm = -0.0001     CD =  0.00798   =>   CDf =  0.00484    CDp =  0.00314

 Side 1  free  transition at x/c =  0.9715   75
 Side 2  free  transition at x/c =  0.7062   63

   9   rms: 0.3528E-04   max: -.3272E-03   D at   77  1
       a = -2.500      CL = -0.2917
      Cm = -0.0001     CD =  0.00798   =>   CDf =  0.00484    CDp =  0.00314
 plradd ia,ip,cpol            4           0  6.08018087E-03

 Point added to stored polar  1
 Point written to save file  n63010a_Re300k.base.pol                         
 Dump file unspecified or not available
 Calculating wake trajectory ...
 Calculating source influence matrix ...

 Solving BL system ...

 Side 1  free  transition at x/c =  0.9715   75
 Side 2  free  transition at x/c =  0.7062   63

   1   rms: 0.1306E+00   max: 0.7170E+00   D at   64  2   RLX: 0.873
       a = -2.000      CL = -0.2341
      Cm = -0.0014     CD =  0.00783   =>   CDf =  0.00484    CDp =  0.00299

 Side 1  free  transition at x/c =  0.9545   74
 Side 2  free  transition at x/c =  0.7336   65

   2   rms: 0.8241E-01   max: -.7131E+00   T at   66  2   RLX: 0.701
       a = -2.000      CL = -0.2245
      Cm = -0.0029     CD =  0.00788   =>   CDf =  0.00505    CDp =  0.00283

 Side 1  free  transition at x/c =  0.9556   75
 Side 2  free  transition at x/c =  0.7459   64

   3   rms: 0.5226E-01   max: -.5424E+00   D at   65  2   RLX: 0.922
       a = -2.000      CL = -0.2227
      Cm = -0.0028     CD =  0.00837   =>   CDf =  0.00497    CDp =  0.00339

 MRCHDU: Convergence failed at  66  side 2    Res =  0.3039E+01
 MRCHDU: Convergence failed at  67  side 2    Res =  0.2068E+01
 MRCHDU: Convergence failed at  68  side 2    Res =  0.3008E+01
 MRCHDU: Convergence failed at  69  side 2    Res =  0.4941E+01
 MRCHDU: Convergence failed at  70  side 2    Res =  0.8286E+01
 MRCHDU: Convergence failed at  71  side 2    Res =  0.1249E+02
 MRCHDU: Convergence failed at  72  side 2    Res =  0.1713E+02
 MRCHDU: Convergence failed at  73  side 2    Res =  0.2070E+02
 MRCHDU: Convergence failed at  74  side 2    Res =  0.2262E+02
 MRCHDU: Convergence failed at  75  side 2    Res =  0.2336E+02
 MRCHDU: Convergence failed at  76  side 2    Res =  0.2241E+02
 MRCHDU: Convergence failed at  77  side 2    Res =  0.2120E+02
 MRCHDU: Convergence failed at  78  side 2    Res =  0.2050E+02
 MRCHDU: Convergence failed at  79  side 2    Res =  0.1829E+02
 MRCHDU: Convergence failed at  80  side 2    Res =  0.1527E+02
 MRCHDU: Convergence failed at  81  side 2    Res =  0.1324E+02
 MRCHDU: Convergence failed at  82  side 2    Res =  0.1164E+02
 MRCHDU: Convergence failed at  83  side 2    Res =  0.9624E+01
 Side 1  free  transition at x/c =  0.9533   75
 Side 2  free  transition at x/c =  0.7688   66

   4   rms: 0.1895E+00   max: 0.7547E+00   T at   74  2
       a = -2.000      CL = -0.1817
      Cm = -0.0109     CD =  0.00716   =>   CDf =  0.00405    CDp =  0.00311

 Side 1  free  transition at x/c =  0.9722   76
 Side 2  free  transition at x/c =  0.7542   65

   5   rms: 0.6984E-01   max: -.3261E+00   D at   88  2
       a = -2.000      CL = -0.2287
      Cm = -0.0012     CD =  0.00768   =>   CDf =  0.00483    CDp =  0.00285

 Side 1  free  transition at x/c =  0.9500   75
 Side 2  free  transition at x/c =  0.7584   65

   6   rms: 0.2698E-01   max: -.2106E+00   D at   75  1
       a = -2.000      CL = -0.2209
      Cm = -0.0028     CD =  0.00785   =>   CDf =  0.00476    CDp =  0.00309

 Side 1  free  transition at x/c =  0.9574   75
 Side 2  free  transition at x/c =  0.7579   65

   7   rms: 0.6618E-02   max: 0.4048E-01   D at   77  1
       a = -2.000      CL = -0.2232
      Cm = -0.0023     CD =  0.00789   =>   CDf =  0.00476    CDp =  0.00313

 Side 1  free  transition at x/c =  0.9545   75
 Side 2  free  transition at x/c =  0.7576   65

   8   rms: 0.8521E-03   max: -.6372E-02   D at   76  1
       a = -2.000      CL = -0.2230
      Cm = -0.0023     CD =  0.00789   =>   CDf =  0.00476    CDp =  0.00313

 Side 1  free  transition at x/c =  0.9548   75
 Side 2  free  transition at x/c =  0.7576   65

   9   rms: 0.3433E-05   max: -.1768E-04   T at   77  1
       a = -2.000      CL = -0.2230
      Cm = -0.0023     CD =  0.00789   =>   CDf =  0.00476    CDp =  0.00313
 plradd ia,ip,cpol            5           0  6.08018087E-03

 Point added to stored polar  1
 Point written to save file  n63010a_Re300k.base.pol                         
 Dump file unspecified or not available
 Calculating wake trajectory ...
 Calculating source influence matrix ...

 Solving BL system ...

 Side 1  free  transition at x/c =  0.9548   75
 Side 2  free  transition at x/c =  0.7576   65

   1   rms: 0.1038E+00   max: -.4838E+00   T at   65  2
       a = -1.500      CL = -0.1552
      Cm = -0.0046     CD =  0.00784   =>   CDf =  0.00476    CDp =  0.00308

 Side 1  free  transition at x/c =  0.9363   74
 Side 2  free  transition at x/c =  0.7870   67

   2   rms: 0.1766E-01   max: 0.2182E+00   D at   68  2
       a = -1.500      CL = -0.1591
      Cm = -0.0035     CD =  0.00774   =>   CDf =  0.00471    CDp =  0.00303

 Side 1  free  transition at x/c =  0.9355   74
 Side 2  free  transition at x/c =  0.7889   67

   3   rms: 0.1096E-02   max: 0.1191E-01   C at   67  2
       a = -1.500      CL = -0.1592
      Cm = -0.0035     CD =  0.00777   =>   CDf =  0.00475    CDp =  0.00302

 Side 1  free  transition at x/c =  0.9355   74
 Side 2  free  transition at x/c =  0.7893   67

   4   rms: 0.1996E-04   max: -.2608E-03   D at   68  2
       a = -1.500      CL = -0.1592
      Cm = -0.0035     CD =  0.00777   =>   CDf =  0.00475    CDp =  0.00302
 plradd ia,ip,cpol            6           0  6.08018087E-03

 Point added to stored polar  1
 Point written to save file  n63010a_Re300k.base.pol                         
 Dump file unspecified or not available
 Calculating wake trajectory ...
 Calculating source influence matrix ...

 Solving BL system ...

 Side 1  free  transition at x/c =  0.9355   74
 Side 2  free  transition at x/c =  0.7893   67

   1   rms: 0.1003E+00   max: -.4073E+00   T at   67  2
       a = -1.000      CL = -0.0940
      Cm = -0.0052     CD =  0.00770   =>   CDf =  0.00479    CDp =  0.00291

 Side 1  free  transition at x/c =  0.9187   73
 Side 2  free  transition at x/c =  0.8184   68

   2   rms: 0.2427E-01   max: -.2391E+00   C at   68  2
       a = -1.000      CL = -0.1034
      Cm = -0.0029     CD =  0.00765   =>   CDf =  0.00478    CDp =  0.00286

 Side 1  free  transition at x/c =  0.9100   73
 Side 2  free  transition at x/c =  0.8125   68

   3   rms: 0.4097E-02   max: -.3450E-01   C at   73  1
       a = -1.000      CL = -0.1038
      Cm = -0.0029     CD =  0.00764   =>   CDf =  0.00475    CDp =  0.00289

 Side 1  free  transition at x/c =  0.9112   73
 Side 2  free  transition at x/c =  0.8131   68

   4   rms: 0.2106E-03   max: -.2242E-02   D at   76  1
       a = -1.000      CL = -0.1039
      Cm = -0.0028     CD =  0.00764   =>   CDf =  0.00474    CDp =  0.00290

 Side 1  free  transition at x/c =  0.9111   73
 Side 2  free  transition at x/c =  0.8131   68

   5   rms: 0.1123E-05   max: -.8062E-05   C at   73  1
       a = -1.000      CL = -0.1039
      Cm = -0.0028     CD =  0.00764   =>   CDf =  0.00474    CDp =  0.00290
 plradd ia,ip,cpol            7           0  1.87141411E-02

 Point added to stored polar  1
 Point written to save file  n63010a_Re300k.base.pol                         
 Dump file unspecified or not available
 Calculating wake trajectory ...
 Calculating source influence matrix ...

 Solving BL system ...

 Side 1  free  transition at x/c =  0.9111   73
 Side 2  free  transition at x/c =  0.8131   68

   1   rms: 0.8988E-01   max: -.3283E+00   T at   68  2
       a = -0.500      CL = -0.0496
      Cm = -0.0019     CD =  0.00755   =>   CDf =  0.00474    CDp =  0.00281

 Side 1  free  transition at x/c =  0.8887   71
 Side 2  free  transition at x/c =  0.8362   70

   2   rms: 0.1801E-01   max: -.2370E+00   D at   72  1
       a = -0.500      CL = -0.0513
      Cm = -0.0016     CD =  0.00755   =>   CDf =  0.00478    CDp =  0.00276

 Side 1  free  transition at x/c =  0.8867   71
 Side 2  free  transition at x/c =  0.8375   70

   3   rms: 0.1165E-02   max: 0.1331E-01   D at   72  1
       a = -0.500      CL = -0.0514
      Cm = -0.0016     CD =  0.00757   =>   CDf =  0.00475    CDp =  0.00282

 Side 1  free  transition at x/c =  0.8864   71
 Side 2  free  transition at x/c =  0.8372   70

   4   rms: 0.8737E-05   max: -.1174E-03   D at   73  2
       a = -0.500      CL = -0.0514
      Cm = -0.0016     CD =  0.00757   =>   CDf =  0.00475    CDp =  0.00282
 plradd ia,ip,cpol            8           0  0.28575104    

 Point added to stored polar  1
 Point written to save file  n63010a_Re300k.base.pol                         
 Dump file unspecified or not available
 Calculating wake trajectory ...
 Calculating source influence matrix ...

 Solving BL system ...

 Side 1  free  transition at x/c =  0.8864   71
 Side 2  free  transition at x/c =  0.8372   70

   1   rms: 0.8786E-01   max: -.3402E+00   T at   70  2
       a =  0.000      CL = -0.0005
      Cm =  0.0002     CD =  0.00750   =>   CDf =  0.00477    CDp =  0.00273

 Side 1  free  transition at x/c =  0.8600   70
 Side 2  free  transition at x/c =  0.8564   70

   2   rms: 0.2569E-01   max: -.2797E+00   D at   71  1
       a =  0.000      CL = -0.0000
      Cm =  0.0000     CD =  0.00752   =>   CDf =  0.00482    CDp =  0.00270

 Side 1  free  transition at x/c =  0.8629   71
 Side 2  free  transition at x/c =  0.8628   70

   3   rms: 0.1823E-02   max: -.1609E-01   C at   70  2
       a =  0.000      CL =  0.0000
      Cm =  0.0000     CD =  0.00755   =>   CDf =  0.00478    CDp =  0.00277

 Side 1  free  transition at x/c =  0.8626   70
 Side 2  free  transition at x/c =  0.8622   70

   4   rms: 0.5135E-03   max: 0.7463E-02   D at   71  1
       a =  0.000      CL = -0.0000
      Cm =  0.0000     CD =  0.00755   =>   CDf =  0.00478    CDp =  0.00277

 Side 1  free  transition at x/c =  0.8623   70
 Side 2  free  transition at x/c =  0.8623   70

   5   rms: 0.7061E-05   max: -.8368E-04   D at   71  1
       a =  0.000      CL = -0.0000
      Cm =  0.0000     CD =  0.00755   =>   CDf =  0.00478    CDp =  0.00277
 plradd ia,ip,cpol            9           0  0.30004290    

 Point added to stored polar  1
 Point written to save file  n63010a_Re300k.base.pol                         
 Dump file unspecified or not available
 Calculating wake trajectory ...
 Calculating source influence matrix ...

 Solving BL system ...

 Side 1  free  transition at x/c =  0.8623   70
 Side 2  free  transition at x/c =  0.8623   70

   1   rms: 0.8679E-01   max: -.3561E+00   T at   70  2
       a =  0.500      CL =  0.0494
      Cm =  0.0012     CD =  0.00755   =>   CDf =  0.00478    CDp =  0.00277

 MRCHDU: Convergence failed at  72  side 2    Res =  0.5062E+01
 MRCHDU: Convergence failed at  73  side 2    Res =  0.3693E+01
 MRCHDU: Convergence failed at  74  side 2    Res =  0.2213E+01
 MRCHDU: Convergence failed at  75  side 2    Res =  0.2829E+01
 MRCHDU: Convergence failed at  76  side 2    Res =  0.3987E+01
 MRCHDU: Convergence failed at  77  side 2    Res =  0.5141E+01
 MRCHDU: Convergence failed at  78  side 2    Res =  0.6056E+01
 MRCHDU: Convergence failed at  79  side 2    Res =  0.6537E+01
 MRCHDU: Convergence failed at  80  side 2    Res =  0.6162E+01
 Side 1  free  transition at x/c =  0.8309   69
 Side 2  free  transition at x/c =  0.8968   72

   2   rms: 0.1241E+00   max: 0.7980E+00   T at   80  2
       a =  0.500      CL =  0.0702
      Cm = -0.0023     CD =  0.00739   =>   CDf =  0.00465    CDp =  0.00274

 Side 1  free  transition at x/c =  0.8423   70
 Side 2  free  transition at x/c =  0.8744   70

   3   rms: 0.3617E-01   max: -.3360E+00   D at   71  2
       a =  0.500      CL =  0.0508
      Cm =  0.0015     CD =  0.00762   =>   CDf =  0.00475    CDp =  0.00286

 Side 1  free  transition at x/c =  0.8377   70
 Side 2  free  transition at x/c =  0.8914   71

   4   rms: 0.1403E-01   max: -.1661E+00   C at   71  2
       a =  0.500      CL =  0.0519
      Cm =  0.0015     CD =  0.00758   =>   CDf =  0.00477    CDp =  0.00281

 Side 1  free  transition at x/c =  0.8373   70
 Side 2  free  transition at x/c =  0.8850   71

   5   rms: 0.2718E-02   max: 0.2591E-01   D at   74  2
       a =  0.500      CL =  0.0513
      Cm =  0.0016     CD =  0.00757   =>   CDf =  0.00476    CDp =  0.00281

 Side 1  free  transition at x/c =  0.8372   70
 Side 2  free  transition at x/c =  0.8864   71

   6   rms: 0.1031E-03   max: -.1225E-02   D at   72  2
       a =  0.500      CL =  0.0513
      Cm =  0.0016     CD =  0.00757   =>   CDf =  0.00475    CDp =  0.00282

 Side 1  free  transition at x/c =  0.8372   70
 Side 2  free  transition at x/c =  0.8864   71

   7   rms: 0.1359E-05   max: 0.1293E-04   D at    4  1
       a =  0.500      CL =  0.0513
      Cm =  0.0016     CD =  0.00757   =>   CDf =  0.00475    CDp =  0.00282
 plradd ia,ip,cpol           10           0  0.28575096    

 Point added to stored polar  1
 Point written to save file  n63010a_Re300k.base.pol                         
 Dump file unspecified or not available
 Calculating wake trajectory ...
 Calculating source influence matrix ...

 Solving BL system ...

 Side 1  free  transition at x/c =  0.8372   70
 Side 2  free  transition at x/c =  0.8864   71

   1   rms: 0.8783E-01   max: -.3096E+00   T at   71  2
       a =  1.000      CL =  0.1023
      Cm =  0.0032     CD =  0.00762   =>   CDf =  0.00475    CDp =  0.00287

 Side 1  free  transition at x/c =  0.8164   68
 Side 2  free  transition at x/c =  0.9123   73

   2   rms: 0.1894E-01   max: -.2447E+00   D at   69  1
       a =  1.000      CL =  0.1039
      Cm =  0.0028     CD =  0.00762   =>   CDf =  0.00472    CDp =  0.00290

 Side 1  free  transition at x/c =  0.8134   68
 Side 2  free  transition at x/c =  0.9114   73

   3   rms: 0.1613E-02   max: 0.1386E-01   C at   73  2
       a =  1.000      CL =  0.1038
      Cm =  0.0028     CD =  0.00764   =>   CDf =  0.00474    CDp =  0.00290

 Side 1  free  transition at x/c =  0.8131   68
 Side 2  free  transition at x/c =  0.9111   73

   4   rms: 0.3266E-04   max: -.2584E-03   D at   77  2
       a =  1.000      CL =  0.1039
      Cm =  0.0028     CD =  0.00764   =>   CDf =  0.00474    CDp =  0.00290
 plradd ia,ip,cpol           11           0  1.87140182E-02

 Point added to stored polar  1
 Point written to save file  n63010a_Re300k.base.pol                         
 Dump file unspecified or not available
 Calculating wake trajectory ...
 Calculating source influence matrix ...

 Solving BL system ...

 Side 1  free  transition at x/c =  0.8131   68
 Side 2  free  transition at x/c =  0.9111   73

   1   rms: 0.8983E-01   max: -.3027E+00   T at   73  2
       a =  1.500      CL =  0.1582
      Cm =  0.0038     CD =  0.00772   =>   CDf =  0.00473    CDp =  0.00298

 Side 1  free  transition at x/c =  0.7873   67
 Side 2  free  transition at x/c =  0.9316   73

   2   rms: 0.2445E-01   max: -.2971E+00   D at   68  1
       a =  1.500      CL =  0.1574
      Cm =  0.0039     CD =  0.00776   =>   CDf =  0.00476    CDp =  0.00300

 Side 1  free  transition at x/c =  0.7899   67
 Side 2  free  transition at x/c =  0.9371   74

   3   rms: 0.3552E-02   max: -.2944E-01   D at   73  2
       a =  1.500      CL =  0.1591
      Cm =  0.0035     CD =  0.00777   =>   CDf =  0.00475    CDp =  0.00302

 Side 1  free  transition at x/c =  0.7893   67
 Side 2  free  transition at x/c =  0.9357   74

   4   rms: 0.3053E-03   max: -.2814E-02   D at   79  2
       a =  1.500      CL =  0.1592
      Cm =  0.0035     CD =  0.00777   =>   CDf =  0.00475    CDp =  0.00302

 Side 1  free  transition at x/c =  0.7893   67
 Side 2  free  transition at x/c =  0.9356   74

   5   rms: 0.1508E-05   max: -.1352E-04   D at   79  2
       a =  1.500      CL =  0.1592
      Cm =  0.0035     CD =  0.00777   =>   CDf =  0.00475    CDp =  0.00302
 plradd ia,ip,cpol           12           0  6.08008029E-03

 Point added to stored polar  1
 Point written to save file  n63010a_Re300k.base.pol                         
 Dump file unspecified or not available
 Calculating wake trajectory ...
 Calculating source influence matrix ...

 Solving BL system ...

 Side 1  free  transition at x/c =  0.7893   67
 Side 2  free  transition at x/c =  0.9356   74

   1   rms: 0.1002E+00   max: 0.2773E+00   D at   77  2
       a =  2.000      CL =  0.2245
      Cm =  0.0018     CD =  0.00783   =>   CDf =  0.00475    CDp =  0.00308

 Side 1  free  transition at x/c =  0.7467   65
 Side 2  free  transition at x/c =  0.9495   75

   2   rms: 0.5668E-01   max: -.4787E+00   D at   66  1
       a =  2.000      CL =  0.2181
      Cm =  0.0035     CD =  0.00782   =>   CDf =  0.00483    CDp =  0.00299

 Side 1  free  transition at x/c =  0.7599   65
 Side 2  free  transition at x/c =  0.9564   75

   3   rms: 0.7718E-02   max: -.6157E-01   D at   76  2
       a =  2.000      CL =  0.2233
      Cm =  0.0022     CD =  0.00789   =>   CDf =  0.00477    CDp =  0.00312

 Side 1  free  transition at x/c =  0.7573   65
 Side 2  free  transition at x/c =  0.9544   75

   4   rms: 0.1435E-02   max: -.7703E-02   D at   66  1
       a =  2.000      CL =  0.2230
      Cm =  0.0023     CD =  0.00789   =>   CDf =  0.00476    CDp =  0.00313

 Side 1  free  transition at x/c =  0.7576   65
 Side 2  free  transition at x/c =  0.9548   75

   5   rms: 0.7883E-05   max: -.5062E-04   D at   66  1
       a =  2.000      CL =  0.2230
      Cm =  0.0023     CD =  0.00789   =>   CDf =  0.00476    CDp =  0.00313
 plradd ia,ip,cpol           13           0  6.08008029E-03

 Point added to stored polar  1
 Point written to save file  n63010a_Re300k.base.pol                         
 Dump file unspecified or not available
 Calculating wake trajectory ...
 Calculating source influence matrix ...

 Solving BL system ...

 Side 1  free  transition at x/c =  0.7576   65
 Side 2  free  transition at x/c =  0.9548   75

   1   rms: 0.1037E+00   max: -.2363E+00   T at   75  2
       a =  2.500      CL =  0.2911
      Cm = -0.0000     CD =  0.00794   =>   CDf =  0.00473    CDp =  0.00321

 Side 1  free  transition at x/c =  0.6895   62
 Side 2  free  transition at x/c =  0.9715   75

   2   rms: 0.4655E-01   max: -.4959E+00   D at   63  1
       a =  2.500      CL =  0.2907
      Cm =  0.0003     CD =  0.00795   =>   CDf =  0.00507    CDp =  0.00288

 Side 1  free  transition at x/c =  0.7117   63
 Side 2  free  transition at x/c =  0.9719   75

   3   rms: 0.1320E-01   max: 0.1764E+00   C at   63  1
       a =  2.500      CL =  0.2916
      Cm =  0.0001     CD =  0.00797   =>   CDf =  0.00479    CDp =  0.00319

 Side 1  free  transition at x/c =  0.7067   63
 Side 2  free  transition at x/c =  0.9716   75

   4   rms: 0.1332E-02   max: -.1745E-01   D at   65  1
       a =  2.500      CL =  0.2917
      Cm =  0.0001     CD =  0.00798   =>   CDf =  0.00484    CDp =  0.00315

 Side 1  free  transition at x/c =  0.7062   63
 Side 2  free  transition at x/c =  0.9716   75

   5   rms: 0.1868E-04   max: -.2080E-03   D at   63  1
       a =  2.500      CL =  0.2917
      Cm =  0.0001     CD =  0.00798   =>   CDf =  0.00484    CDp =  0.00314
 plradd ia,ip,cpol           14           0  6.08008029E-03

 Point added to stored polar  1
 Point written to save file  n63010a_Re300k.base.pol                         
 Dump file unspecified or not available
 Calculating wake trajectory ...
 Calculating source influence matrix ...

 Solving BL system ...

 Side 1  free  transition at x/c =  0.7062   63
 Side 2  free  transition at x/c =  0.9716   75

   1   rms: 0.1307E+00   max: -.7181E+00   D at   64  1   RLX: 0.696
       a =  3.000      CL =  0.3378
      Cm = -0.0011     CD =  0.00810   =>   CDf =  0.00479    CDp =  0.00331

 Side 1  free  transition at x/c =  0.6659   61
 Side 2  free  transition at x/c =  0.9847   75

   2   rms: 0.7076E-01   max: 0.8646E+00   D at    2  1
       a =  3.000      CL =  0.3669
      Cm = -0.0040     CD =  0.00808   =>   CDf =  0.00489    CDp =  0.00319

 Side 1  free  transition at x/c =  0.6418   59
 Side 2  free  transition at x/c =  0.9851   75

   3   rms: 0.1009E-01   max: -.1270E+00   D at   60  1
       a =  3.000      CL =  0.3666
      Cm = -0.0039     CD =  0.00813   =>   CDf =  0.00495    CDp =  0.00318

 Side 1  free  transition at x/c =  0.6435   59
 Side 2  free  transition at x/c =  0.9853   76

   4   rms: 0.1207E-02   max: 0.9339E-02   C at   76  2
       a =  3.000      CL =  0.3667
      Cm = -0.0039     CD =  0.00814   =>   CDf =  0.00493    CDp =  0.00320

 Side 1  free  transition at x/c =  0.6432   59
 Side 2  free  transition at x/c =  0.9852   76

   5   rms: 0.3643E-05   max: -.3666E-04   D at   77  2
       a =  3.000      CL =  0.3667
      Cm = -0.0039     CD =  0.00814   =>   CDf =  0.00493    CDp =  0.00320
 plradd ia,ip,cpol           15           0  3.85197648E-03

 Point added to stored polar  1
 Point written to save file  n63010a_Re300k.base.pol                         
 Dump file unspecified or not available
 Calculating wake trajectory ...
 Calculating source influence matrix ...

 Solving BL system ...

 Side 1  free  transition at x/c =  0.6432   59
 Side 2  free  transition at x/c =  0.9852   76

   1   rms: 0.1177E+00   max: -.2002E+00   T at   77  2
       a =  3.500      CL =  0.4509
      Cm = -0.0102     CD =  0.00814   =>   CDf =  0.00493    CDp =  0.00321

 Side 1  free  transition at x/c =  0.4639   47
 Side 2  free  transition at x/c =  0.9932   76

   2   rms: 0.4840E-01   max: -.5260E+00   C at   47  1   RLX: 0.951
       a =  3.500      CL =  0.4417
      Cm = -0.0082     CD =  0.00867   =>   CDf =  0.00558    CDp =  0.00309

 Side 1  free  transition at x/c =  0.5124   50
 Side 2  free  transition at x/c =  0.9982   77

   3   rms: 0.1440E-01   max: -.1776E+00   C at   50  1
       a =  3.500      CL =  0.4438
      Cm = -0.0087     CD =  0.00855   =>   CDf =  0.00537    CDp =  0.00318

 Side 1  free  transition at x/c =  0.4920   49
 Side 2  free  transition at x/c =  0.9965   77

   4   rms: 0.8176E-02   max: -.1241E+00   C at   49  1
       a =  3.500      CL =  0.4430
      Cm = -0.0086     CD =  0.00865   =>   CDf =  0.00543    CDp =  0.00322

 Side 1  free  transition at x/c =  0.4969   49
 Side 2  free  transition at x/c =  0.9966   77

   5   rms: 0.1673E-03   max: -.2210E-02   D at   52  1
       a =  3.500      CL =  0.4430
      Cm = -0.0086     CD =  0.00865   =>   CDf =  0.00540    CDp =  0.00325

 Side 1  free  transition at x/c =  0.4969   49
 Side 2  free  transition at x/c =  0.9966   77

   6   rms: 0.9199E-06   max: 0.1027E-04   C at   49  1
       a =  3.500      CL =  0.4430
      Cm = -0.0086     CD =  0.00865   =>   CDf =  0.00540    CDp =  0.00325
 plradd ia,ip,cpol           16           0  3.85197648E-03

 Point added to stored polar  1
 Point written to save file  n63010a_Re300k.base.pol                         
 Dump file unspecified or not available
 Calculating wake trajectory ...
 Calculating source influence matrix ...

 Solving BL system ...

 Side 1  free  transition at x/c =  0.4969   49
 Side 2  free  transition at x/c =  0.9966   77

   1   rms: 0.2975E+00   max: 0.4659E+01   C at   49  1   RLX: 0.322
       a =  4.000      CL =  0.4670
      Cm = -0.0102     CD =  0.00900   =>   CDf =  0.00533    CDp =  0.00367

 Side 1  free  transition at x/c =  0.3497   40
 Side 2  free  transition at x/c =  1.0000   76

   2   rms: 0.3585E+00   max: 0.6546E+01   C at   40  1   RLX: 0.229
       a =  4.000      CL =  0.4766
      Cm = -0.0107     CD =  0.00987   =>   CDf =  0.00603    CDp =  0.00384

 Side 1  free  transition at x/c =  0.2590   34
 Side 2 forced transition at x/c =  1.0000   76

   3   rms: 0.2374E+00   max: 0.4516E+01   C at   34  1   RLX: 0.332
       a =  4.000      CL =  0.4795
      Cm = -0.0100     CD =  0.01051   =>   CDf =  0.00644    CDp =  0.00407

 Side 1  free  transition at x/c =  0.2001   30
 Side 2 forced transition at x/c =  1.0000   76

   4   rms: 0.1667E+00   max: 0.3196E+01   C at   30  1   RLX: 0.469
       a =  4.000      CL =  0.4823
      Cm = -0.0093     CD =  0.01093   =>   CDf =  0.00672    CDp =  0.00421

 Side 1  free  transition at x/c =  0.1502   26
 Side 2 forced transition at x/c =  1.0000   76

   5   rms: 0.9418E-01   max: 0.1923E+01   C at   26  1   RLX: 0.780
       a =  4.000      CL =  0.4851
      Cm = -0.0087     CD =  0.01120   =>   CDf =  0.00696    CDp =  0.00424

 Side 1  free  transition at x/c =  0.1103   23
 Side 2 forced transition at x/c =  1.0000   76

   6   rms: 0.2346E-01   max: 0.4335E+00   C at   23  1
       a =  4.000      CL =  0.4859
      Cm = -0.0085     CD =  0.01132   =>   CDf =  0.00717    CDp =  0.00414

 Side 1  free  transition at x/c =  0.0963   22
 Side 2 forced transition at x/c =  1.0000   76

   7   rms: 0.1221E-02   max: -.1920E-01   C at   22  1
       a =  4.000      CL =  0.4857
      Cm = -0.0085     CD =  0.01134   =>   CDf =  0.00725    CDp =  0.00409

 Side 1  free  transition at x/c =  0.0962   22
 Side 2 forced transition at x/c =  1.0000   76

   8   rms: 0.2850E-04   max: 0.6184E-03   C at   22  1
       a =  4.000      CL =  0.4857
      Cm = -0.0085     CD =  0.01134   =>   CDf =  0.00725    CDp =  0.00409
 plradd ia,ip,cpol           17           0  3.85197648E-03

 Point added to stored polar  1
 Point written to save file  n63010a_Re300k.base.pol                         
 Dump file unspecified or not available
 Calculating wake trajectory ...
 Calculating source influence matrix ...

 Solving BL system ...

 Side 1  free  transition at x/c =  0.0962   22
 Side 2 forced transition at x/c =  1.0000   76

   1   rms: 0.3885E+00   max: 0.7950E+01   C at   22  1   RLX: 0.189
       a =  4.500      CL =  0.4920
      Cm = -0.0080     CD =  0.01175   =>   CDf =  0.00725    CDp =  0.00450

 Side 1  free  transition at x/c =  0.0740   20
 Side 2 forced transition at x/c =  1.0000   76

   2   rms: 0.1237E+00   max: 0.1172E+01   T at   20  1   RLX: 0.795
       a =  4.500      CL =  0.5184
      Cm = -0.0061     CD =  0.01237   =>   CDf =  0.00742    CDp =  0.00495

 MRCHDU: Convergence failed at  20  side 1    Res =  0.2630E+01
 Side 1  free  transition at x/c =  0.0498   19
 Side 2 forced transition at x/c =  1.0000   76

   3   rms: 0.9343E-01   max: -.9076E+00   D at   20  1   RLX: 0.551
       a =  4.500      CL =  0.5188
      Cm = -0.0055     CD =  0.01352   =>   CDf =  0.00744    CDp =  0.00608

 Side 1  free  transition at x/c =  0.0496   19
 Side 2 forced transition at x/c =  1.0000   76

   4   rms: 0.5575E-01   max: -.7792E+00   D at   19  1   RLX: 0.642
       a =  4.500      CL =  0.5216
      Cm = -0.0057     CD =  0.01287   =>   CDf =  0.00742    CDp =  0.00545

 MRCHDU: Convergence failed at  19  side 1    Res =  0.4114E+01
 MRCHDU: Convergence failed at  20  side 1    Res =  0.2645E+01
 MRCHDU: Convergence failed at  21  side 1    Res =  0.2516E+01
 MRCHDU: Convergence failed at  22  side 1    Res =  0.3108E+01
 MRCHDU: Convergence failed at  23  side 1    Res =  0.3727E+01
 MRCHDU: Convergence failed at  24  side 1    Res =  0.4299E+01
 MRCHDU: Convergence failed at  25  side 1    Res =  0.4601E+01
 MRCHDU: Convergence failed at  26  side 1    Res =  0.4670E+01
 MRCHDU: Convergence failed at  27  side 1    Res =  0.4926E+01
 MRCHDU: Convergence failed at  28  side 1    Res =  0.5112E+01
 MRCHDU: Convergence failed at  29  side 1    Res =  0.5177E+01
 MRCHDU: Convergence failed at  30  side 1    Res =  0.5262E+01
 MRCHDU: Convergence failed at  31  side 1    Res =  0.5325E+01
 MRCHDU: Convergence failed at  32  side 1    Res =  0.5369E+01
 MRCHDU: Convergence failed at  33  side 1    Res =  0.5141E+01
 MRCHDU: Convergence failed at  34  side 1    Res =  0.5132E+01
 MRCHDU: Convergence failed at  35  side 1    Res =  0.4984E+01
 MRCHDU: Convergence failed at  36  side 1    Res =  0.4965E+01
 MRCHDU: Convergence failed at  37  side 1    Res =  0.4952E+01
 MRCHDU: Convergence failed at  38  side 1    Res =  0.4952E+01
 MRCHDU: Convergence failed at  39  side 1    Res =  0.4954E+01
 MRCHDU: Convergence failed at  40  side 1    Res =  0.4771E+01
 MRCHDU: Convergence failed at  41  side 1    Res =  0.4764E+01
 MRCHDU: Convergence failed at  42  side 1    Res =  0.4322E+01
 MRCHDU: Convergence failed at  43  side 1    Res =  0.4024E+01
 MRCHDU: Convergence failed at  44  side 1    Res =  0.4001E+01
 MRCHDU: Convergence failed at  45  side 1    Res =  0.1412E+02
 MRCHDU: Convergence failed at  46  side 1    Res =  0.1620E+02
 MRCHDU: Convergence failed at  47  side 1    Res =  0.1821E+02
 MRCHDU: Convergence failed at  48  side 1    Res =  0.2148E+02
 MRCHDU: Convergence failed at  49  side 1    Res =  0.2421E+02
 MRCHDU: Convergence failed at  50  side 1    Res =  0.2859E+02
 MRCHDU: Convergence failed at  51  side 1    Res =  0.3494E+02
 MRCHDU: Convergence failed at  52  side 1    Res =  0.4385E+02
 MRCHDU: Convergence failed at  53  side 1    Res =  0.5999E+02
 MRCHDU: Convergence failed at  54  side 1    Res =  0.1412E+02
 MRCHDU: Convergence failed at  55  side 1    Res =  0.1450E+02
 MRCHDU: Convergence failed at  56  side 1    Res =  0.1531E+02
 MRCHDU: Convergence failed at  57  side 1    Res =  0.1526E+02
 MRCHDU: Convergence failed at  58  side 1    Res =  0.1620E+02
 MRCHDU: Convergence failed at  59  side 1    Res =  0.1726E+02
 MRCHDU: Convergence failed at  60  side 1    Res =  0.1609E+02
 MRCHDU: Convergence failed at  61  side 1    Res =  0.1687E+02
 MRCHDU: Convergence failed at  62  side 1    Res =  0.1769E+02
 MRCHDU: Convergence failed at  63  side 1    Res =  0.1909E+02
 MRCHDU: Convergence failed at  64  side 1    Res =  0.2005E+02
 MRCHDU: Convergence failed at  65  side 1    Res =  0.1124E+03
 MRCHDU: Convergence failed at  66  side 1    Res =  0.3545E+02
 MRCHDU: Convergence failed at  67  side 1    Res =  0.1911E+02
 MRCHDU: Convergence failed at  68  side 1    Res =  0.7130E+02
 MRCHDU: Convergence failed at  69  side 1    Res =  0.3207E+02
 MRCHDU: Convergence failed at  70  side 1    Res =  0.2396E+02
 MRCHDU: Convergence failed at  71  side 1    Res =  0.1255E+03
 MRCHDU: Convergence failed at  72  side 1    Res =  0.2298E+02
 MRCHDU: Convergence failed at  73  side 1    Res =  0.4293E+02
 MRCHDU: Convergence failed at  74  side 1    Res =  0.2015E+02
 MRCHDU: Convergence failed at  75  side 1    Res =  0.2149E+02
 MRCHDU: Convergence failed at  76  side 1    Res =  0.1808E+02
 MRCHDU: Convergence failed at  77  side 1    Res =  0.4744E+02
 MRCHDU: Convergence failed at  78  side 1    Res =  0.4993E+02
 MRCHDU: Convergence failed at  79  side 1    Res =  0.5562E+02
 MRCHDU: Convergence failed at  80  side 1    Res =  0.5264E+02
 MRCHDU: Convergence failed at  81  side 1    Res =  0.4482E+03
 MRCHDU: Convergence failed at  82  side 1    Res =  0.1174E+03
 MRCHDU: Convergence failed at  83  side 1    Res =  0.6464E+02
 MRCHDU: Convergence failed at  84  side 1    Res =  0.4828E+02
 MRCHDU: Convergence failed at  85  side 1    Res =  0.8190E+02
 MRCHDU: Convergence failed at  86  side 1    Res =  0.3316E+02
 Side 1  free  transition at x/c =  0.0484   18
 Side 2 forced transition at x/c =  1.0000   76

   5   rms: 0.6871E+00   max: -.1627E+01   C at   76  2   RLX: 0.256
       a =  4.500      CL =  1.1630
      Cm = -0.2373     CD =  0.00476   =>   CDf =  0.00213    CDp =  0.00263

 Side 1  free  transition at x/c =  0.0656   20
 Side 2 forced transition at x/c =  1.0000   76

   6   rms: 0.5447E+00   max: 0.6282E+01   C at   20  1   RLX: 0.239
       a =  4.500      CL =  0.9556
      Cm = -0.1506     CD =  0.01161   =>   CDf =  0.00974    CDp =  0.00187

 Side 1  free  transition at x/c =  0.0514   19
 Side 2 forced transition at x/c =  1.0000   76

   7   rms: 0.3700E+00   max: 0.1917E+01   T at   19  1   RLX: 0.486
       a =  4.500      CL =  0.7898
      Cm = -0.0842     CD =  0.01204   =>   CDf =  0.00903    CDp =  0.00301

 MRCHDU: Convergence failed at  19  side 1    Res =  0.4899E+01
 MRCHDU: Convergence failed at  20  side 1    Res =  0.2101E+01
 MRCHDU: Convergence failed at  21  side 1    Res =  0.2893E+02
 MRCHDU: Convergence failed at  22  side 1    Res =  0.1056E+03
 MRCHDU: Convergence failed at  23  side 1    Res =  0.7673E+02
 MRCHDU: Convergence failed at  24  side 1    Res =  0.1268E+02
 MRCHDU: Convergence failed at  25  side 1    Res =  0.1028E+02
 MRCHDU: Convergence failed at  26  side 1    Res =  0.8359E+01
 MRCHDU: Convergence failed at  27  side 1    Res =  0.7603E+01
 MRCHDU: Convergence failed at  28  side 1    Res =  0.8281E+01
 MRCHDU: Convergence failed at  29  side 1    Res =  0.7685E+01
 MRCHDU: Convergence failed at  30  side 1    Res =  0.6953E+01
 MRCHDU: Convergence failed at  31  side 1    Res =  0.6682E+01
 MRCHDU: Convergence failed at  32  side 1    Res =  0.6412E+01
 MRCHDU: Convergence failed at  33  side 1    Res =  0.5852E+01
 MRCHDU: Convergence failed at  34  side 1    Res =  0.5130E+01
 MRCHDU: Convergence failed at  35  side 1    Res =  0.5006E+01
 MRCHDU: Convergence failed at  36  side 1    Res =  0.4895E+01
 MRCHDU: Convergence failed at  37  side 1    Res =  0.4469E+01
 MRCHDU: Convergence failed at  38  side 1    Res =  0.4269E+01
 MRCHDU: Convergence failed at  39  side 1    Res =  0.4131E+01
 MRCHDU: Convergence failed at  40  side 1    Res =  0.3695E+01
 MRCHDU: Convergence failed at  41  side 1    Res =  0.1602E+02
 MRCHDU: Convergence failed at  42  side 1    Res =  0.1763E+02
 MRCHDU: Convergence failed at  43  side 1    Res =  0.1998E+02
 MRCHDU: Convergence failed at  44  side 1    Res =  0.2228E+02
 MRCHDU: Convergence failed at  45  side 1    Res =  0.2505E+02
 MRCHDU: Convergence failed at  46  side 1    Res =  0.2749E+02
 MRCHDU: Convergence failed at  47  side 1    Res =  0.3182E+02
 MRCHDU: Convergence failed at  48  side 1    Res =  0.3757E+02
 MRCHDU: Convergence failed at  49  side 1    Res =  0.4902E+02
 MRCHDU: Convergence failed at  50  side 1    Res =  0.6303E+02
 MRCHDU: Convergence failed at  51  side 1    Res =  0.9534E+02
 MRCHDU: Convergence failed at  52  side 1    Res =  0.1757E+03
 MRCHDU: Convergence failed at  53  side 1    Res =  0.7596E+03
 MRCHDU: Convergence failed at  54  side 1    Res =  0.2947E+03
 MRCHDU: Convergence failed at  55  side 1    Res =  0.1554E+03
 MRCHDU: Convergence failed at  56  side 1    Res =  0.9995E+02
 MRCHDU: Convergence failed at  57  side 1    Res =  0.7618E+02
 MRCHDU: Convergence failed at  58  side 1    Res =  0.6151E+02
 MRCHDU: Convergence failed at  59  side 1    Res =  0.5214E+02
 MRCHDU: Convergence failed at  60  side 1    Res =  0.4707E+02
 MRCHDU: Convergence failed at  61  side 1    Res =  0.4212E+02
 MRCHDU: Convergence failed at  62  side 1    Res =  0.3844E+02
 MRCHDU: Convergence failed at  63  side 1    Res =  0.3572E+02
 MRCHDU: Convergence failed at  64  side 1    Res =  0.3453E+02
 MRCHDU: Convergence failed at  65  side 1    Res =  0.3364E+02
 MRCHDU: Convergence failed at  66  side 1    Res =  0.3299E+02
 MRCHDU: Convergence failed at  67  side 1    Res =  0.3316E+02
 MRCHDU: Convergence failed at  68  side 1    Res =  0.3313E+02
 MRCHDU: Convergence failed at  69  side 1    Res =  0.3771E+02
 MRCHDU: Convergence failed at  70  side 1    Res =  0.5188E+02
 MRCHDU: Convergence failed at  71  side 1    Res =  0.7180E+03
 MRCHDU: Convergence failed at  72  side 1    Res =  0.1248E+02
 MRCHDU: Convergence failed at  73  side 1    Res =  0.3353E+02
 MRCHDU: Convergence failed at  74  side 1    Res =  0.6859E+03
 MRCHDU: Convergence failed at  75  side 1    Res =  0.5518E+02
 MRCHDU: Convergence failed at  76  side 1    Res =  0.2050E+02
 MRCHDU: Convergence failed at  77  side 1    Res =  0.3125E+02
 MRCHDU: Convergence failed at  78  side 1    Res =  0.9137E+02
 MRCHDU: Convergence failed at  79  side 1    Res =  0.4144E+02
 MRCHDU: Convergence failed at  80  side 1    Res =  0.5677E+02
 MRCHDU: Convergence failed at  81  side 1    Res =  0.2170E+02
 MRCHDU: Convergence failed at  82  side 1    Res =  0.2117E+02
 MRCHDU: Convergence failed at  83  side 1    Res =  0.2314E+02
 MRCHDU: Convergence failed at  84  side 1    Res =  0.2633E+02
 MRCHDU: Convergence failed at  85  side 1    Res =  0.3011E+02
 MRCHDU: Convergence failed at  86  side 1    Res =  0.3042E+02
 Side 1  free  transition at x/c =  0.0434   18
 Side 2 forced transition at x/c =  1.0000   76

   8   rms: 0.7847E+00   max: -.3176E+01   T at   18  1   RLX: 0.157
       a =  4.500      CL =  1.2727
      Cm = -0.2741     CD =  0.00532   =>   CDf =  0.00221    CDp =  0.00311

 MRCHDU: Convergence failed at  57  side 1    Res =  0.3914E-02
 Side 1  free  transition at x/c =  0.0523   19
 Side 2 forced transition at x/c =  1.0000   76

   9   rms: 0.3886E+00   max: -.6713E+00   D at   77  2   RLX: 0.475
       a =  4.500      CL =  0.7695
      Cm = -0.0890     CD =  0.01694   =>   CDf =  0.00715    CDp =  0.00979

 MRCHDU: Convergence failed at  57  side 1    Res =  0.7600E-02
 Side 1  free  transition at x/c =  0.0521   19
 Side 2 forced transition at x/c =  1.0000   76

  10   rms: 0.4283E+00   max: -.2413E+01   D at   34  1   RLX: 0.207
       a =  4.500      CL =  0.7058
      Cm = -0.0639     CD =  0.01585   =>   CDf =  0.00673    CDp =  0.00912

 Side 1  free  transition at x/c =  0.0497   19
 Side 2 forced transition at x/c =  1.0000   76

  11   rms: 0.5006E+00   max: -.2376E+01   D at   50  1   RLX: 0.210
       a =  4.500      CL =  0.6928
      Cm = -0.0556     CD =  0.01529   =>   CDf =  0.00689    CDp =  0.00840

 MRCHDU: Convergence failed at  19  side 1    Res =  0.1931E+01
 MRCHDU: Convergence failed at  20  side 1    Res =  0.1995E+01
 MRCHDU: Convergence failed at  21  side 1    Res =  0.2528E+01
 MRCHDU: Convergence failed at  22  side 1    Res =  0.3486E+01
 MRCHDU: Convergence failed at  23  side 1    Res =  0.4521E+01
 MRCHDU: Convergence failed at  24  side 1    Res =  0.5504E+01
 MRCHDU: Convergence failed at  25  side 1    Res =  0.5198E+01
 MRCHDU: Convergence failed at  26  side 1    Res =  0.4137E+01
 MRCHDU: Convergence failed at  27  side 1    Res =  0.3538E+01
 MRCHDU: Convergence failed at  28  side 1    Res =  0.3144E+01
 MRCHDU: Convergence failed at  29  side 1    Res =  0.2732E+01
 MRCHDU: Convergence failed at  30  side 1    Res =  0.2327E+01
 MRCHDU: Convergence failed at  31  side 1    Res =  0.4237E+01
 MRCHDU: Convergence failed at  32  side 1    Res =  0.3935E+01
 MRCHDU: Convergence failed at  33  side 1    Res =  0.4195E+01
 MRCHDU: Convergence failed at  34  side 1    Res =  0.4331E+01
 MRCHDU: Convergence failed at  35  side 1    Res =  0.3399E+02
 MRCHDU: Convergence failed at  36  side 1    Res =  0.1131E+03
 MRCHDU: Convergence failed at  37  side 1    Res =  0.2726E+01
 MRCHDU: Convergence failed at  38  side 1    Res =  0.3089E+01
 MRCHDU: Convergence failed at  39  side 1    Res =  0.3352E+01
 MRCHDU: Convergence failed at  40  side 1    Res =  0.3167E+01
 MRCHDU: Convergence failed at  41  side 1    Res =  0.2833E+01
 MRCHDU: Convergence failed at  42  side 1    Res =  0.2622E+01
 MRCHDU: Convergence failed at  43  side 1    Res =  0.5600E+01
 MRCHDU: Convergence failed at  44  side 1    Res =  0.4972E+01
 MRCHDU: Convergence failed at  45  side 1    Res =  0.6173E+01
 MRCHDU: Convergence failed at  46  side 1    Res =  0.5857E+02
 MRCHDU: Convergence failed at  47  side 1    Res =  0.1242E+02
 MRCHDU: Convergence failed at  48  side 1    Res =  0.4106E+02
 MRCHDU: Convergence failed at  49  side 1    Res =  0.3579E+02
 MRCHDU: Convergence failed at  50  side 1    Res =  0.3156E+02
 MRCHDU: Convergence failed at  51  side 1    Res =  0.2481E+02
 MRCHDU: Convergence failed at  52  side 1    Res =  0.1609E+02
 MRCHDU: Convergence failed at  53  side 1    Res =  0.2006E+02
 MRCHDU: Convergence failed at  54  side 1    Res =  0.2373E+02
 MRCHDU: Convergence failed at  55  side 1    Res =  0.2532E+02
 MRCHDU: Convergence failed at  56  side 1    Res =  0.2743E+02
 MRCHDU: Convergence failed at  57  side 1    Res =  0.1554E+02
 MRCHDU: Convergence failed at  58  side 1    Res =  0.1126E+02
 MRCHDU: Convergence failed at  59  side 1    Res =  0.1728E+03
 MRCHDU: Convergence failed at  60  side 1    Res =  0.6999E+02
 MRCHDU: Convergence failed at  61  side 1    Res =  0.5302E+02
 MRCHDU: Convergence failed at  62  side 1    Res =  0.1013E+02
 MRCHDU: Convergence failed at  63  side 1    Res =  0.1124E+02
 MRCHDU: Convergence failed at  64  side 1    Res =  0.1292E+02
 MRCHDU: Convergence failed at  65  side 1    Res =  0.1489E+02
 MRCHDU: Convergence failed at  66  side 1    Res =  0.1671E+02
 MRCHDU: Convergence failed at  67  side 1    Res =  0.1923E+02
 MRCHDU: Convergence failed at  68  side 1    Res =  0.2241E+02
 MRCHDU: Convergence failed at  69  side 1    Res =  0.2631E+02
 MRCHDU: Convergence failed at  70  side 1    Res =  0.3127E+02
 MRCHDU: Convergence failed at  71  side 1    Res =  0.3905E+02
 MRCHDU: Convergence failed at  72  side 1    Res =  0.5184E+02
 MRCHDU: Convergence failed at  73  side 1    Res =  0.9282E+02
 MRCHDU: Convergence failed at  74  side 1    Res =  0.5232E+03
 MRCHDU: Convergence failed at  75  side 1    Res =  0.6905E+02
 MRCHDU: Convergence failed at  76  side 1    Res =  0.1770E+03
 MRCHDU: Convergence failed at  77  side 1    Res =  0.2814E+02
 MRCHDU: Convergence failed at  78  side 1    Res =  0.4346E+02
 MRCHDU: Convergence failed at  79  side 1    Res =  0.2618E+02
 MRCHDU: Convergence failed at  80  side 1    Res =  0.2851E+02
 MRCHDU: Convergence failed at  81  side 1    Res =  0.3352E+02
 MRCHDU: Convergence failed at  82  side 1    Res =  0.3316E+02
 MRCHDU: Convergence failed at  83  side 1    Res =  0.2356E+02
 MRCHDU: Convergence failed at  84  side 1    Res =  0.2360E+02
 MRCHDU: Convergence failed at  85  side 1    Res =  0.2390E+02
 MRCHDU: Convergence failed at  86  side 1    Res =  0.2507E+02
 Side 1  free  transition at x/c =  0.0455   18
 Side 2 forced transition at x/c =  1.0000   76

  12   rms: 0.7200E+00   max: -.2598E+01   C at   76  2   RLX: 0.192
       a =  4.500      CL =  1.2270
      Cm = -0.2589     CD =  0.00525   =>   CDf =  0.00225    CDp =  0.00299

 Side 1  free  transition at x/c =  0.0572   19
 Side 2 forced transition at x/c =  1.0000   76

  13   rms: 0.3838E+00   max: -.5870E+00   D at   77  2   RLX: 0.539
       a =  4.500      CL =  0.6905
      Cm = -0.0659     CD =  0.01555   =>   CDf =  0.00794    CDp =  0.00761

 Side 1  free  transition at x/c =  0.0730   20
 Side 2 forced transition at x/c =  1.0000   76

  14   rms: 0.3724E+00   max: -.1964E+01   D at   56  1   RLX: 0.255
       a =  4.500      CL =  0.6329
      Cm = -0.0444     CD =  0.01394   =>   CDf =  0.00718    CDp =  0.00676

 Side 1  free  transition at x/c =  0.0671   20
 Side 2 forced transition at x/c =  1.0000   76

  15   rms: 0.3475E+00   max: -.1438E+01   D at   67  1   RLX: 0.348
       a =  4.500      CL =  0.5534
      Cm = -0.0192     CD =  0.01224   =>   CDf =  0.00718    CDp =  0.00506

 Side 1  free  transition at x/c =  0.0737   20
 Side 2 forced transition at x/c =  1.0000   76

  16   rms: 0.3222E+00   max: -.3430E+01   C at   20  1   RLX: 0.146
       a =  4.500      CL =  0.5581
      Cm = -0.0178     CD =  0.01238   =>   CDf =  0.00784    CDp =  0.00454

 Side 1  free  transition at x/c =  0.0645   20
 Side 2 forced transition at x/c =  1.0000   76

  17   rms: 0.4813E+00   max: 0.3678E+01   T at   20  1   RLX: 0.142
       a =  4.500      CL =  0.5757
      Cm = -0.0199     CD =  0.01281   =>   CDf =  0.00771    CDp =  0.00509

 MRCHDU: Convergence failed at  20  side 1    Res =  0.3882E+01
 Side 1  free  transition at x/c =  0.0552   19
 Side 2 forced transition at x/c =  1.0000   76

  18   rms: 0.8512E+00   max: 0.8205E+01   T at   19  1   RLX: 0.183
       a =  4.500      CL =  0.6714
      Cm = -0.0351     CD =  0.01317   =>   CDf =  0.00743    CDp =  0.00575

 MRCHDU: Convergence failed at  20  side 1    Res =  0.1570E+02
 Side 1  free  transition at x/c =  0.0396   19
 Side 2 forced transition at x/c =  1.0000   75

  19   rms: 0.2262E+00   max: 0.1327E+01   T at    2  1   RLX: 0.573
       a =  4.500      CL =  0.6769
      Cm = -0.0346     CD =  0.01506   =>   CDf =  0.00759    CDp =  0.00747

 Side 1  free  transition at x/c =  0.0364   18
 Side 2 forced transition at x/c =  1.0000   75
 idif Ue xi dudx           1  0.17247109      3.50356102E-03   49.227367    
 Uenew xinew           2  2.85202265E-03  5.79357147E-05

  20   rms: 0.1157E+00   max: -.5664E+00   D at   19  1   RLX: 0.883
       a =  4.500      CL =  0.5932
      Cm = -0.0193     CD =  0.01435   =>   CDf =  0.00779    CDp =  0.00656

 Side 1  free  transition at x/c =  0.0390   18
 Side 2 forced transition at x/c =  1.0000   76

  21   rms: 0.1924E+00   max: -.2937E+01   T at    2  2   RLX: 0.170
       a =  4.500      CL =  0.5835
      Cm = -0.0173     CD =  0.01321   =>   CDf =  0.00750    CDp =  0.00572

 Side 1  free  transition at x/c =  0.0401   18
 Side 2 forced transition at x/c =  1.0000   76

  22   rms: 0.6988E-01   max: -.3029E+00   T at   18  1
       a =  4.500      CL =  0.5266
      Cm = -0.0063     CD =  0.01256   =>   CDf =  0.00749    CDp =  0.00508

 Side 1  free  transition at x/c =  0.0453   18
 Side 2 forced transition at x/c =  1.0000   76

  23   rms: 0.1093E-01   max: -.6048E-01   D at   19  1
       a =  4.500      CL =  0.5223
      Cm = -0.0055     CD =  0.01286   =>   CDf =  0.00747    CDp =  0.00539

 Side 1  free  transition at x/c =  0.0460   18
 Side 2 forced transition at x/c =  1.0000   76

  24   rms: 0.3952E-03   max: 0.2485E-02   D at   67  2
       a =  4.500      CL =  0.5224
      Cm = -0.0055     CD =  0.01287   =>   CDf =  0.00747    CDp =  0.00540

 Side 1  free  transition at x/c =  0.0460   18
 Side 2 forced transition at x/c =  1.0000   76

  25   rms: 0.1668E-05   max: 0.9459E-05   D at   66  2
       a =  4.500      CL =  0.5224
      Cm = -0.0055     CD =  0.01287   =>   CDf =  0.00747    CDp =  0.00540
 plradd ia,ip,cpol           18           0  3.85197648E-03

 Point added to stored polar  1
 Point written to save file  n63010a_Re300k.base.pol                         
 Dump file unspecified or not available
 Calculating wake trajectory ...
 Calculating source influence matrix ...

 Solving BL system ...

 Side 1  free  transition at x/c =  0.0460   18
 Side 2 forced transition at x/c =  1.0000   76

   1   rms: 0.1023E+00   max: 0.6976E+00   T at   18  1
       a =  5.000      CL =  0.5623
      Cm = -0.0026     CD =  0.01396   =>   CDf =  0.00737    CDp =  0.00660

 Side 1  free  transition at x/c =  0.0365   18
 Side 2 forced transition at x/c =  1.0000   75

   2   rms: 0.5110E-01   max: -.2735E+00   D at   19  1
       a =  5.000      CL =  0.5575
      Cm = -0.0020     CD =  0.01446   =>   CDf =  0.00745    CDp =  0.00701

 Side 1  free  transition at x/c =  0.0367   18
 Side 2 forced transition at x/c =  1.0000   75

   3   rms: 0.2522E-02   max: -.2364E-01   D at    4  1
       a =  5.000      CL =  0.5584
      Cm = -0.0021     CD =  0.01454   =>   CDf =  0.00744    CDp =  0.00710

 Side 1  free  transition at x/c =  0.0366   18
 Side 2 forced transition at x/c =  1.0000   75

   4   rms: 0.1868E-04   max: 0.1240E-03   D at   18  1
       a =  5.000      CL =  0.5584
      Cm = -0.0021     CD =  0.01454   =>   CDf =  0.00744    CDp =  0.00710
 plradd ia,ip,cpol           19           0  2.23685359E-03

 Point added to stored polar  1
 Point written to save file  n63010a_Re300k.base.pol                         
 Dump file unspecified or not available
 Calculating wake trajectory ...
 Calculating source influence matrix ...

 Solving BL system ...

 Side 1  free  transition at x/c =  0.0366   18
 Side 2 forced transition at x/c =  1.0000   75

   1   rms: 0.8313E-01   max: 0.5981E+00   T at   18  1
       a =  5.500      CL =  0.6020
      Cm =  0.0001     CD =  0.01527   =>   CDf =  0.00744    CDp =  0.00783

 Side 1  free  transition at x/c =  0.0340   18
 Side 2 forced transition at x/c =  1.0000   75

   2   rms: 0.3423E-01   max: 0.3223E+00   D at   18  1
       a =  5.500      CL =  0.5986
      Cm =  0.0007     CD =  0.01601   =>   CDf =  0.00736    CDp =  0.00865

 Side 1  free  transition at x/c =  0.0337   18
 Side 2 forced transition at x/c =  1.0000   75

   3   rms: 0.3357E-02   max: 0.2139E-01   D at   19  1
       a =  5.500      CL =  0.5992
      Cm =  0.0006     CD =  0.01594   =>   CDf =  0.00734    CDp =  0.00860

 Side 1  free  transition at x/c =  0.0337   18
 Side 2 forced transition at x/c =  1.0000   75

   4   rms: 0.1242E-04   max: 0.5089E-04   D at   19  1
       a =  5.500      CL =  0.5992
      Cm =  0.0006     CD =  0.01593   =>   CDf =  0.00734    CDp =  0.00860
 plradd ia,ip,cpol           20           0  2.23685359E-03

 Point added to stored polar  1
 Point written to save file  n63010a_Re300k.base.pol                         
 Dump file unspecified or not available
 Calculating wake trajectory ...
 Calculating source influence matrix ...

 Solving BL system ...

 Side 1  free  transition at x/c =  0.0337   18
 Side 2 forced transition at x/c =  1.0000   75

   1   rms: 0.9569E-01   max: 0.2726E+00   T at   18  1
       a =  6.000      CL =  0.6403
      Cm =  0.0033     CD =  0.01770   =>   CDf =  0.00734    CDp =  0.01036

 Side 1  free  transition at x/c =  0.0316   18
 Side 2 forced transition at x/c =  1.0000   75

   2   rms: 0.5485E-02   max: 0.5589E-01   C at   75  2
       a =  6.000      CL =  0.6414
      Cm =  0.0032     CD =  0.01792   =>   CDf =  0.00722    CDp =  0.01070

 Side 1  free  transition at x/c =  0.0314   18
 Side 2 forced transition at x/c =  1.0000   75

   3   rms: 0.1788E-03   max: 0.2467E-02   C at   75  2
       a =  6.000      CL =  0.6415
      Cm =  0.0031     CD =  0.01791   =>   CDf =  0.00721    CDp =  0.01070

 Side 1  free  transition at x/c =  0.0314   18
 Side 2 forced transition at x/c =  1.0000   75

   4   rms: 0.1156E-05   max: -.1338E-04   C at   75  2
       a =  6.000      CL =  0.6415
      Cm =  0.0031     CD =  0.01791   =>   CDf =  0.00721    CDp =  0.01070
 plradd ia,ip,cpol           21           0  1.11967919E-03

 Point added to stored polar  1
 Point written to save file  n63010a_Re300k.base.pol                         
 Dump file unspecified or not available
 Calculating wake trajectory ...
 Calculating source influence matrix ...

 Solving BL system ...

 Side 1  free  transition at x/c =  0.0314   18
 Side 2 forced transition at x/c =  1.0000   75

   1   rms: 0.1016E+00   max: -.1891E+00   C at   75  2
       a =  6.500      CL =  0.6858
      Cm =  0.0054     CD =  0.02025   =>   CDf =  0.00705    CDp =  0.01320

 Side 1  free  transition at x/c =  0.0295   19
 Side 2 forced transition at x/c =  1.0000   74

   2   rms: 0.2699E-01   max: -.1290E+00   D at   21  1
       a =  6.500      CL =  0.6859
      Cm =  0.0052     CD =  0.02018   =>   CDf =  0.00696    CDp =  0.01322

 Side 1  free  transition at x/c =  0.0293   19
 Side 2 forced transition at x/c =  1.0000   74

   3   rms: 0.1830E-02   max: -.1446E-01   D at    4  1
       a =  6.500      CL =  0.6862
      Cm =  0.0051     CD =  0.02024   =>   CDf =  0.00703    CDp =  0.01321

 Side 1  free  transition at x/c =  0.0293   19
 Side 2 forced transition at x/c =  1.0000   74

   4   rms: 0.1171E-04   max: -.8229E-04   C at   74  2
       a =  6.500      CL =  0.6862
      Cm =  0.0051     CD =  0.02024   =>   CDf =  0.00703    CDp =  0.01321
 plradd ia,ip,cpol           22           0  1.11967919E-03

 Point added to stored polar  1
 Point written to save file  n63010a_Re300k.base.pol                         
 Dump file unspecified or not available
 Calculating wake trajectory ...
 Calculating source influence matrix ...

 Solving BL system ...

 Side 1  free  transition at x/c =  0.0293   19
 Side 2 forced transition at x/c =  1.0000   74

   1   rms: 0.9289E-01   max: 0.5043E+00   T at   19  1
       a =  7.000      CL =  0.7308
      Cm =  0.0067     CD =  0.02247   =>   CDf =  0.00703    CDp =  0.01544

 Side 1  free  transition at x/c =  0.0272   19
 Side 2 forced transition at x/c =  1.0000   74

   2   rms: 0.1564E-01   max: 0.1165E+00   D at   19  1
       a =  7.000      CL =  0.7297
      Cm =  0.0069     CD =  0.02411   =>   CDf =  0.00668    CDp =  0.01743

 Side 1  free  transition at x/c =  0.0275   19
 Side 2 forced transition at x/c =  1.0000   74

   3   rms: 0.6926E-02   max: 0.3287E-01   D at   19  1
       a =  7.000      CL =  0.7298
      Cm =  0.0069     CD =  0.02404   =>   CDf =  0.00678    CDp =  0.01726

 Side 1  free  transition at x/c =  0.0275   19
 Side 2 forced transition at x/c =  1.0000   74

   4   rms: 0.5199E-04   max: -.4527E-03   C at   74  2
       a =  7.000      CL =  0.7298
      Cm =  0.0069     CD =  0.02403   =>   CDf =  0.00677    CDp =  0.01726
 plradd ia,ip,cpol           23           0  4.04092600E-04

 Point added to stored polar  1
 Point written to save file  n63010a_Re300k.base.pol                         
 Dump file unspecified or not available
 Calculating wake trajectory ...
 Calculating source influence matrix ...

 Solving BL system ...

 Side 1  free  transition at x/c =  0.0275   19
 Side 2 forced transition at x/c =  1.0000   74

   1   rms: 0.1288E+00   max: 0.3458E+00   D at   23  1
       a =  7.500      CL =  0.7731
      Cm =  0.0089     CD =  0.02886   =>   CDf =  0.00677    CDp =  0.02209

 Side 1  free  transition at x/c =  0.0280   19
 Side 2 forced transition at x/c =  1.0000   74

   2   rms: 0.6028E-01   max: 0.2756E+00   D at   19  1
       a =  7.500      CL =  0.7715
      Cm =  0.0093     CD =  0.02862   =>   CDf =  0.00639    CDp =  0.02223

 Side 1  free  transition at x/c =  0.0278   19
 Side 2 forced transition at x/c =  1.0000   74

   3   rms: 0.2623E-02   max: 0.1374E-01   D at   21  1
       a =  7.500      CL =  0.7712
      Cm =  0.0093     CD =  0.02852   =>   CDf =  0.00621    CDp =  0.02231

 Side 1  free  transition at x/c =  0.0278   19
 Side 2 forced transition at x/c =  1.0000   74

   4   rms: 0.7230E-04   max: 0.5340E-03   D at   20  1
       a =  7.500      CL =  0.7712
      Cm =  0.0093     CD =  0.02852   =>   CDf =  0.00620    CDp =  0.02232
 plradd ia,ip,cpol           24           0  4.04092600E-04

 Point added to stored polar  1
 Point written to save file  n63010a_Re300k.base.pol                         
 Dump file unspecified or not available
 Calculating wake trajectory ...
 Calculating source influence matrix ...

 Solving BL system ...

 Side 1  free  transition at x/c =  0.0278   19
 Side 2 forced transition at x/c =  1.0000   74

   1   rms: 0.1117E+00   max: 0.3489E+00   D at   22  1
       a =  8.000      CL =  0.8121
      Cm =  0.0124     CD =  0.03316   =>   CDf =  0.00600    CDp =  0.02717

 Side 1  free  transition at x/c =  0.0293   20
 Side 2 forced transition at x/c =  1.0000   73

   2   rms: 0.3501E-01   max: -.1193E+00   D at   89  1
       a =  8.000      CL =  0.8058
      Cm =  0.0124     CD =  0.03447   =>   CDf =  0.00502    CDp =  0.02945

 Side 1  free  transition at x/c =  0.0287   20
 Side 2 forced transition at x/c =  1.0000   73

   3   rms: 0.6349E-02   max: 0.4074E-01   T at   20  1
       a =  8.000      CL =  0.8039
      Cm =  0.0126     CD =  0.03458   =>   CDf =  0.00533    CDp =  0.02925

 Side 1  free  transition at x/c =  0.0285   20
 Side 2 forced transition at x/c =  1.0000   73

   4   rms: 0.5396E-03   max: 0.7205E-02   T at   20  1
       a =  8.000      CL =  0.8039
      Cm =  0.0126     CD =  0.03459   =>   CDf =  0.00539    CDp =  0.02920

 Side 1  free  transition at x/c =  0.0285   20
 Side 2 forced transition at x/c =  1.0000   73

   5   rms: 0.1994E-04   max: 0.1867E-03   T at   20  1
       a =  8.000      CL =  0.8039
      Cm =  0.0126     CD =  0.03459   =>   CDf =  0.00540    CDp =  0.02919
 plradd ia,ip,cpol           25           0  4.04092600E-04

 Point added to stored polar  1
 Point written to save file  n63010a_Re300k.base.pol                         
 Dump file unspecified or not available
 Calculating wake trajectory ...
 Calculating source influence matrix ...

 Solving BL system ...

 Side 1  free  transition at x/c =  0.0285   20
 Side 2 forced transition at x/c =  1.0000   73

   1   rms: 0.1187E+00   max: 0.1267E+01   T at   20  1
       a =  8.500      CL =  0.8381
      Cm =  0.0127     CD =  0.03682   =>   CDf =  0.00540    CDp =  0.03143

 MRCHDU: Convergence failed at  20  side 1    Res =  0.2474E+03
 MRCHDU: Convergence failed at  21  side 1    Res =  0.3256E+03
 MRCHDU: Convergence failed at  22  side 1    Res =  0.5962E+02
 MRCHDU: Convergence failed at  23  side 1    Res =  0.9105E+03
 MRCHDU: Convergence failed at  24  side 1    Res =  0.7924E+02
 MRCHDU: Convergence failed at  25  side 1    Res =  0.7848E+02
 MRCHDU: Convergence failed at  26  side 1    Res =  0.9193E+02
 MRCHDU: Convergence failed at  27  side 1    Res =  0.8187E+02
 MRCHDU: Convergence failed at  28  side 1    Res =  0.7811E+02
 MRCHDU: Convergence failed at  29  side 1    Res =  0.8325E+02
 MRCHDU: Convergence failed at  30  side 1    Res =  0.8464E+02
 MRCHDU: Convergence failed at  31  side 1    Res =  0.1098E+03
 MRCHDU: Convergence failed at  32  side 1    Res =  0.9650E+02
 MRCHDU: Convergence failed at  33  side 1    Res =  0.7893E+02
 MRCHDU: Convergence failed at  34  side 1    Res =  0.8294E+02
 MRCHDU: Convergence failed at  35  side 1    Res =  0.8689E+02
 MRCHDU: Convergence failed at  36  side 1    Res =  0.9106E+02
 MRCHDU: Convergence failed at  37  side 1    Res =  0.9529E+02
 MRCHDU: Convergence failed at  38  side 1    Res =  0.9965E+02
 MRCHDU: Convergence failed at  39  side 1    Res =  0.1043E+03
 MRCHDU: Convergence failed at  40  side 1    Res =  0.7735E+02
 MRCHDU: Convergence failed at  41  side 1    Res =  0.8053E+02
 MRCHDU: Convergence failed at  42  side 1    Res =  0.8398E+02
 MRCHDU: Convergence failed at  43  side 1    Res =  0.8764E+02
 MRCHDU: Convergence failed at  44  side 1    Res =  0.9164E+02
 MRCHDU: Convergence failed at  45  side 1    Res =  0.8701E+02
 MRCHDU: Convergence failed at  46  side 1    Res =  0.9335E+02
 MRCHDU: Convergence failed at  47  side 1    Res =  0.9785E+02
 MRCHDU: Convergence failed at  48  side 1    Res =  0.1028E+03
 MRCHDU: Convergence failed at  49  side 1    Res =  0.1082E+03
 MRCHDU: Convergence failed at  50  side 1    Res =  0.7357E+02
 MRCHDU: Convergence failed at  51  side 1    Res =  0.7675E+02
 MRCHDU: Convergence failed at  52  side 1    Res =  0.8017E+02
 MRCHDU: Convergence failed at  53  side 1    Res =  0.8384E+02
 MRCHDU: Convergence failed at  54  side 1    Res =  0.1056E+03
 MRCHDU: Convergence failed at  55  side 1    Res =  0.1124E+03
 MRCHDU: Convergence failed at  56  side 1    Res =  0.1569E+03
 MRCHDU: Convergence failed at  57  side 1    Res =  0.1713E+03
 MRCHDU: Convergence failed at  58  side 1    Res =  0.1581E+03
 MRCHDU: Convergence failed at  59  side 1    Res =  0.1732E+03
 MRCHDU: Convergence failed at  60  side 1    Res =  0.1913E+03
[...]
 MRCHDU: Convergence failed at  77  side 1    Res =  0.4170E-01
 MRCHDU: Convergence failed at  78  side 1    Res =  0.4023E-01
 MRCHDU: Convergence failed at  79  side 1    Res =  0.3570E-01
 MRCHDU: Convergence failed at  80  side 1    Res =  0.3417E-01
 MRCHDU: Convergence failed at  81  side 1    Res =  0.3134E-01
 MRCHDU: Convergence failed at  82  side 1    Res =  0.2573E-01
 MRCHDU: Convergence failed at  83  side 1    Res =  0.2198E-01
 MRCHDU: Convergence failed at  84  side 1    Res =  0.2100E-01
 MRCHDU: Convergence failed at  85  side 1    Res =  0.1718E-01
 Side 1  free  transition at x/c =  0.0461   17
 Side 2 forced transition at x/c =  1.0000   77

 108   rms: 0.1213E+03   max: -.6154E+03   C at   65  1   RLX: 0.001
       a = 10.000      CL =  0.1648
      Cm =  0.0015     CD =  0.10702   =>   CDf =  0.00301    CDp =  0.10401

 MRCHDU: Convergence failed at  69  side 1    Res =  0.9963E-02
 MRCHDU: Convergence failed at  70  side 1    Res =  0.4024E-01
 MRCHDU: Convergence failed at  71  side 1    Res =  0.3795E-01
 MRCHDU: Convergence failed at  72  side 1    Res =  0.3858E-01
 MRCHDU: Convergence failed at  73  side 1    Res =  0.3979E-01
 MRCHDU: Convergence failed at  74  side 1    Res =  0.3950E-01
 MRCHDU: Convergence failed at  75  side 1    Res =  0.4008E-01
 MRCHDU: Convergence failed at  76  side 1    Res =  0.4102E-01
 MRCHDU: Convergence failed at  77  side 1    Res =  0.4172E-01
 MRCHDU: Convergence failed at  78  side 1    Res =  0.4026E-01
 MRCHDU: Convergence failed at  79  side 1    Res =  0.3573E-01
 MRCHDU: Convergence failed at  80  side 1    Res =  0.3419E-01
 MRCHDU: Convergence failed at  81  side 1    Res =  0.3135E-01
 MRCHDU: Convergence failed at  82  side 1    Res =  0.2572E-01
 MRCHDU: Convergence failed at  83  side 1    Res =  0.2199E-01
 MRCHDU: Convergence failed at  84  side 1    Res =  0.2102E-01
 MRCHDU: Convergence failed at  85  side 1    Res =  0.1718E-01
 Side 1  free  transition at x/c =  0.0461   17
 Side 2 forced transition at x/c =  1.0000   77

 109   rms: 0.1295E+03   max: -.6620E+03   C at   59  1   RLX: 0.001
       a = 10.000      CL =  0.1648
      Cm =  0.0015     CD =  0.10697   =>   CDf =  0.00301    CDp =  0.10396

 MRCHDU: Convergence failed at  68  side 1    Res =  0.2108E-01
 MRCHDU: Convergence failed at  69  side 1    Res =  0.4084E-01
 MRCHDU: Convergence failed at  70  side 1    Res =  0.4024E-01
 MRCHDU: Convergence failed at  71  side 1    Res =  0.3794E-01
 MRCHDU: Convergence failed at  72  side 1    Res =  0.3856E-01
 MRCHDU: Convergence failed at  73  side 1    Res =  0.3975E-01
 MRCHDU: Convergence failed at  74  side 1    Res =  0.3946E-01
 MRCHDU: Convergence failed at  75  side 1    Res =  0.4005E-01
 MRCHDU: Convergence failed at  76  side 1    Res =  0.4100E-01
 MRCHDU: Convergence failed at  77  side 1    Res =  0.4170E-01
 MRCHDU: Convergence failed at  78  side 1    Res =  0.4023E-01
 MRCHDU: Convergence failed at  79  side 1    Res =  0.3571E-01
 MRCHDU: Convergence failed at  80  side 1    Res =  0.3418E-01
 MRCHDU: Convergence failed at  81  side 1    Res =  0.3132E-01
 MRCHDU: Convergence failed at  82  side 1    Res =  0.2570E-01
 MRCHDU: Convergence failed at  83  side 1    Res =  0.2197E-01
 MRCHDU: Convergence failed at  84  side 1    Res =  0.2101E-01
 MRCHDU: Convergence failed at  85  side 1    Res =  0.1717E-01
 Side 1  free  transition at x/c =  0.0461   17
 Side 2 forced transition at x/c =  1.0000   77

 110   rms: 0.1101E+03   max: -.5589E+03   C at   60  1   RLX: 0.001
       a = 10.000      CL =  0.1648
      Cm =  0.0015     CD =  0.10691   =>   CDf =  0.00301    CDp =  0.10390

 MRCHDU: Convergence failed at  67  side 1    Res =  0.3360E-01
 MRCHDU: Convergence failed at  68  side 1    Res =  0.3919E-01
 MRCHDU: Convergence failed at  69  side 1    Res =  0.4085E-01
 MRCHDU: Convergence failed at  70  side 1    Res =  0.4025E-01
 MRCHDU: Convergence failed at  71  side 1    Res =  0.3796E-01
 MRCHDU: Convergence failed at  72  side 1    Res =  0.3857E-01
 MRCHDU: Convergence failed at  73  side 1    Res =  0.3976E-01
 MRCHDU: Convergence failed at  74  side 1    Res =  0.3948E-01
 MRCHDU: Convergence failed at  75  side 1    Res =  0.4007E-01
 MRCHDU: Convergence failed at  76  side 1    Res =  0.4103E-01
 MRCHDU: Convergence failed at  77  side 1    Res =  0.4174E-01
 MRCHDU: Convergence failed at  78  side 1    Res =  0.4028E-01
 MRCHDU: Convergence failed at  79  side 1    Res =  0.3576E-01
 MRCHDU: Convergence failed at  80  side 1    Res =  0.3422E-01
 MRCHDU: Convergence failed at  81  side 1    Res =  0.3135E-01
 MRCHDU: Convergence failed at  82  side 1    Res =  0.2572E-01
 MRCHDU: Convergence failed at  83  side 1    Res =  0.2198E-01
 MRCHDU: Convergence failed at  84  side 1    Res =  0.2099E-01
 MRCHDU: Convergence failed at  85  side 1    Res =  0.1713E-01
 Side 1  free  transition at x/c =  0.0461   17
 Side 2 forced transition at x/c =  1.0000   77

 111   rms: 0.1233E+03   max: -.6281E+03   C at   59  1   RLX: 0.001
       a = 10.000      CL =  0.1647
      Cm =  0.0016     CD =  0.10688   =>   CDf =  0.00301    CDp =  0.10387

 MRCHDU: Convergence failed at  65  side 1    Res =  0.2808E-02
 MRCHDU: Convergence failed at  66  side 1    Res =  0.4281E-01
 MRCHDU: Convergence failed at  67  side 1    Res =  0.3962E-01
 MRCHDU: Convergence failed at  68  side 1    Res =  0.3919E-01
 MRCHDU: Convergence failed at  69  side 1    Res =  0.4085E-01
 MRCHDU: Convergence failed at  70  side 1    Res =  0.4025E-01
 MRCHDU: Convergence failed at  71  side 1    Res =  0.3796E-01
 MRCHDU: Convergence failed at  72  side 1    Res =  0.3856E-01
 MRCHDU: Convergence failed at  73  side 1    Res =  0.3975E-01
 MRCHDU: Convergence failed at  74  side 1    Res =  0.3947E-01
 MRCHDU: Convergence failed at  75  side 1    Res =  0.4006E-01
 MRCHDU: Convergence failed at  76  side 1    Res =  0.4104E-01
 MRCHDU: Convergence failed at  77  side 1    Res =  0.4175E-01
 MRCHDU: Convergence failed at  78  side 1    Res =  0.4028E-01
 MRCHDU: Convergence failed at  79  side 1    Res =  0.3577E-01
 MRCHDU: Convergence failed at  80  side 1    Res =  0.3423E-01
 MRCHDU: Convergence failed at  81  side 1    Res =  0.3134E-01
 MRCHDU: Convergence failed at  82  side 1    Res =  0.2571E-01
 MRCHDU: Convergence failed at  83  side 1    Res =  0.2197E-01
 MRCHDU: Convergence failed at  84  side 1    Res =  0.2097E-01
 MRCHDU: Convergence failed at  85  side 1    Res =  0.1709E-01
 Side 1  free  transition at x/c =  0.0461   17
 Side 2 forced transition at x/c =  1.0000   77

 112   rms: 0.1700E+03   max: -.8575E+03   C at   68  1   RLX: 0.001
       a = 10.000      CL =  0.1647
      Cm =  0.0016     CD =  0.10687   =>   CDf =  0.00301    CDp =  0.10386

 MRCHDU: Convergence failed at  64  side 1    Res =  0.9224E-02
 MRCHDU: Convergence failed at  65  side 1    Res =  0.4527E-01
 MRCHDU: Convergence failed at  66  side 1    Res =  0.4283E-01
 MRCHDU: Convergence failed at  67  side 1    Res =  0.3965E-01
 MRCHDU: Convergence failed at  68  side 1    Res =  0.3922E-01
 MRCHDU: Convergence failed at  69  side 1    Res =  0.4088E-01
 MRCHDU: Convergence failed at  70  side 1    Res =  0.4028E-01
 MRCHDU: Convergence failed at  71  side 1    Res =  0.3798E-01
 MRCHDU: Convergence failed at  72  side 1    Res =  0.3858E-01
 MRCHDU: Convergence failed at  73  side 1    Res =  0.3978E-01
 MRCHDU: Convergence failed at  74  side 1    Res =  0.3949E-01
 MRCHDU: Convergence failed at  75  side 1    Res =  0.4009E-01
 MRCHDU: Convergence failed at  76  side 1    Res =  0.4108E-01
 MRCHDU: Convergence failed at  77  side 1    Res =  0.4180E-01
 MRCHDU: Convergence failed at  78  side 1    Res =  0.4034E-01
 MRCHDU: Convergence failed at  79  side 1    Res =  0.3582E-01
 MRCHDU: Convergence failed at  80  side 1    Res =  0.3428E-01
 MRCHDU: Convergence failed at  81  side 1    Res =  0.3138E-01
 MRCHDU: Convergence failed at  82  side 1    Res =  0.2573E-01
 MRCHDU: Convergence failed at  83  side 1    Res =  0.2198E-01
 MRCHDU: Convergence failed at  84  side 1    Res =  0.2098E-01
 MRCHDU: Convergence failed at  85  side 1    Res =  0.1710E-01
 Side 1  free  transition at x/c =  0.0461   17
 Side 2 forced transition at x/c =  1.0000   77

 113   rms: 0.1588E+03   max: -.8112E+03   C at   60  1   RLX: 0.001
       a = 10.000      CL =  0.1646
      Cm =  0.0016     CD =  0.10681   =>   CDf =  0.00301    CDp =  0.10380

 MRCHDU: Convergence failed at  63  side 1    Res =  0.1513E-01
 MRCHDU: Convergence failed at  64  side 1    Res =  0.4555E-01
 MRCHDU: Convergence failed at  65  side 1    Res =  0.4528E-01
 MRCHDU: Convergence failed at  66  side 1    Res =  0.4282E-01
 MRCHDU: Convergence failed at  67  side 1    Res =  0.3963E-01
 MRCHDU: Convergence failed at  68  side 1    Res =  0.3922E-01
 MRCHDU: Convergence failed at  69  side 1    Res =  0.4087E-01
 MRCHDU: Convergence failed at  70  side 1    Res =  0.4027E-01
 MRCHDU: Convergence failed at  71  side 1    Res =  0.3797E-01
 MRCHDU: Convergence failed at  72  side 1    Res =  0.3855E-01
 MRCHDU: Convergence failed at  73  side 1    Res =  0.3974E-01
 MRCHDU: Convergence failed at  74  side 1    Res =  0.3946E-01
 MRCHDU: Convergence failed at  75  side 1    Res =  0.4006E-01
 MRCHDU: Convergence failed at  76  side 1    Res =  0.4105E-01
 MRCHDU: Convergence failed at  77  side 1    Res =  0.4177E-01
 MRCHDU: Convergence failed at  78  side 1    Res =  0.4031E-01
 MRCHDU: Convergence failed at  79  side 1    Res =  0.3579E-01
 MRCHDU: Convergence failed at  80  side 1    Res =  0.3424E-01
 MRCHDU: Convergence failed at  81  side 1    Res =  0.3133E-01
 MRCHDU: Convergence failed at  82  side 1    Res =  0.2569E-01
 MRCHDU: Convergence failed at  83  side 1    Res =  0.2194E-01
 MRCHDU: Convergence failed at  84  side 1    Res =  0.2093E-01
 MRCHDU: Convergence failed at  85  side 1    Res =  0.1706E-01
 Side 1  free  transition at x/c =  0.0461   17
 Side 2 forced transition at x/c =  1.0000   77

 114   rms: 0.1225E+03   max: -.6239E+03   C at   58  1   RLX: 0.001
       a = 10.000      CL =  0.1646
      Cm =  0.0016     CD =  0.10679   =>   CDf =  0.00301    CDp =  0.10378

 MRCHDU: Convergence failed at  62  side 1    Res =  0.2257E-01
 MRCHDU: Convergence failed at  63  side 1    Res =  0.4365E-01
 MRCHDU: Convergence failed at  64  side 1    Res =  0.4557E-01
 MRCHDU: Convergence failed at  65  side 1    Res =  0.4530E-01
 MRCHDU: Convergence failed at  66  side 1    Res =  0.4282E-01
 MRCHDU: Convergence failed at  67  side 1    Res =  0.3963E-01
 MRCHDU: Convergence failed at  68  side 1    Res =  0.3922E-01
 MRCHDU: Convergence failed at  69  side 1    Res =  0.4086E-01
 MRCHDU: Convergence failed at  70  side 1    Res =  0.4026E-01
 MRCHDU: Convergence failed at  71  side 1    Res =  0.3795E-01
 MRCHDU: Convergence failed at  72  side 1    Res =  0.3853E-01
 MRCHDU: Convergence failed at  73  side 1    Res =  0.3972E-01
 MRCHDU: Convergence failed at  74  side 1    Res =  0.3945E-01
 MRCHDU: Convergence failed at  75  side 1    Res =  0.4006E-01
 MRCHDU: Convergence failed at  76  side 1    Res =  0.4106E-01
 MRCHDU: Convergence failed at  77  side 1    Res =  0.4180E-01
 MRCHDU: Convergence failed at  78  side 1    Res =  0.4034E-01
 MRCHDU: Convergence failed at  79  side 1    Res =  0.3583E-01
 MRCHDU: Convergence failed at  80  side 1    Res =  0.3427E-01
 MRCHDU: Convergence failed at  81  side 1    Res =  0.3134E-01
 MRCHDU: Convergence failed at  82  side 1    Res =  0.2570E-01
 MRCHDU: Convergence failed at  83  side 1    Res =  0.2196E-01
 MRCHDU: Convergence failed at  84  side 1    Res =  0.2096E-01
 MRCHDU: Convergence failed at  85  side 1    Res =  0.1709E-01
 Side 1  free  transition at x/c =  0.0462   17
 Side 2 forced transition at x/c =  1.0000   77

 115   rms: 0.1779E+03   max: -.9025E+03   C at   85  1   RLX: 0.001
       a = 10.000      CL =  0.1646
      Cm =  0.0016     CD =  0.10677   =>   CDf =  0.00301    CDp =  0.10376

 MRCHDU: Convergence failed at  61  side 1    Res =  0.3077E-01
 MRCHDU: Convergence failed at  62  side 1    Res =  0.4230E-01
 MRCHDU: Convergence failed at  63  side 1    Res =  0.4368E-01
 MRCHDU: Convergence failed at  64  side 1    Res =  0.4562E-01
 MRCHDU: Convergence failed at  65  side 1    Res =  0.4534E-01
 MRCHDU: Convergence failed at  66  side 1    Res =  0.4286E-01
 MRCHDU: Convergence failed at  67  side 1    Res =  0.3967E-01
 MRCHDU: Convergence failed at  68  side 1    Res =  0.3926E-01
 MRCHDU: Convergence failed at  69  side 1    Res =  0.4091E-01
 MRCHDU: Convergence failed at  70  side 1    Res =  0.4031E-01
 MRCHDU: Convergence failed at  71  side 1    Res =  0.3799E-01
 MRCHDU: Convergence failed at  72  side 1    Res =  0.3858E-01
 MRCHDU: Convergence failed at  73  side 1    Res =  0.3977E-01
 MRCHDU: Convergence failed at  74  side 1    Res =  0.3950E-01
 MRCHDU: Convergence failed at  75  side 1    Res =  0.4012E-01
 MRCHDU: Convergence failed at  76  side 1    Res =  0.4113E-01
 MRCHDU: Convergence failed at  77  side 1    Res =  0.4187E-01
 MRCHDU: Convergence failed at  78  side 1    Res =  0.4041E-01
 MRCHDU: Convergence failed at  79  side 1    Res =  0.3589E-01
 MRCHDU: Convergence failed at  80  side 1    Res =  0.3432E-01
 MRCHDU: Convergence failed at  81  side 1    Res =  0.3138E-01
 MRCHDU: Convergence failed at  82  side 1    Res =  0.2573E-01
 MRCHDU: Convergence failed at  83  side 1    Res =  0.2199E-01
 MRCHDU: Convergence failed at  84  side 1    Res =  0.2099E-01
 MRCHDU: Convergence failed at  85  side 1    Res =  0.1714E-01
 Side 1  free  transition at x/c =  0.0462   17
 Side 2 forced transition at x/c =  1.0000   77

 116   rms: 0.1533E+03   max: -.7781E+03   C at   59  1   RLX: 0.001
       a = 10.000      CL =  0.1646
      Cm =  0.0016     CD =  0.10670   =>   CDf =  0.00301    CDp =  0.10369

 MRCHDU: Convergence failed at  60  side 1    Res =  0.3916E-01
 MRCHDU: Convergence failed at  61  side 1    Res =  0.4264E-01
 MRCHDU: Convergence failed at  62  side 1    Res =  0.4231E-01
 MRCHDU: Convergence failed at  63  side 1    Res =  0.4370E-01
 MRCHDU: Convergence failed at  64  side 1    Res =  0.4563E-01
 MRCHDU: Convergence failed at  65  side 1    Res =  0.4536E-01
 MRCHDU: Convergence failed at  66  side 1    Res =  0.4287E-01
 MRCHDU: Convergence failed at  67  side 1    Res =  0.3968E-01
 MRCHDU: Convergence failed at  68  side 1    Res =  0.3927E-01
 MRCHDU: Convergence failed at  69  side 1    Res =  0.4093E-01
 MRCHDU: Convergence failed at  70  side 1    Res =  0.4033E-01
 MRCHDU: Convergence failed at  71  side 1    Res =  0.3801E-01
 MRCHDU: Convergence failed at  72  side 1    Res =  0.3859E-01
 MRCHDU: Convergence failed at  73  side 1    Res =  0.3978E-01
 MRCHDU: Convergence failed at  74  side 1    Res =  0.3950E-01
 MRCHDU: Convergence failed at  75  side 1    Res =  0.4013E-01
 MRCHDU: Convergence failed at  76  side 1    Res =  0.4114E-01
 MRCHDU: Convergence failed at  77  side 1    Res =  0.4188E-01
 MRCHDU: Convergence failed at  78  side 1    Res =  0.4041E-01
 MRCHDU: Convergence failed at  79  side 1    Res =  0.3589E-01
 MRCHDU: Convergence failed at  80  side 1    Res =  0.3432E-01
 MRCHDU: Convergence failed at  81  side 1    Res =  0.3136E-01
 MRCHDU: Convergence failed at  82  side 1    Res =  0.2571E-01
 MRCHDU: Convergence failed at  83  side 1    Res =  0.2197E-01
 MRCHDU: Convergence failed at  84  side 1    Res =  0.2098E-01
 MRCHDU: Convergence failed at  85  side 1    Res =  0.1712E-01
 Side 1  free  transition at x/c =  0.0462   17
 Side 2 forced transition at x/c =  1.0000   77

 117   rms: 0.1629E+03   max: -.8269E+03   C at   60  1   RLX: 0.001
       a = 10.000      CL =  0.1645
      Cm =  0.0016     CD =  0.10667   =>   CDf =  0.00301    CDp =  0.10366

 MRCHDU: Convergence failed at  58  side 1    Res =  0.3611E-02
 MRCHDU: Convergence failed at  59  side 1    Res =  0.4298E-01
 MRCHDU: Convergence failed at  60  side 1    Res =  0.4348E-01
 MRCHDU: Convergence failed at  61  side 1    Res =  0.4265E-01
 MRCHDU: Convergence failed at  62  side 1    Res =  0.4231E-01
 MRCHDU: Convergence failed at  63  side 1    Res =  0.4371E-01
 MRCHDU: Convergence failed at  64  side 1    Res =  0.4564E-01
 MRCHDU: Convergence failed at  65  side 1    Res =  0.4538E-01
 MRCHDU: Convergence failed at  66  side 1    Res =  0.4288E-01
 MRCHDU: Convergence failed at  67  side 1    Res =  0.3969E-01
 MRCHDU: Convergence failed at  68  side 1    Res =  0.3929E-01
 MRCHDU: Convergence failed at  69  side 1    Res =  0.4094E-01
 MRCHDU: Convergence failed at  70  side 1    Res =  0.4034E-01
 MRCHDU: Convergence failed at  71  side 1    Res =  0.3801E-01
 MRCHDU: Convergence failed at  72  side 1    Res =  0.3858E-01
 MRCHDU: Convergence failed at  73  side 1    Res =  0.3978E-01
 MRCHDU: Convergence failed at  74  side 1    Res =  0.3950E-01
 MRCHDU: Convergence failed at  75  side 1    Res =  0.4013E-01
 MRCHDU: Convergence failed at  76  side 1    Res =  0.4115E-01
 MRCHDU: Convergence failed at  77  side 1    Res =  0.4188E-01
 MRCHDU: Convergence failed at  78  side 1    Res =  0.4041E-01
 MRCHDU: Convergence failed at  79  side 1    Res =  0.3588E-01
 MRCHDU: Convergence failed at  80  side 1    Res =  0.3431E-01
 MRCHDU: Convergence failed at  81  side 1    Res =  0.3134E-01
 MRCHDU: Convergence failed at  82  side 1    Res =  0.2569E-01
 MRCHDU: Convergence failed at  83  side 1    Res =  0.2196E-01
 MRCHDU: Convergence failed at  84  side 1    Res =  0.2096E-01
 MRCHDU: Convergence failed at  85  side 1    Res =  0.1710E-01
 Side 1  free  transition at x/c =  0.0462   17
 Side 2 forced transition at x/c =  1.0000   77

 118   rms: 0.2365E+03   max: -.1194E+04   C at   78  1   RLX: 0.000
       a = 10.000      CL =  0.1645
      Cm =  0.0016     CD =  0.10666   =>   CDf =  0.00301    CDp =  0.10365

 MRCHDU: Convergence failed at  57  side 1    Res =  0.1237E-01
 MRCHDU: Convergence failed at  58  side 1    Res =  0.4206E-01
 MRCHDU: Convergence failed at  59  side 1    Res =  0.4300E-01
 MRCHDU: Convergence failed at  60  side 1    Res =  0.4350E-01
 MRCHDU: Convergence failed at  61  side 1    Res =  0.4266E-01
 MRCHDU: Convergence failed at  62  side 1    Res =  0.4234E-01
 MRCHDU: Convergence failed at  63  side 1    Res =  0.4374E-01
 MRCHDU: Convergence failed at  64  side 1    Res =  0.4568E-01
 MRCHDU: Convergence failed at  65  side 1    Res =  0.4541E-01
 MRCHDU: Convergence failed at  66  side 1    Res =  0.4291E-01
 MRCHDU: Convergence failed at  67  side 1    Res =  0.3971E-01
 MRCHDU: Convergence failed at  68  side 1    Res =  0.3932E-01
 MRCHDU: Convergence failed at  69  side 1    Res =  0.4098E-01
 MRCHDU: Convergence failed at  70  side 1    Res =  0.4037E-01
 MRCHDU: Convergence failed at  71  side 1    Res =  0.3803E-01
 MRCHDU: Convergence failed at  72  side 1    Res =  0.3860E-01
 MRCHDU: Convergence failed at  73  side 1    Res =  0.3980E-01
 MRCHDU: Convergence failed at  74  side 1    Res =  0.3953E-01
 MRCHDU: Convergence failed at  75  side 1    Res =  0.4017E-01
 MRCHDU: Convergence failed at  76  side 1    Res =  0.4120E-01
 MRCHDU: Convergence failed at  77  side 1    Res =  0.4192E-01
 MRCHDU: Convergence failed at  78  side 1    Res =  0.4045E-01
 MRCHDU: Convergence failed at  79  side 1    Res =  0.3591E-01
 MRCHDU: Convergence failed at  80  side 1    Res =  0.3433E-01
 MRCHDU: Convergence failed at  81  side 1    Res =  0.3135E-01
 MRCHDU: Convergence failed at  82  side 1    Res =  0.2570E-01
 MRCHDU: Convergence failed at  83  side 1    Res =  0.2197E-01
 MRCHDU: Convergence failed at  84  side 1    Res =  0.2097E-01
 MRCHDU: Convergence failed at  85  side 1    Res =  0.1711E-01
 Side 1  free  transition at x/c =  0.0462   17
 Side 2 forced transition at x/c =  1.0000   77

 119   rms: 0.1667E+03   max: -.8446E+03   C at   66  1   RLX: 0.001
       a = 10.000      CL =  0.1645

[TIMEOUT]
