  
       XFOIL         Version 6.99
  
 Calculated polar for: NACA 63-415 AIRFOIL                             
  
 1 1 Reynolds number fixed          Mach number fixed         
  
 xtrf =   1.000 (top)        1.000 (bottom)  
 Mach =   0.000     Re =     0.150 e 6     Ncrit =   9.000
  
   alpha    CL        CD       CDp       CM     Top_Xtr  Bot_Xtr
  ------ -------- --------- --------- -------- -------- --------
  -4.000  -0.1231   0.01602   0.00976  -0.0780   0.8529   0.5926
  -3.500  -0.0706   0.01658   0.01025  -0.0760   0.8395   0.6256
  -3.000  -0.0175   0.01693   0.01053  -0.0740   0.8269   0.6491
  -2.500   0.0334   0.01718   0.01069  -0.0725   0.8122   0.6708
  -2.000   0.0853   0.01726   0.01068  -0.0714   0.7981   0.6865
  -1.500   0.1380   0.01729   0.01063  -0.0706   0.7850   0.7016
  -1.000   0.1930   0.01722   0.01046  -0.0701   0.7737   0.7164
  -0.500   0.2465   0.01720   0.01038  -0.0697   0.7605   0.7312
   0.000   0.2992   0.01728   0.01044  -0.0693   0.7471   0.7460
   0.500   0.3528   0.01734   0.01048  -0.0690   0.7349   0.7611
   1.000   0.4094   0.01730   0.01038  -0.0688   0.7249   0.7766
   1.500   0.4586   0.01748   0.01065  -0.0676   0.7112   0.7909
   2.000   0.5084   0.01768   0.01093  -0.0665   0.6984   0.8067
   2.500   0.5601   0.01777   0.01108  -0.0656   0.6868   0.8231
   3.000   0.6132   0.01775   0.01110  -0.0647   0.6755   0.8407
   3.500   0.6603   0.01794   0.01143  -0.0631   0.6616   0.8597
   4.000   0.7042   0.01807   0.01172  -0.0606   0.6481   0.8792
   4.500   0.7486   0.01802   0.01180  -0.0580   0.6340   0.9021
   5.000   0.7932   0.01767   0.01156  -0.0552   0.6174   0.9286
   5.500   0.8472   0.01720   0.01120  -0.0543   0.5988   0.9599
   6.000   0.9314   0.01658   0.01062  -0.0594   0.5752   0.9905
   6.500   0.9853   0.01618   0.01025  -0.0597   0.5416   1.0000
   7.000   1.0385   0.01615   0.01032  -0.0600   0.5034   1.0000
   7.500   1.0883   0.01639   0.01061  -0.0596   0.4567   1.0000
   8.000   1.1253   0.01718   0.01121  -0.0571   0.3786   1.0000
   8.500   1.1298   0.01967   0.01291  -0.0506   0.2483   1.0000
   9.000   1.1106   0.02363   0.01607  -0.0423   0.1502   1.0000
   9.500   1.1028   0.02786   0.01991  -0.0370   0.1072   1.0000
  10.000   1.1112   0.03152   0.02350  -0.0338   0.0882   1.0000
  10.000   1.1112   0.03152   0.02350  -0.0338   0.0882   1.0000
  10.250   1.1157   0.03349   0.02538  -0.0324   0.0822   1.0000
  10.500   1.1264   0.03500   0.02696  -0.0314   0.0766   1.0000
  10.750   1.1357   0.03683   0.02863  -0.0303   0.0717   1.0000
  11.000   1.1485   0.03827   0.03023  -0.0295   0.0676   1.0000
  11.250   1.1610   0.03981   0.03174  -0.0287   0.0637   1.0000
  11.500   1.1790   0.04136   0.03326  -0.0279   0.0602   1.0000
  11.750   1.1928   0.04290   0.03493  -0.0272   0.0570   1.0000
  12.000   1.2091   0.04439   0.03637  -0.0266   0.0541   1.0000
  12.250   1.2367   0.04602   0.03801  -0.0262   0.0514   1.0000
  12.500   1.2528   0.04786   0.04005  -0.0255   0.0496   1.0000
  12.750   1.2702   0.04977   0.04211  -0.0250   0.0480   1.0000
  13.000   1.2866   0.05175   0.04419  -0.0245   0.0465   1.0000
  13.250   1.3251   0.05451   0.04687  -0.0252   0.0444   1.0000
  13.500   1.3211   0.05709   0.04976  -0.0239   0.0439   1.0000
  13.750   1.3170   0.06004   0.05303  -0.0229   0.0433   1.0000
  14.000   1.3124   0.06337   0.05666  -0.0222   0.0428   1.0000
  14.250   1.3057   0.06705   0.06064  -0.0217   0.0424   1.0000
  14.500   1.2964   0.07119   0.06506  -0.0216   0.0422   1.0000
  14.750   1.2838   0.07574   0.06989  -0.0218   0.0421   1.0000
  15.000   1.2681   0.08078   0.07522  -0.0225   0.0421   1.0000
  15.250   1.2492   0.08635   0.08105  -0.0238   0.0422   1.0000
  15.500   1.2276   0.09252   0.08749  -0.0258   0.0424   1.0000
  15.750   1.2041   0.09933   0.09454  -0.0285   0.0426   1.0000
  16.000   1.1786   0.10692   0.10237  -0.0322   0.0429   1.0000
