  
       XFOIL         Version 6.99
  
 Calculated polar for: NACA 63-415 AIRFOIL                             
  
 1 1 Reynolds number fixed          Mach number fixed         
  
 xtrf =   1.000 (top)        1.000 (bottom)  
 Mach =   0.000     Re =     0.300 e 6     Ncrit =   9.000
  
   alpha    CL        CD       CDp       CM     Top_Xtr  Bot_Xtr
  ------ -------- --------- --------- -------- -------- --------
  -4.000  -0.1181   0.01014   0.00433  -0.0760   0.7924   0.5188
  -3.500  -0.0617   0.01016   0.00429  -0.0759   0.7785   0.5514
  -3.000  -0.0055   0.01031   0.00441  -0.0757   0.7651   0.5853
  -2.500   0.0514   0.01039   0.00441  -0.0757   0.7527   0.6074
  -2.000   0.1081   0.01047   0.00441  -0.0755   0.7406   0.6265
  -1.500   0.1653   0.01047   0.00435  -0.0758   0.7277   0.6415
  -1.000   0.2224   0.01051   0.00435  -0.0759   0.7150   0.6557
  -0.500   0.2793   0.01055   0.00437  -0.0760   0.7034   0.6686
   0.000   0.3366   0.01059   0.00436  -0.0762   0.6918   0.6815
   0.500   0.3936   0.01064   0.00443  -0.0765   0.6794   0.6950
   1.000   0.4510   0.01075   0.00452  -0.0769   0.6675   0.7089
   1.500   0.5074   0.01085   0.00465  -0.0769   0.6563   0.7219
   2.000   0.5637   0.01093   0.00478  -0.0769   0.6439   0.7351
   2.500   0.6195   0.01105   0.00498  -0.0770   0.6312   0.7494
   3.000   0.6754   0.01119   0.00518  -0.0770   0.6190   0.7639
   3.500   0.7310   0.01135   0.00539  -0.0769   0.6064   0.7791
   4.000   0.7852   0.01144   0.00555  -0.0765   0.5899   0.7947
   4.500   0.8384   0.01153   0.00576  -0.0759   0.5722   0.8109
   5.000   0.8897   0.01160   0.00595  -0.0749   0.5507   0.8275
   5.500   0.9384   0.01166   0.00607  -0.0733   0.5214   0.8449
   6.000   0.9853   0.01183   0.00633  -0.0715   0.4934   0.8636
   6.500   1.0290   0.01207   0.00667  -0.0691   0.4591   0.8847
   7.000   1.0659   0.01247   0.00707  -0.0656   0.4110   0.9105
   7.500   1.0869   0.01325   0.00762  -0.0594   0.3303   0.9548
   8.000   1.1143   0.01561   0.00927  -0.0571   0.2060   1.0000
   8.500   1.1252   0.01831   0.01136  -0.0521   0.1143   1.0000
   9.000   1.1345   0.02102   0.01375  -0.0472   0.0733   1.0000
   9.500   1.1505   0.02355   0.01624  -0.0437   0.0596   1.0000
  10.000   1.1643   0.02644   0.01915  -0.0407   0.0521   1.0000
  10.000   1.1643   0.02644   0.01915  -0.0407   0.0521   1.0000
  10.250   1.1752   0.02769   0.02048  -0.0396   0.0493   1.0000
  10.500   1.1839   0.02914   0.02196  -0.0385   0.0468   1.0000
  10.750   1.1860   0.03118   0.02399  -0.0371   0.0447   1.0000
  11.000   1.1952   0.03270   0.02560  -0.0361   0.0428   1.0000
  11.250   1.2037   0.03430   0.02727  -0.0352   0.0408   1.0000
  11.500   1.2108   0.03607   0.02906  -0.0344   0.0391   1.0000
  11.750   1.2123   0.03841   0.03137  -0.0332   0.0374   1.0000
  12.000   1.2229   0.03998   0.03306  -0.0326   0.0361   1.0000
  12.250   1.2319   0.04172   0.03487  -0.0320   0.0346   1.0000
  12.500   1.2404   0.04352   0.03671  -0.0315   0.0332   1.0000
  12.750   1.2483   0.04545   0.03863  -0.0309   0.0320   1.0000
  13.000   1.2576   0.04737   0.04059  -0.0301   0.0308   1.0000
  13.250   1.2675   0.04918   0.04253  -0.0296   0.0300   1.0000
  13.500   1.2773   0.05105   0.04449  -0.0291   0.0292   1.0000
  13.750   1.2869   0.05297   0.04650  -0.0287   0.0284   1.0000
  14.000   1.2966   0.05492   0.04852  -0.0284   0.0278   1.0000
  14.250   1.3068   0.05685   0.05049  -0.0281   0.0272   1.0000
  14.500   1.3206   0.05863   0.05228  -0.0276   0.0265   1.0000
  14.750   1.3361   0.06078   0.05452  -0.0269   0.0259   1.0000
  15.000   1.3389   0.06356   0.05750  -0.0269   0.0257   1.0000
  15.250   1.3402   0.06660   0.06074  -0.0271   0.0254   1.0000
  15.500   1.3403   0.06989   0.06423  -0.0274   0.0251   1.0000
  15.750   1.3388   0.07343   0.06798  -0.0279   0.0248   1.0000
  16.000   1.3354   0.07729   0.07203  -0.0287   0.0244   1.0000
