
 ===================================================
  XFOIL Version 6.99
  Copyright (C) 2000   Mark Drela, Harold Youngren

  This software comes with ABSOLUTELY NO WARRANTY,
    subject to the GNU General Public License.

  Caveat computor
 ===================================================

 File  xfoil.def  not found

   QUIT    Exit program

  .OPER    Direct operating point(s)
  .MDES    Complex mapping design routine
  .QDES    Surface speed design routine
  .GDES    Geometry design routine

   SAVE f  Write airfoil to labeled coordinate file
   PSAV f  Write airfoil to plain coordinate file
   ISAV f  Write airfoil to ISES coordinate file
   MSAV f  Write airfoil to MSES coordinate file
   REVE    Reverse written-airfoil node ordering

   LOAD f  Read buffer airfoil from coordinate file
   NACA i  Set NACA 4,5-digit airfoil and buffer airfoil
   INTE    Set buffer airfoil by interpolating two airfoils
   NORM    Buffer airfoil normalization toggle
   XYCM rr Change CM reference location, currently  0.25000 0.00000

   BEND    Display structural properties of current airfoil

   PCOP    Set current-airfoil panel nodes directly from buffer airfoil points
   PANE    Set current-airfoil panel nodes ( 160 ) based on curvature
  .PPAR    Show/change paneling

  .PLOP    Plotting options

   WDEF f  Write  current-settings file
   RDEF f  Reread current-settings file
   NAME s  Specify new airfoil name
   NINC    Increment name version number

   Z       Zoom    | (available in all menus)
   U       Unzoom  | 

 XFOIL   c>  
 Labeled airfoil file.  Name:    NACA6409 9%                                   

 Number of input coordinate points:  61
 Counterclockwise ordering
 Max thickness =     0.090299  at x =   0.293
 Max camber    =     0.058583  at x =   0.396

  LE  x,y  =  -0.00032   0.00233  |   Chord =   1.00032
  TE  x,y  =   1.00000   0.00000  |

 Current airfoil nodes set from buffer airfoil nodes (  61 )

 WARNING: Poor input coordinate distribution
          Excessive panel angle   45.4  at i =  31
          Repaneling with PANE and/or PPAR suggested
           (doing GDES,CADD before repaneling _may_
            improve excessively coarse LE spacing

 XFOIL   c>  
 XFOIL   c>  
 Sharp trailing edge

 Paneling parameters used...
   Number of panel nodes       160
   Panel bunching parameter    1.000
   TE/LE panel density ratio   0.150
   Refined-area/LE panel density ratio    0.200
   Top    side refined area x/c limits  1.000 1.000
   Bottom side refined area x/c limits  1.000 1.000

 XFOIL   c>  
.OPERi   c>  
 Xtr/c     =  1.0000    top    side
 Xtr/c     =  1.0000    bottom side
 Ncrit     =    9.00   ( 0.070 % turb. level )
 Vacc      =  0.0100

 Klag  =  5.6000     Uxwt  =    1.00
 A     =  6.7000     B     =  0.7500       KCt = 0.01485
 CtiniK=  1.8000     CtiniX=  3.3000

..VPAR   c>  
..VPAR   c>  
.OPERi   c>  
 M  =    0.0000
 Re =    600000

.OPERv   c>  
.OPERv   c>  
.OPERv   c>  
 Polar  1 newly created for accumulation
 Airfoil archived with polar: NACA6409 9%                                     

Enter  polar save filename  OR  <return> for no file   s>  
 New polar save file available

Enter  polar dump filename  OR  <return> for no file   s>  
 Polar dump file will NOT be written

 Polar accumulation enabled

.OPERva   c>   Calculating unit vorticity distributions ...
 Calculating wake trajectory ...
 Calculating source influence matrix ...

 Solving BL system ...

 Initializing BL ...
    side            1  ...
 MRCHUE: Inverse mode at  57     Hk =   4.225
 MRCHUE: Inverse mode at  58     Hk =   4.859
 MRCHUE: Inverse mode at  59     Hk =   5.483
 MRCHUE: Inverse mode at  60     Hk =   6.100
 MRCHUE: Inverse mode at  61     Hk =   6.710
 MRCHUE: Inverse mode at  62     Hk =   7.316
 MRCHUE: Inverse mode at  63     Hk =   6.105
 MRCHUE: Inverse mode at  64     Hk =   3.711
 MRCHUE: Inverse mode at  65     Hk =   2.500
    side            2  ...
 MRCHUE: Inverse mode at  15     Hk =   4.044
 MRCHUE: Inverse mode at  16     Hk =   5.273
 MRCHUE: Inverse mode at  17     Hk =   6.523
 MRCHUE: Inverse mode at  18     Hk =   7.859
 MRCHUE: Inverse mode at  19     Hk =   9.345
 MRCHUE: Inverse mode at  20     Hk =   6.677
 MRCHUE: Inverse mode at  21     Hk =   2.500
 MRCHUE: Inverse mode at  22     Hk =   2.500

 Side 1  free  transition at x/c =  0.8046   63
 Side 2  free  transition at x/c =  0.0337   20

   1   rms: 0.1166E+00   max: -.7888E+00   T at   63  1   RLX: 0.634
       a = -4.000      CL =  0.2593
      Cm = -0.1570     CD =  0.01025   =>   CDf =  0.00586    CDp =  0.00439

 Side 1  free  transition at x/c =  0.8283   65
 Side 2  free  transition at x/c =  0.0313   20

   2   rms: 0.5484E-01   max: -.4764E+00   C at   65  1
       a = -4.000      CL =  0.2448
      Cm = -0.1512     CD =  0.00986   =>   CDf =  0.00581    CDp =  0.00404

 Side 1  free  transition at x/c =  0.8498   66
 Side 2  free  transition at x/c =  0.0297   20

   3   rms: 0.2061E-01   max: -.8561E-01   D at   22  2
       a = -4.000      CL =  0.2585
      Cm = -0.1544     CD =  0.01020   =>   CDf =  0.00562    CDp =  0.00458

 Side 1  free  transition at x/c =  0.8498   66
 Side 2  free  transition at x/c =  0.0300   20

   4   rms: 0.6798E-03   max: 0.4588E-02   D at   20  2
       a = -4.000      CL =  0.2586
      Cm = -0.1544     CD =  0.01022   =>   CDf =  0.00565    CDp =  0.00457

 Side 1  free  transition at x/c =  0.8497   66
 Side 2  free  transition at x/c =  0.0300   20

   5   rms: 0.2605E-05   max: 0.1471E-04   T at   20  2
       a = -4.000      CL =  0.2586
      Cm = -0.1544     CD =  0.01022   =>   CDf =  0.00565    CDp =  0.00457
 plradd ia,ip,cpol            1           0  3.66251869E-03

 Point added to stored polar  1
 Point written to save file  n6409_Re600k.base.pol                           
 Dump file unspecified or not available
 Calculating wake trajectory ...
 Calculating source influence matrix ...

 Solving BL system ...

 Side 1  free  transition at x/c =  0.8497   66
 Side 2  free  transition at x/c =  0.0300   20

   1   rms: 0.1305E+00   max: -.5814E+00   T at   20  2   RLX: 0.860
       a = -3.500      CL =  0.3022
      Cm = -0.1536     CD =  0.00908   =>   CDf =  0.00570    CDp =  0.00338

 Side 1  free  transition at x/c =  0.8343   66
 Side 2  free  transition at x/c =  0.0334   19

   2   rms: 0.4563E-01   max: -.2099E+00   D at   20  2
       a = -3.500      CL =  0.3119
      Cm = -0.1538     CD =  0.00950   =>   CDf =  0.00574    CDp =  0.00376

 Side 1  free  transition at x/c =  0.8337   66
 Side 2  free  transition at x/c =  0.0334   19

   3   rms: 0.1065E-02   max: 0.9718E-02   C at   66  1
       a = -3.500      CL =  0.3120
      Cm = -0.1538     CD =  0.00955   =>   CDf =  0.00577    CDp =  0.00378

 Side 1  free  transition at x/c =  0.8335   66
 Side 2  free  transition at x/c =  0.0333   19

   4   rms: 0.5604E-05   max: -.7084E-04   D at   68  1
       a = -3.500      CL =  0.3120
      Cm = -0.1538     CD =  0.00955   =>   CDf =  0.00577    CDp =  0.00378
 plradd ia,ip,cpol            2           0  5.54045197E-03

 Point added to stored polar  1
 Point written to save file  n6409_Re600k.base.pol                           
 Dump file unspecified or not available
 Calculating wake trajectory ...
 Calculating source influence matrix ...

 Solving BL system ...

 Side 1  free  transition at x/c =  0.8335   66
 Side 2  free  transition at x/c =  0.0333   19

   1   rms: 0.9974E-01   max: -.3882E+00   T at   19  2
       a = -3.000      CL =  0.3652
      Cm = -0.1530     CD =  0.00893   =>   CDf =  0.00581    CDp =  0.00312

 Side 1  free  transition at x/c =  0.8162   66
 Side 2  free  transition at x/c =  0.0369   19

   2   rms: 0.1121E-01   max: -.1666E+00   D at   66  1
       a = -3.000      CL =  0.3652
      Cm = -0.1530     CD =  0.00891   =>   CDf =  0.00598    CDp =  0.00294

 Side 1  free  transition at x/c =  0.8171   66
 Side 2  free  transition at x/c =  0.0371   19

   3   rms: 0.1464E-02   max: 0.2217E-01   C at   66  1
       a = -3.000      CL =  0.3653
      Cm = -0.1530     CD =  0.00892   =>   CDf =  0.00595    CDp =  0.00298

 Side 1  free  transition at x/c =  0.8166   66
 Side 2  free  transition at x/c =  0.0371   19

   4   rms: 0.1990E-04   max: -.2916E-03   D at   68  1
       a = -3.000      CL =  0.3653
      Cm = -0.1530     CD =  0.00892   =>   CDf =  0.00595    CDp =  0.00297
 plradd ia,ip,cpol            3           0  5.54045197E-03

 Point added to stored polar  1
 Point written to save file  n6409_Re600k.base.pol                           
 Dump file unspecified or not available
 Calculating wake trajectory ...
 Calculating source influence matrix ...

 Solving BL system ...

 Side 1  free  transition at x/c =  0.8166   66
 Side 2  free  transition at x/c =  0.0371   19

   1   rms: 0.1789E+00   max: -.7545E+00   T at   19  2   RLX: 0.663
       a = -2.500      CL =  0.3996
      Cm = -0.1525     CD =  0.00806   =>   CDf =  0.00596    CDp =  0.00210

 Side 1  free  transition at x/c =  0.8050   65
 Side 2  free  transition at x/c =  0.0490   20

   2   rms: 0.3426E-01   max: -.2213E-01   D at   83  2
       a = -2.500      CL =  0.4180
      Cm = -0.1522     CD =  0.00842   =>   CDf =  0.00600    CDp =  0.00242

 Side 1  free  transition at x/c =  0.7970   65
 Side 2  free  transition at x/c =  0.0485   20

   3   rms: 0.4975E-02   max: 0.6090E-01   D at   66  1
       a = -2.500      CL =  0.4185
      Cm = -0.1523     CD =  0.00844   =>   CDf =  0.00607    CDp =  0.00238

 Side 1  free  transition at x/c =  0.7986   65
 Side 2  free  transition at x/c =  0.0483   20

   4   rms: 0.2828E-03   max: -.5080E-02   D at   66  1
       a = -2.500      CL =  0.4185
      Cm = -0.1523     CD =  0.00845   =>   CDf =  0.00604    CDp =  0.00241

 Side 1  free  transition at x/c =  0.7985   65
 Side 2  free  transition at x/c =  0.0483   20

   5   rms: 0.2300E-05   max: -.2782E-04   D at   66  1
       a = -2.500      CL =  0.4185
      Cm = -0.1523     CD =  0.00845   =>   CDf =  0.00604    CDp =  0.00241
 plradd ia,ip,cpol            4           0  7.81142991E-03

 Point added to stored polar  1
 Point written to save file  n6409_Re600k.base.pol                           
 Dump file unspecified or not available
 Calculating wake trajectory ...
 Calculating source influence matrix ...

 Solving BL system ...

 Side 1  free  transition at x/c =  0.7985   65
 Side 2  free  transition at x/c =  0.0483   20

   1   rms: 0.1419E+00   max: 0.1054E+01   D at   20  2   RLX: 0.499
       a = -2.000      CL =  0.4452
      Cm = -0.1521     CD =  0.00818   =>   CDf =  0.00604    CDp =  0.00214

 Side 1  free  transition at x/c =  0.7899   64
 Side 2  free  transition at x/c =  0.0602   21

   2   rms: 0.5809E-01   max: 0.4164E+00   D at   21  2
       a = -2.000      CL =  0.4709
      Cm = -0.1515     CD =  0.00810   =>   CDf =  0.00603    CDp =  0.00207

 Side 1  free  transition at x/c =  0.7774   64
 Side 2  free  transition at x/c =  0.0686   21

   3   rms: 0.1844E-01   max: -.1700E+00   D at   20  2
       a = -2.000      CL =  0.4715
      Cm = -0.1516     CD =  0.00819   =>   CDf =  0.00612    CDp =  0.00207

 Side 1  free  transition at x/c =  0.7788   64
 Side 2  free  transition at x/c =  0.0688   21

   4   rms: 0.1202E-02   max: -.7975E-02   D at   21  2
       a = -2.000      CL =  0.4715
      Cm = -0.1516     CD =  0.00820   =>   CDf =  0.00610    CDp =  0.00211

 Side 1  free  transition at x/c =  0.7787   64
 Side 2  free  transition at x/c =  0.0685   21

   5   rms: 0.5720E-04   max: 0.4358E-03   D at   20  2
       a = -2.000      CL =  0.4715
      Cm = -0.1516     CD =  0.00820   =>   CDf =  0.00610    CDp =  0.00210
 plradd ia,ip,cpol            5           0  7.81142991E-03

 Point added to stored polar  1
 Point written to save file  n6409_Re600k.base.pol                           
 Dump file unspecified or not available
 Calculating wake trajectory ...
 Calculating source influence matrix ...

 Solving BL system ...

 Side 1  free  transition at x/c =  0.7787   64
 Side 2  free  transition at x/c =  0.0685   21

   1   rms: 0.2085E+00   max: -.9924E+00   C at   21  2   RLX: 0.504
       a = -1.500      CL =  0.4968
      Cm = -0.1510     CD =  0.00764   =>   CDf =  0.00610    CDp =  0.00154

 MRCHDU: Convergence failed at  22  side 2    Res =  0.6736E+00
 MRCHDU: Convergence failed at  23  side 2    Res =  0.2299E+01
 MRCHDU: Convergence failed at  24  side 2    Res =  0.5569E+01
 MRCHDU: Convergence failed at  25  side 2    Res =  0.3671E+01
 MRCHDU: Convergence failed at  26  side 2    Res =  0.2269E+01
 MRCHDU: Convergence failed at  27  side 2    Res =  0.2652E+01
 MRCHDU: Convergence failed at  28  side 2    Res =  0.3068E+01
 MRCHDU: Convergence failed at  29  side 2    Res =  0.3759E+01
 MRCHDU: Convergence failed at  30  side 2    Res =  0.4538E+01
 MRCHDU: Convergence failed at  31  side 2    Res =  0.5697E+01
 MRCHDU: Convergence failed at  32  side 2    Res =  0.6872E+01
 MRCHDU: Convergence failed at  33  side 2    Res =  0.8229E+01
 MRCHDU: Convergence failed at  34  side 2    Res =  0.9770E+01
 MRCHDU: Convergence failed at  35  side 2    Res =  0.1245E+02
 MRCHDU: Convergence failed at  36  side 2    Res =  0.1486E+02
 MRCHDU: Convergence failed at  37  side 2    Res =  0.2774E+02
 MRCHDU: Convergence failed at  38  side 2    Res =  0.3699E+02
 MRCHDU: Convergence failed at  39  side 2    Res =  0.4599E+02
 MRCHDU: Convergence failed at  40  side 2    Res =  0.5174E+02
 MRCHDU: Convergence failed at  41  side 2    Res =  0.5320E+02
 MRCHDU: Convergence failed at  42  side 2    Res =  0.3092E+02
 MRCHDU: Convergence failed at  43  side 2    Res =  0.2828E+02
 MRCHDU: Convergence failed at  44  side 2    Res =  0.2316E+02
 MRCHDU: Convergence failed at  45  side 2    Res =  0.2329E+02
 MRCHDU: Convergence failed at  46  side 2    Res =  0.3066E+02
 MRCHDU: Convergence failed at  47  side 2    Res =  0.3923E+02
 MRCHDU: Convergence failed at  48  side 2    Res =  0.5714E+02
 MRCHDU: Convergence failed at  49  side 2    Res =  0.1863E+03
 MRCHDU: Convergence failed at  50  side 2    Res =  0.1700E+03
 MRCHDU: Convergence failed at  51  side 2    Res =  0.9264E+02
 MRCHDU: Convergence failed at  52  side 2    Res =  0.6419E+02
 MRCHDU: Convergence failed at  53  side 2    Res =  0.4883E+02
 MRCHDU: Convergence failed at  54  side 2    Res =  0.3995E+02
 MRCHDU: Convergence failed at  55  side 2    Res =  0.3394E+02
 MRCHDU: Convergence failed at  56  side 2    Res =  0.2601E+02
 MRCHDU: Convergence failed at  57  side 2    Res =  0.2386E+02
 MRCHDU: Convergence failed at  58  side 2    Res =  0.2236E+02
 MRCHDU: Convergence failed at  59  side 2    Res =  0.2094E+02
 MRCHDU: Convergence failed at  60  side 2    Res =  0.1988E+02
 MRCHDU: Convergence failed at  61  side 2    Res =  0.1897E+02
 MRCHDU: Convergence failed at  62  side 2    Res =  0.1825E+02
 MRCHDU: Convergence failed at  63  side 2    Res =  0.1768E+02
 MRCHDU: Convergence failed at  64  side 2    Res =  0.1720E+02
 MRCHDU: Convergence failed at  65  side 2    Res =  0.1675E+02
 MRCHDU: Convergence failed at  66  side 2    Res =  0.1639E+02
 MRCHDU: Convergence failed at  67  side 2    Res =  0.1609E+02
 MRCHDU: Convergence failed at  68  side 2    Res =  0.1584E+02
 MRCHDU: Convergence failed at  69  side 2    Res =  0.1568E+02
 MRCHDU: Convergence failed at  70  side 2    Res =  0.1548E+02
 MRCHDU: Convergence failed at  71  side 2    Res =  0.1534E+02
 MRCHDU: Convergence failed at  72  side 2    Res =  0.1518E+02
 MRCHDU: Convergence failed at  73  side 2    Res =  0.1505E+02
 MRCHDU: Convergence failed at  74  side 2    Res =  0.1494E+02
 MRCHDU: Convergence failed at  75  side 2    Res =  0.1484E+02
 MRCHDU: Convergence failed at  76  side 2    Res =  0.1464E+02
 MRCHDU: Convergence failed at  77  side 2    Res =  0.1422E+02
 MRCHDU: Convergence failed at  78  side 2    Res =  0.1367E+02
 MRCHDU: Convergence failed at  79  side 2    Res =  0.1238E+02
 MRCHDU: Convergence failed at  80  side 2    Res =  0.1061E+02
 MRCHDU: Convergence failed at  81  side 2    Res =  0.8317E+01
 MRCHDU: Convergence failed at  82  side 2    Res =  0.6357E+01
 Side 1  free  transition at x/c =  0.7667   63
 Side 2  free  transition at x/c =  0.1271   25

   2   rms: 0.3851E+00   max: -.2987E+00   U at   82  2   RLX: 0.772
       a = -1.500      CL =  0.4296
      Cm = -0.1216     CD =  0.00599   =>   CDf =  0.00324    CDp =  0.00274

 Side 1  free  transition at x/c =  0.7600   63
 Side 2  free  transition at x/c =  0.1114   24

   3   rms: 0.1156E+00   max: 0.8697E+00   C at   24  2   RLX: 0.709
       a = -1.500      CL =  0.4969
      Cm = -0.1425     CD =  0.00788   =>   CDf =  0.00652    CDp =  0.00137

 Side 1  free  transition at x/c =  0.7582   63
 Side 2  free  transition at x/c =  0.0954   22

   4   rms: 0.3399E-01   max: 0.3248E+00   D at   23  2
       a = -1.500      CL =  0.5240
      Cm = -0.1508     CD =  0.00800   =>   CDf =  0.00627    CDp =  0.00173

 Side 1  free  transition at x/c =  0.7576   63
 Side 2  free  transition at x/c =  0.0940   22

   5   rms: 0.1469E-02   max: 0.2076E-01   C at   22  2
       a = -1.500      CL =  0.5241
      Cm = -0.1508     CD =  0.00801   =>   CDf =  0.00611    CDp =  0.00189

 Side 1  free  transition at x/c =  0.7576   63
 Side 2  free  transition at x/c =  0.0936   22

   6   rms: 0.1855E-04   max: -.2353E-03   D at   23  2
       a = -1.500      CL =  0.5241
      Cm = -0.1508     CD =  0.00801   =>   CDf =  0.00611    CDp =  0.00189
 plradd ia,ip,cpol            6           0  7.81142991E-03

 Point added to stored polar  1
 Point written to save file  n6409_Re600k.base.pol                           
 Dump file unspecified or not available
 Calculating wake trajectory ...
 Calculating source influence matrix ...

 Solving BL system ...

 Side 1  free  transition at x/c =  0.7576   63
 Side 2  free  transition at x/c =  0.0936   22

   1   rms: 0.9717E-01   max: -.6045E+00   T at   22  2   RLX: 0.827
       a = -1.000      CL =  0.5675
      Cm = -0.1501     CD =  0.00800   =>   CDf =  0.00609    CDp =  0.00191

 MRCHDU: Convergence failed at  23  side 2    Res =  0.4835E+02
 MRCHDU: Convergence failed at  24  side 2    Res =  0.2822E+02
 MRCHDU: Convergence failed at  25  side 2    Res =  0.4781E+01
 MRCHDU: Convergence failed at  26  side 2    Res =  0.4644E+01
 MRCHDU: Convergence failed at  27  side 2    Res =  0.5909E+01
 MRCHDU: Convergence failed at  28  side 2    Res =  0.8281E+01
 MRCHDU: Convergence failed at  29  side 2    Res =  0.1377E+02
 MRCHDU: Convergence failed at  30  side 2    Res =  0.2645E+02
 MRCHDU: Convergence failed at  31  side 2    Res =  0.5483E+02
 MRCHDU: Convergence failed at  32  side 2    Res =  0.8918E+03
 MRCHDU: Convergence failed at  33  side 2    Res =  0.7866E+02
 MRCHDU: Convergence failed at  34  side 2    Res =  0.4431E+02
 MRCHDU: Convergence failed at  35  side 2    Res =  0.3207E+02
 MRCHDU: Convergence failed at  36  side 2    Res =  0.2666E+02
 MRCHDU: Convergence failed at  37  side 2    Res =  0.2234E+02
 MRCHDU: Convergence failed at  38  side 2    Res =  0.2110E+02
 MRCHDU: Convergence failed at  39  side 2    Res =  0.2074E+02
 MRCHDU: Convergence failed at  40  side 2    Res =  0.2071E+02
 MRCHDU: Convergence failed at  41  side 2    Res =  0.2102E+02
 MRCHDU: Convergence failed at  42  side 2    Res =  0.2172E+02
 MRCHDU: Convergence failed at  43  side 2    Res =  0.2194E+02
 MRCHDU: Convergence failed at  44  side 2    Res =  0.2142E+02
 MRCHDU: Convergence failed at  45  side 2    Res =  0.1968E+02
 MRCHDU: Convergence failed at  46  side 2    Res =  0.1772E+02
 MRCHDU: Convergence failed at  47  side 2    Res =  0.1600E+02
 MRCHDU: Convergence failed at  48  side 2    Res =  0.1483E+02
 MRCHDU: Convergence failed at  49  side 2    Res =  0.1375E+02
 MRCHDU: Convergence failed at  50  side 2    Res =  0.1307E+02
 MRCHDU: Convergence failed at  51  side 2    Res =  0.1247E+02
 MRCHDU: Convergence failed at  52  side 2    Res =  0.1192E+02
 MRCHDU: Convergence failed at  53  side 2    Res =  0.1146E+02
 MRCHDU: Convergence failed at  54  side 2    Res =  0.1105E+02
 MRCHDU: Convergence failed at  55  side 2    Res =  0.1061E+02
 MRCHDU: Convergence failed at  56  side 2    Res =  0.1032E+02
 MRCHDU: Convergence failed at  57  side 2    Res =  0.1008E+02
 MRCHDU: Convergence failed at  58  side 2    Res =  0.9843E+01
 MRCHDU: Convergence failed at  59  side 2    Res =  0.9638E+01
 MRCHDU: Convergence failed at  60  side 2    Res =  0.9444E+01
 MRCHDU: Convergence failed at  61  side 2    Res =  0.9272E+01
 MRCHDU: Convergence failed at  62  side 2    Res =  0.9116E+01
 MRCHDU: Convergence failed at  63  side 2    Res =  0.8967E+01
 MRCHDU: Convergence failed at  64  side 2    Res =  0.8818E+01
 MRCHDU: Convergence failed at  65  side 2    Res =  0.8674E+01
 MRCHDU: Convergence failed at  66  side 2    Res =  0.8533E+01
 MRCHDU: Convergence failed at  67  side 2    Res =  0.8395E+01
 MRCHDU: Convergence failed at  68  side 2    Res =  0.8261E+01
 MRCHDU: Convergence failed at  69  side 2    Res =  0.8118E+01
 MRCHDU: Convergence failed at  70  side 2    Res =  0.7973E+01
 MRCHDU: Convergence failed at  71  side 2    Res =  0.7819E+01
 MRCHDU: Convergence failed at  72  side 2    Res =  0.7662E+01
 MRCHDU: Convergence failed at  73  side 2    Res =  0.7502E+01
 MRCHDU: Convergence failed at  74  side 2    Res =  0.7335E+01
 MRCHDU: Convergence failed at  75  side 2    Res =  0.7155E+01
 MRCHDU: Convergence failed at  76  side 2    Res =  0.6954E+01
 MRCHDU: Convergence failed at  77  side 2    Res =  0.6735E+01
 MRCHDU: Convergence failed at  78  side 2    Res =  0.6503E+01
 MRCHDU: Convergence failed at  79  side 2    Res =  0.6151E+01
 MRCHDU: Convergence failed at  80  side 2    Res =  0.5724E+01
 MRCHDU: Convergence failed at  81  side 2    Res =  0.4825E+01
 Side 1  free  transition at x/c =  0.7382   63
 Side 2  free  transition at x/c =  0.1193   23

   2   rms: 0.3245E+00   max: -.9932E+00   D at   74  2   RLX: 0.503
       a = -1.000      CL =  0.4293
      Cm = -0.1036     CD =  0.00584   =>   CDf =  0.00314    CDp =  0.00270

 Side 1  free  transition at x/c =  0.7371   62
 Side 2  free  transition at x/c =  0.1264   24

   3   rms: 0.1103E+00   max: 0.1098E+00   D at   83  2
       a = -1.000      CL =  0.5752
      Cm = -0.1497     CD =  0.00782   =>   CDf =  0.00680    CDp =  0.00103

 Side 1  free  transition at x/c =  0.7351   62
 Side 2  free  transition at x/c =  0.1299   24

   4   rms: 0.5016E-02   max: 0.5862E-01   C at   24  2
       a = -1.000      CL =  0.5762
      Cm = -0.1499     CD =  0.00791   =>   CDf =  0.00613    CDp =  0.00179

 Side 1  free  transition at x/c =  0.7350   62
 Side 2  free  transition at x/c =  0.1282   24

   5   rms: 0.3262E-03   max: -.4080E-02   D at   24  2
       a = -1.000      CL =  0.5762
      Cm = -0.1499     CD =  0.00791   =>   CDf =  0.00614    CDp =  0.00178

 Side 1  free  transition at x/c =  0.7350   62
 Side 2  free  transition at x/c =  0.1281   24

   6   rms: 0.2648E-05   max: -.2836E-04   D at   24  2
       a = -1.000      CL =  0.5762
      Cm = -0.1499     CD =  0.00791   =>   CDf =  0.00614    CDp =  0.00178
 plradd ia,ip,cpol            7           0  0.32012108    

 Point added to stored polar  1
 Point written to save file  n6409_Re600k.base.pol                           
 Dump file unspecified or not available
 Calculating wake trajectory ...
 Calculating source influence matrix ...

 Solving BL system ...

 Side 1  free  transition at x/c =  0.7350   62
 Side 2  free  transition at x/c =  0.1281   24

   1   rms: 0.1374E+00   max: 0.1361E+01   D at   24  2   RLX: 0.694
       a = -0.500      CL =  0.6118
      Cm = -0.1494     CD =  0.00769   =>   CDf =  0.00614    CDp =  0.00155

 Side 1  free  transition at x/c =  0.7164   61
 Side 2  free  transition at x/c =  0.1555   25

   2   rms: 0.3184E-01   max: -.1947E+00   T at   25  2
       a = -0.500      CL =  0.6281
      Cm = -0.1490     CD =  0.00787   =>   CDf =  0.00614    CDp =  0.00174

 Side 1  free  transition at x/c =  0.7104   62
 Side 2  free  transition at x/c =  0.1705   25

   3   rms: 0.1277E-01   max: -.1903E+00   C at   25  2
       a = -0.500      CL =  0.6279
      Cm = -0.1490     CD =  0.00786   =>   CDf =  0.00616    CDp =  0.00170

 Side 1  free  transition at x/c =  0.7110   62
 Side 2  free  transition at x/c =  0.1731   26

   4   rms: 0.4787E-02   max: -.6832E-01   D at   25  2
       a = -0.500      CL =  0.6279
      Cm = -0.1490     CD =  0.00785   =>   CDf =  0.00613    CDp =  0.00172

 Side 1  free  transition at x/c =  0.7110   62
 Side 2  free  transition at x/c =  0.1738   26

   5   rms: 0.6535E-03   max: 0.7510E-02   C at   26  2
       a = -0.500      CL =  0.6279
      Cm = -0.1490     CD =  0.00785   =>   CDf =  0.00612    CDp =  0.00173

 Side 1  free  transition at x/c =  0.7110   62
 Side 2  free  transition at x/c =  0.1736   26

   6   rms: 0.9178E-05   max: -.1152E-03   D at   27  2
       a = -0.500      CL =  0.6279
      Cm = -0.1490     CD =  0.00785   =>   CDf =  0.00612    CDp =  0.00173
 plradd ia,ip,cpol            8           0  0.32012108    

 Point added to stored polar  1
 Point written to save file  n6409_Re600k.base.pol                           
 Dump file unspecified or not available
 Calculating wake trajectory ...
 Calculating source influence matrix ...

 Solving BL system ...

 Side 1  free  transition at x/c =  0.7110   62
 Side 2  free  transition at x/c =  0.1736   26

   1   rms: 0.1328E+00   max: 0.1167E+01   D at   26  2   RLX: 0.566
       a =  0.000      CL =  0.6565
      Cm = -0.1484     CD =  0.00779   =>   CDf =  0.00612    CDp =  0.00167

 Side 1  free  transition at x/c =  0.6973   61
 Side 2  free  transition at x/c =  0.1995   27

   2   rms: 0.4886E-01   max: -.4183E+00   C at   27  2
       a =  0.000      CL =  0.6791
      Cm = -0.1480     CD =  0.00786   =>   CDf =  0.00612    CDp =  0.00174

 Side 1  free  transition at x/c =  0.6859   60
 Side 2  free  transition at x/c =  0.2216   29

   3   rms: 0.1995E-01   max: -.2710E+00   C at   29  2
       a =  0.000      CL =  0.6789
      Cm = -0.1480     CD =  0.00781   =>   CDf =  0.00613    CDp =  0.00168

 Side 1  free  transition at x/c =  0.6859   60
 Side 2  free  transition at x/c =  0.2307   29

   4   rms: 0.1585E-02   max: -.2487E-01   C at   29  2
       a =  0.000      CL =  0.6790
      Cm = -0.1480     CD =  0.00783   =>   CDf =  0.00608    CDp =  0.00175

 Side 1  free  transition at x/c =  0.6858   60
 Side 2  free  transition at x/c =  0.2305   29

   5   rms: 0.1641E-04   max: 0.3002E-03   C at   29  2
       a =  0.000      CL =  0.6790
      Cm = -0.1480     CD =  0.00783   =>   CDf =  0.00608    CDp =  0.00175
 plradd ia,ip,cpol            9           0  0.30570549    

 Point added to stored polar  1
 Point written to save file  n6409_Re600k.base.pol                           
 Dump file unspecified or not available
 Calculating wake trajectory ...
 Calculating source influence matrix ...

 Solving BL system ...

 Side 1  free  transition at x/c =  0.6858   60
 Side 2  free  transition at x/c =  0.2305   29

   1   rms: 0.1117E+00   max: -.1236E+01   C at   29  2   RLX: 0.404
       a =  0.500      CL =  0.6996
      Cm = -0.1476     CD =  0.00784   =>   CDf =  0.00608    CDp =  0.00176

 Side 1  free  transition at x/c =  0.6750   59
 Side 2  free  transition at x/c =  0.2511   31

   2   rms: 0.8626E-01   max: -.9433E+00   C at   31  2   RLX: 0.530
       a =  0.500      CL =  0.7157
      Cm = -0.1473     CD =  0.00781   =>   CDf =  0.00607    CDp =  0.00174

 Side 1  free  transition at x/c =  0.6660   60
 Side 2  free  transition at x/c =  0.2677   31

   3   rms: 0.5733E-01   max: -.7796E+00   C at   31  2   RLX: 0.641
       a =  0.500      CL =  0.7246
      Cm = -0.1470     CD =  0.00785   =>   CDf =  0.00611    CDp =  0.00174

 Side 1  free  transition at x/c =  0.6625   59
 Side 2  free  transition at x/c =  0.2799   32

   4   rms: 0.4255E-01   max: -.5096E+00   C at   32  2   RLX: 0.981
       a =  0.500      CL =  0.7293
      Cm = -0.1469     CD =  0.00780   =>   CDf =  0.00613    CDp =  0.00166

 Side 1  free  transition at x/c =  0.6604   59
 Side 2  free  transition at x/c =  0.3118   34

   5   rms: 0.4621E-02   max: -.7309E-01   D at   33  2
       a =  0.500      CL =  0.7295
      Cm = -0.1469     CD =  0.00784   =>   CDf =  0.00601    CDp =  0.00182

 Side 1  free  transition at x/c =  0.6604   59
 Side 2  free  transition at x/c =  0.3072   33

   6   rms: 0.4386E-03   max: 0.7317E-02   C at   33  2
       a =  0.500      CL =  0.7295
      Cm = -0.1469     CD =  0.00783   =>   CDf =  0.00601    CDp =  0.00182

 Side 1  free  transition at x/c =  0.6604   59
 Side 2  free  transition at x/c =  0.3070   33

   7   rms: 0.2128E-05   max: 0.3609E-04   C at   33  2
       a =  0.500      CL =  0.7295
      Cm = -0.1469     CD =  0.00783   =>   CDf =  0.00602    CDp =  0.00182
 plradd ia,ip,cpol           10           0  0.29130110    

 Point added to stored polar  1
 Point written to save file  n6409_Re600k.base.pol                           
 Dump file unspecified or not available
 Calculating wake trajectory ...
 Calculating source influence matrix ...

 Solving BL system ...

 Side 1  free  transition at x/c =  0.6604   59
 Side 2  free  transition at x/c =  0.3070   33

   1   rms: 0.1620E+00   max: -.2808E+01   C at   33  2   RLX: 0.178
       a =  1.000      CL =  0.7386
      Cm = -0.1468     CD =  0.00782   =>   CDf =  0.00602    CDp =  0.00180

 Side 1  free  transition at x/c =  0.6552   59
 Side 2  free  transition at x/c =  0.3245   34

   2   rms: 0.1446E+00   max: -.2601E+01   C at   34  2   RLX: 0.192
       a =  1.000      CL =  0.7465
      Cm = -0.1466     CD =  0.00783   =>   CDf =  0.00599    CDp =  0.00183

 Side 1  free  transition at x/c =  0.6509   59
 Side 2  free  transition at x/c =  0.3397   35

   3   rms: 0.9067E-01   max: -.1369E+01   C at   35  2   RLX: 0.365
       a =  1.000      CL =  0.7586
      Cm = -0.1462     CD =  0.00787   =>   CDf =  0.00599    CDp =  0.00188

 Side 1  free  transition at x/c =  0.6455   58
 Side 2  free  transition at x/c =  0.3797   38

   4   rms: 0.2214E+00   max: -.4451E+01   C at   38  2   RLX: 0.112
       a =  1.000      CL =  0.7605
      Cm = -0.1461     CD =  0.00776   =>   CDf =  0.00591    CDp =  0.00185

 Side 1  free  transition at x/c =  0.6442   58
 Side 2  free  transition at x/c =  0.3867   39

   5   rms: 0.1803E+00   max: -.3544E+01   C at   39  2   RLX: 0.141
       a =  1.000      CL =  0.7633
      Cm = -0.1461     CD =  0.00774   =>   CDf =  0.00590    CDp =  0.00185

 Side 1  free  transition at x/c =  0.6428   58
 Side 2  free  transition at x/c =  0.4008   40

   6   rms: 0.2880E+00   max: -.5838E+01   C at   40  2   RLX: 0.086
       a =  1.000      CL =  0.7646
      Cm = -0.1461     CD =  0.00771   =>   CDf =  0.00584    CDp =  0.00187

 Side 1  free  transition at x/c =  0.6421   58
 Side 2  free  transition at x/c =  0.4224   41

   7   rms: 0.7154E+00   max: -.1399E+02   C at   41  2   RLX: 0.036
       a =  1.000      CL =  0.7649
      Cm = -0.1461     CD =  0.00767   =>   CDf =  0.00578    CDp =  0.00188

 Side 1  free  transition at x/c =  0.6418   58
 Side 2  free  transition at x/c =  0.4372   42

   8   rms: 0.7714E+00   max: -.1500E+02   C at   42  2   RLX: 0.033
       a =  1.000      CL =  0.7653
      Cm = -0.1461     CD =  0.00764   =>   CDf =  0.00575    CDp =  0.00189

 Side 1  free  transition at x/c =  0.6416   58
 Side 2  free  transition at x/c =  0.4458   42

   9   rms: 0.8412E+00   max: -.1555E+02   C at   42  2   RLX: 0.032
       a =  1.000      CL =  0.7657
      Cm = -0.1461     CD =  0.00762   =>   CDf =  0.00573    CDp =  0.00190

 Side 1  free  transition at x/c =  0.6414   58
 Side 2  free  transition at x/c =  0.4593   43

  10   rms: 0.9415E+00   max: -.1751E+02   C at   43  2   RLX: 0.029
       a =  1.000      CL =  0.7659
      Cm = -0.1461     CD =  0.00760   =>   CDf =  0.00570    CDp =  0.00190

 Side 1  free  transition at x/c =  0.6412   58
 Side 2  free  transition at x/c =  0.4764   44

  11   rms: 0.1205E+01   max: -.2202E+02   C at   44  2   RLX: 0.023
       a =  1.000      CL =  0.7661
      Cm = -0.1460     CD =  0.00756   =>   CDf =  0.00565    CDp =  0.00191

 Side 1  free  transition at x/c =  0.6411   58
 Side 2  free  transition at x/c =  0.4943   46

  12   rms: 0.1159E+01   max: -.2266E+02   C at   46  2   RLX: 0.022
       a =  1.000      CL =  0.7661
      Cm = -0.1460     CD =  0.00752   =>   CDf =  0.00561    CDp =  0.00191

 Side 1  free  transition at x/c =  0.6409   58
 Side 2  free  transition at x/c =  0.5144   47

  13   rms: 0.1428E+01   max: -.2716E+02   C at   47  2   RLX: 0.018
       a =  1.000      CL =  0.7661
      Cm = -0.1460     CD =  0.00749   =>   CDf =  0.00556    CDp =  0.00192

 Side 1  free  transition at x/c =  0.6408   58
 Side 2  free  transition at x/c =  0.5353   48

  14   rms: 0.1682E+01   max: -.3114E+02   C at   48  2   RLX: 0.016
       a =  1.000      CL =  0.7660
      Cm = -0.1459     CD =  0.00745   =>   CDf =  0.00552    CDp =  0.00193

 Side 1  free  transition at x/c =  0.6407   58
 Side 2  free  transition at x/c =  0.5546   49

  15   rms: 0.1833E+01   max: -.3328E+02   C at   49  2   RLX: 0.015
       a =  1.000      CL =  0.7660
      Cm = -0.1459     CD =  0.00741   =>   CDf =  0.00547    CDp =  0.00194

 Side 1  free  transition at x/c =  0.6407   58
 Side 2  free  transition at x/c =  0.5734   51

  16   rms: 0.1591E+01   max: -.3067E+02   C at   51  2   RLX: 0.016
       a =  1.000      CL =  0.7658
      Cm = -0.1458     CD =  0.00737   =>   CDf =  0.00542    CDp =  0.00194

 Side 1  free  transition at x/c =  0.6406   58
 Side 2  free  transition at x/c =  0.5917   52

  17   rms: 0.1677E+01   max: -.3178E+02   C at   52  2   RLX: 0.016
       a =  1.000      CL =  0.7657
      Cm = -0.1458     CD =  0.00733   =>   CDf =  0.00538    CDp =  0.00195

 Side 1  free  transition at x/c =  0.6405   58
 Side 2  free  transition at x/c =  0.6093   53

  18   rms: 0.1638E+01   max: -.3055E+02   C at   53  2   RLX: 0.016
       a =  1.000      CL =  0.7656
      Cm = -0.1457     CD =  0.00729   =>   CDf =  0.00533    CDp =  0.00196

 Side 1  free  transition at x/c =  0.6404   58
 Side 2  free  transition at x/c =  0.6116   53

  19   rms: 0.1177E+01   max: -.2177E+02   C at   53  2   RLX: 0.023
       a =  1.000      CL =  0.7658
      Cm = -0.1458     CD =  0.00729   =>   CDf =  0.00533    CDp =  0.00196

 Side 1  free  transition at x/c =  0.6403   58
 Side 2  free  transition at x/c =  0.6094   53

  20   rms: 0.6492E+00   max: -.1219E+02   C at   53  2   RLX: 0.041
       a =  1.000      CL =  0.7661
      Cm = -0.1458     CD =  0.00729   =>   CDf =  0.00533    CDp =  0.00196

 Side 1  free  transition at x/c =  0.6401   58
 Side 2  free  transition at x/c =  0.6122   53

  21   rms: 0.4685E+00   max: -.8685E+01   C at   53  2   RLX: 0.058
       a =  1.000      CL =  0.7666
      Cm = -0.1458     CD =  0.00729   =>   CDf =  0.00533    CDp =  0.00196

 Side 1  free  transition at x/c =  0.6398   58
 Side 2  free  transition at x/c =  0.6493   56

  22   rms: 0.7951E+00   max: -.1495E+02   C at   56  2   RLX: 0.033
       a =  1.000      CL =  0.7662
      Cm = -0.1456     CD =  0.00720   =>   CDf =  0.00522    CDp =  0.00197

 Side 1  free  transition at x/c =  0.6397   58
 Side 2  free  transition at x/c =  0.6623   56

  23   rms: 0.9892E+00   max: -.1707E+02   C at   56  2   RLX: 0.029
       a =  1.000      CL =  0.7662
      Cm = -0.1455     CD =  0.00717   =>   CDf =  0.00518    CDp =  0.00198

 Side 1  free  transition at x/c =  0.6396   58
 Side 2  free  transition at x/c =  0.6766   57

  24   rms: 0.9261E+00   max: -.1620E+02   C at   57  2   RLX: 0.031
       a =  1.000      CL =  0.7661
      Cm = -0.1455     CD =  0.00714   =>   CDf =  0.00515    CDp =  0.00199

 Side 1  free  transition at x/c =  0.6395   58
 Side 2  free  transition at x/c =  0.6962   59

  25   rms: 0.8163E+00   max: -.1526E+02   C at   59  2   RLX: 0.033
       a =  1.000      CL =  0.7658
      Cm = -0.1453     CD =  0.00709   =>   CDf =  0.00510    CDp =  0.00199

 Side 1  free  transition at x/c =  0.6393   58
 Side 2  free  transition at x/c =  0.7162   60

  26   rms: 0.9010E+00   max: -.1638E+02   C at   60  2   RLX: 0.031
       a =  1.000      CL =  0.7655
      Cm = -0.1452     CD =  0.00704   =>   CDf =  0.00505    CDp =  0.00200

 Side 1  free  transition at x/c =  0.6392   58
 Side 2  free  transition at x/c =  0.7361   61

  27   rms: 0.9601E+00   max: -.1694E+02   C at   61  2   RLX: 0.030
       a =  1.000      CL =  0.7652
      Cm = -0.1451     CD =  0.00700   =>   CDf =  0.00499    CDp =  0.00200

 Side 1  free  transition at x/c =  0.6392   58
 Side 2  free  transition at x/c =  0.7555   62

  28   rms: 0.9829E+00   max: -.1683E+02   C at   62  2   RLX: 0.030
       a =  1.000      CL =  0.7647
      Cm = -0.1449     CD =  0.00695   =>   CDf =  0.00494    CDp =  0.00201

 Side 1  free  transition at x/c =  0.6391   58
 Side 2  free  transition at x/c =  0.7743   64

  29   rms: 0.8059E+00   max: -.1469E+02   C at   64  2   RLX: 0.034
       a =  1.000      CL =  0.7642
      Cm = -0.1447     CD =  0.00689   =>   CDf =  0.00489    CDp =  0.00201

 Side 1  free  transition at x/c =  0.6390   58
 Side 2  free  transition at x/c =  0.7931   65

  30   rms: 0.8329E+00   max: -.1478E+02   C at   65  2   RLX: 0.034
       a =  1.000      CL =  0.7637
      Cm = -0.1445     CD =  0.00685   =>   CDf =  0.00483    CDp =  0.00201

 Side 1  free  transition at x/c =  0.6389   58
 Side 2  free  transition at x/c =  0.8119   66

  31   rms: 0.8775E+00   max: -.1513E+02   C at   66  2   RLX: 0.033
       a =  1.000      CL =  0.7631
      Cm = -0.1443     CD =  0.00680   =>   CDf =  0.00478    CDp =  0.00202

 Side 1  free  transition at x/c =  0.6388   58
 Side 2  free  transition at x/c =  0.8305   67

  32   rms: 0.9849E+00   max: -.1650E+02   C at   67  2   RLX: 0.030
       a =  1.000      CL =  0.7627
      Cm = -0.1441     CD =  0.00675   =>   CDf =  0.00473    CDp =  0.00202

 Side 1  free  transition at x/c =  0.6388   58
 Side 2  free  transition at x/c =  0.8482   68

  33   rms: 0.1249E+01   max: -.2044E+02   C at   68  2   RLX: 0.024
       a =  1.000      CL =  0.7623
      Cm = -0.1440     CD =  0.00671   =>   CDf =  0.00468    CDp =  0.00203

 Side 1  free  transition at x/c =  0.6387   58
 Side 2  free  transition at x/c =  0.8653   70

  34   rms: 0.2444E+01   max: -.4317E+02   C at   70  2   RLX: 0.012
       a =  1.000      CL =  0.7622
      Cm = -0.1439     CD =  0.00667   =>   CDf =  0.00464    CDp =  0.00203

 Side 1  free  transition at x/c =  0.6387   58
 Side 2  free  transition at x/c =  0.8834   71

  35   rms: 0.1272E+01   max: 0.2180E+02   C at   71  2   RLX: 0.069
       a =  1.000      CL =  0.7605
      Cm = -0.1435     CD =  0.00678   =>   CDf =  0.00460    CDp =  0.00217

 Side 1  free  transition at x/c =  0.6385   58
 Side 2  free  transition at x/c =  0.8364   68

  36   rms: 0.8873E+00   max: -.1577E+02   C at   68  2   RLX: 0.032
       a =  1.000      CL =  0.7601
      Cm = -0.1434     CD =  0.00673   =>   CDf =  0.00471    CDp =  0.00201

 Side 1  free  transition at x/c =  0.6385   58
 Side 2  free  transition at x/c =  0.8547   69

  37   rms: 0.1447E+01   max: -.2496E+02   C at   69  2   RLX: 0.020
       a =  1.000      CL =  0.7599
      Cm = -0.1433     CD =  0.00669   =>   CDf =  0.00467    CDp =  0.00202

 Side 1  free  transition at x/c =  0.6385   58
 Side 2  free  transition at x/c =  0.8721   70

  38   rms: 0.8061E+01   max: 0.1347E+03   C at   70  2   RLX: 0.011
       a =  1.000      CL =  0.7594
      Cm = -0.1433     CD =  0.00680   =>   CDf =  0.00462    CDp =  0.00217

 Side 1  free  transition at x/c =  0.6384   58
 Side 2  free  transition at x/c =  0.8294   67

  39   rms: 0.9645E+00   max: -.1640E+02   C at   67  2   RLX: 0.030
       a =  1.000      CL =  0.7591
      Cm = -0.1431     CD =  0.00674   =>   CDf =  0.00473    CDp =  0.00201

 Side 1  free  transition at x/c =  0.6383   58
 Side 2  free  transition at x/c =  0.8479   68

  40   rms: 0.1250E+01   max: -.2058E+02   C at   68  2   RLX: 0.024
       a =  1.000      CL =  0.7588
      Cm = -0.1430     CD =  0.00670   =>   CDf =  0.00468    CDp =  0.00202

 Side 1  free  transition at x/c =  0.6383   58
 Side 2  free  transition at x/c =  0.8646   70

  41   rms: 0.3331E+01   max: -.5849E+02   C at   70  2   RLX: 0.009
       a =  1.000      CL =  0.7587
      Cm = -0.1430     CD =  0.00666   =>   CDf =  0.00464    CDp =  0.00202

 Side 1  free  transition at x/c =  0.6383   58
 Side 2  free  transition at x/c =  0.8793   71

  42   rms: 0.1234E+01   max: 0.2122E+02   C at   71  2   RLX: 0.071
       a =  1.000      CL =  0.7572
      Cm = -0.1426     CD =  0.00677   =>   CDf =  0.00460    CDp =  0.00217

 Side 1  free  transition at x/c =  0.6381   58
 Side 2  free  transition at x/c =  0.8361   68

  43   rms: 0.8903E+00   max: -.1594E+02   C at   68  2   RLX: 0.031
       a =  1.000      CL =  0.7569
      Cm = -0.1425     CD =  0.00672   =>   CDf =  0.00471    CDp =  0.00201

 Side 1  free  transition at x/c =  0.6381   58
 Side 2  free  transition at x/c =  0.8541   69

  44   rms: 0.1504E+01   max: -.2601E+02   C at   69  2   RLX: 0.019
       a =  1.000      CL =  0.7567
      Cm = -0.1424     CD =  0.00668   =>   CDf =  0.00466    CDp =  0.00202

 Side 1  free  transition at x/c =  0.6381   58
 Side 2  free  transition at x/c =  0.8700   70

  45   rms: 0.7760E+01   max: 0.1300E+03   C at   70  2   RLX: 0.012
       a =  1.000      CL =  0.7563
      Cm = -0.1424     CD =  0.00679   =>   CDf =  0.00462    CDp =  0.00217

 Side 1  free  transition at x/c =  0.6380   58
 Side 2  free  transition at x/c =  0.8322   67

  46   rms: 0.1040E+01   max: -.1746E+02   C at   67  2   RLX: 0.029
       a =  1.000      CL =  0.7560
      Cm = -0.1423     CD =  0.00673   =>   CDf =  0.00472    CDp =  0.00201

 Side 1  free  transition at x/c =  0.6380   58
 Side 2  free  transition at x/c =  0.8510   69

  47   rms: 0.1207E+01   max: -.2137E+02   C at   69  2   RLX: 0.023
       a =  1.000      CL =  0.7558
      Cm = -0.1422     CD =  0.00668   =>   CDf =  0.00467    CDp =  0.00201

 Side 1  free  transition at x/c =  0.6380   58
 Side 2  free  transition at x/c =  0.8662   70

  48   rms: 0.1315E+02   max: -.2261E+03   C at   70  2   RLX: 0.002
       a =  1.000      CL =  0.7559
      Cm = -0.1422     CD =  0.00665   =>   CDf =  0.00463    CDp =  0.00202

 Side 1  free  transition at x/c =  0.6380   58
 Side 2  free  transition at x/c =  0.8793   71

  49   rms: 0.9746E+00   max: 0.1646E+02   C at   71  2   RLX: 0.091
       a =  1.000      CL =  0.7541
      Cm = -0.1418     CD =  0.00675   =>   CDf =  0.00459    CDp =  0.00216

 Side 1  free  transition at x/c =  0.6378   58
 Side 2  free  transition at x/c =  0.8358   68

  50   rms: 0.9036E+00   max: -.1626E+02   C at   68  2   RLX: 0.031
       a =  1.000      CL =  0.7540
      Cm = -0.1417     CD =  0.00671   =>   CDf =  0.00471    CDp =  0.00200

 Side 1  free  transition at x/c =  0.6378   58
 Side 2  free  transition at x/c =  0.8533   69

  51   rms: 0.1525E+01   max: -.2653E+02   C at   69  2   RLX: 0.019
       a =  1.000      CL =  0.7538
      Cm = -0.1416     CD =  0.00667   =>   CDf =  0.00466    CDp =  0.00201

 Side 1  free  transition at x/c =  0.6378   58
 Side 2  free  transition at x/c =  0.8682   70

  52   rms: 0.8516E+01   max: 0.1438E+03   C at   70  2   RLX: 0.010
       a =  1.000      CL =  0.7534
      Cm = -0.1416     CD =  0.00678   =>   CDf =  0.00462    CDp =  0.00216

 Side 1  free  transition at x/c =  0.6377   58
 Side 2  free  transition at x/c =  0.8321   67

  53   rms: 0.1052E+01   max: -.1774E+02   C at   67  2   RLX: 0.028
       a =  1.000      CL =  0.7532
      Cm = -0.1415     CD =  0.00672   =>   CDf =  0.00472    CDp =  0.00200

 Side 1  free  transition at x/c =  0.6377   58
 Side 2  free  transition at x/c =  0.8512   69

  54   rms: 0.1277E+01   max: -.2256E+02   C at   69  2   RLX: 0.022
       a =  1.000      CL =  0.7531
      Cm = -0.1414     CD =  0.00667   =>   CDf =  0.00467    CDp =  0.00201

 Side 1  free  transition at x/c =  0.6377   58
 Side 2  free  transition at x/c =  0.8656   70

  55   rms: 0.3089E+02   max: -.5309E+03   C at   70  2   RLX: 0.001
       a =  1.000      CL =  0.7532
      Cm = -0.1414     CD =  0.00664   =>   CDf =  0.00462    CDp =  0.00202

 Side 1  free  transition at x/c =  0.6377   58
 Side 2  free  transition at x/c =  0.8779   70

  56   rms: 0.1008E+01   max: 0.1539E+02   C at   70  2   RLX: 0.097
       a =  1.000      CL =  0.7517
      Cm = -0.1410     CD =  0.00674   =>   CDf =  0.00459    CDp =  0.00215

 Side 1  free  transition at x/c =  0.6376   58
 Side 2  free  transition at x/c =  0.8452   68

  57   rms: 0.1300E+01   max: -.2195E+02   C at   68  2   RLX: 0.023
       a =  1.000      CL =  0.7516
      Cm = -0.1410     CD =  0.00669   =>   CDf =  0.00469    CDp =  0.00200

 Side 1  free  transition at x/c =  0.6375   58
 Side 2  free  transition at x/c =  0.8621   69

  58   rms: 0.5072E+01   max: -.8203E+02   C at   69  2   RLX: 0.006
       a =  1.000      CL =  0.7516
      Cm = -0.1409     CD =  0.00665   =>   CDf =  0.00464    CDp =  0.00202

 Side 1  free  transition at x/c =  0.6376   58
 Side 2  free  transition at x/c =  0.8754   70

  59   rms: 0.1143E+01   max: 0.1786E+02   C at   70  2   RLX: 0.084
       a =  1.000      CL =  0.7504
      Cm = -0.1407     CD =  0.00674   =>   CDf =  0.00460    CDp =  0.00215

 Side 1  free  transition at x/c =  0.6374   58
 Side 2  free  transition at x/c =  0.8425   68

  60   rms: 0.1183E+01   max: -.2035E+02   C at   68  2   RLX: 0.025
       a =  1.000      CL =  0.7503
      Cm = -0.1406     CD =  0.00669   =>   CDf =  0.00469    CDp =  0.00200

 Side 1  free  transition at x/c =  0.6374   58
 Side 2  free  transition at x/c =  0.8601   69

  61   rms: 0.3354E+01   max: -.5532E+02   C at   69  2   RLX: 0.009
       a =  1.000      CL =  0.7503
      Cm = -0.1406     CD =  0.00665   =>   CDf =  0.00464    CDp =  0.00201

 Side 1  free  transition at x/c =  0.6374   58
 Side 2  free  transition at x/c =  0.8739   70

  62   rms: 0.1190E+01   max: 0.1880E+02   C at   70  2   RLX: 0.080
       a =  1.000      CL =  0.7493
      Cm = -0.1403     CD =  0.00674   =>   CDf =  0.00460    CDp =  0.00215

 Side 1  free  transition at x/c =  0.6373   58
 Side 2  free  transition at x/c =  0.8411   68

  63   rms: 0.1142E+01   max: -.1983E+02   C at   68  2   RLX: 0.025
       a =  1.000      CL =  0.7493
      Cm = -0.1403     CD =  0.00669   =>   CDf =  0.00470    CDp =  0.00199

 Side 1  free  transition at x/c =  0.6373   58
 Side 2  free  transition at x/c =  0.8588   69

  64   rms: 0.2909E+01   max: -.4850E+02   C at   69  2   RLX: 0.010
       a =  1.000      CL =  0.7493
      Cm = -0.1402     CD =  0.00665   =>   CDf =  0.00465    CDp =  0.00201

 Side 1  free  transition at x/c =  0.6373   58
 Side 2  free  transition at x/c =  0.8730   70

  65   rms: 0.1199E+01   max: 0.1907E+02   C at   70  2   RLX: 0.079
       a =  1.000      CL =  0.7484
      Cm = -0.1400     CD =  0.00675   =>   CDf =  0.00460    CDp =  0.00214

 Side 1  free  transition at x/c =  0.6372   58
 Side 2  free  transition at x/c =  0.8407   68

  66   rms: 0.1140E+01   max: -.1985E+02   C at   68  2   RLX: 0.025
       a =  1.000      CL =  0.7483
      Cm = -0.1400     CD =  0.00669   =>   CDf =  0.00470    CDp =  0.00199

 Side 1  free  transition at x/c =  0.6372   58
 Side 2  free  transition at x/c =  0.8583   69

  67   rms: 0.2850E+01   max: -.4770E+02   C at   69  2   RLX: 0.010
       a =  1.000      CL =  0.7483
      Cm = -0.1399     CD =  0.00665   =>   CDf =  0.00465    CDp =  0.00201

 Side 1  free  transition at x/c =  0.6372   58
 Side 2  free  transition at x/c =  0.8726   70

  68   rms: 0.1167E+01   max: 0.1860E+02   C at   70  2   RLX: 0.081
       a =  1.000      CL =  0.7475
      Cm = -0.1398     CD =  0.00675   =>   CDf =  0.00460    CDp =  0.00214

 Side 1  free  transition at x/c =  0.6371   58
 Side 2  free  transition at x/c =  0.8408   68

  69   rms: 0.1159E+01   max: -.2017E+02   C at   68  2   RLX: 0.025
       a =  1.000      CL =  0.7475
      Cm = -0.1397     CD =  0.00669   =>   CDf =  0.00470    CDp =  0.00199

 Side 1  free  transition at x/c =  0.6371   58
 Side 2  free  transition at x/c =  0.8584   69

  70   rms: 0.3042E+01   max: -.5081E+02   C at   69  2   RLX: 0.010
       a =  1.000      CL =  0.7475
      Cm = -0.1397     CD =  0.00665   =>   CDf =  0.00465    CDp =  0.00201

 Side 1  free  transition at x/c =  0.6371   58
 Side 2  free  transition at x/c =  0.8726   70

  71   rms: 0.1077E+01   max: 0.1710E+02   C at   70  2   RLX: 0.088
       a =  1.000      CL =  0.7467
      Cm = -0.1395     CD =  0.00674   =>   CDf =  0.00460    CDp =  0.00214

 Side 1  free  transition at x/c =  0.6370   58
 Side 2  free  transition at x/c =  0.8414   68

  72   rms: 0.1202E+01   max: -.2081E+02   C at   68  2   RLX: 0.024
       a =  1.000      CL =  0.7467
      Cm = -0.1395     CD =  0.00669   =>   CDf =  0.00470    CDp =  0.00199

 Side 1  free  transition at x/c =  0.6370   58
 Side 2  free  transition at x/c =  0.8588   69

  73   rms: 0.3389E+01   max: -.5641E+02   C at   69  2   RLX: 0.009
       a =  1.000      CL =  0.7467
      Cm = -0.1394     CD =  0.00665   =>   CDf =  0.00464    CDp =  0.00201

 Side 1  free  transition at x/c =  0.6370   58
 Side 2  free  transition at x/c =  0.8730   70

  74   rms: 0.1005E+01   max: 0.1588E+02   C at   70  2   RLX: 0.094
       a =  1.000      CL =  0.7460
      Cm = -0.1393     CD =  0.00674   =>   CDf =  0.00460    CDp =  0.00214

 Side 1  free  transition at x/c =  0.6369   58
 Side 2  free  transition at x/c =  0.8423   68

  75   rms: 0.1265E+01   max: -.2176E+02   C at   68  2   RLX: 0.023
       a =  1.000      CL =  0.7459
      Cm = -0.1392     CD =  0.00668   =>   CDf =  0.00469    CDp =  0.00199

 Side 1  free  transition at x/c =  0.6370   58
 Side 2  free  transition at x/c =  0.8597   69

  76   rms: 0.4270E+01   max: -.7053E+02   C at   69  2   RLX: 0.007
       a =  1.000      CL =  0.7460
      Cm = -0.1392     CD =  0.00665   =>   CDf =  0.00464    CDp =  0.00201

 Side 1  free  transition at x/c =  0.6370   58
 Side 2  free  transition at x/c =  0.8738   70

  77   rms: 0.9057E+00   max: 0.1418E+02   C at   70  2   RLX: 0.106
       a =  1.000      CL =  0.7453
      Cm = -0.1390     CD =  0.00674   =>   CDf =  0.00460    CDp =  0.00214

 Side 1  free  transition at x/c =  0.6369   58
 Side 2  free  transition at x/c =  0.8437   68

  78   rms: 0.1407E+01   max: -.2396E+02   C at   68  2   RLX: 0.021
       a =  1.000      CL =  0.7452
      Cm = -0.1389     CD =  0.00668   =>   CDf =  0.00469    CDp =  0.00199

 Side 1  free  transition at x/c =  0.6369   58
 Side 2  free  transition at x/c =  0.8609   69

  79   rms: 0.7408E+01   max: -.1212E+03   C at   69  2   RLX: 0.004
       a =  1.000      CL =  0.7453
      Cm = -0.1389     CD =  0.00665   =>   CDf =  0.00464    CDp =  0.00201

 Side 1  free  transition at x/c =  0.6369   58
 Side 2  free  transition at x/c =  0.8748   70

  80   rms: 0.7962E+00   max: 0.1234E+02   C at   70  2   RLX: 0.122
       a =  1.000      CL =  0.7446
      Cm = -0.1387     CD =  0.00673   =>   CDf =  0.00459    CDp =  0.00214

 Side 1  free  transition at x/c =  0.6368   58
 Side 2  free  transition at x/c =  0.8451   68

  81   rms: 0.1565E+01   max: -.2637E+02   C at   68  2   RLX: 0.019
       a =  1.000      CL =  0.7446
      Cm = -0.1387     CD =  0.00668   =>   CDf =  0.00469    CDp =  0.00199

 Side 1  free  transition at x/c =  0.6368   58
 Side 2  free  transition at x/c =  0.8624   69

  82   rms: 0.4494E+02   max: -.7262E+03   C at   69  2   RLX: 0.001
       a =  1.000      CL =  0.7446
      Cm = -0.1386     CD =  0.00664   =>   CDf =  0.00464    CDp =  0.00201

 Side 1  free  transition at x/c =  0.6368   58
 Side 2  free  transition at x/c =  0.8762   70

  83   rms: 0.6870E+00   max: 0.1050E+02   C at   70  2   RLX: 0.143
       a =  1.000      CL =  0.7439
      Cm = -0.1385     CD =  0.00673   =>   CDf =  0.00459    CDp =  0.00214

 Side 1  free  transition at x/c =  0.6367   58
 Side 2  free  transition at x/c =  0.8470   68

  84   rms: 0.1861E+01   max: -.3091E+02   C at   68  2   RLX: 0.016
       a =  1.000      CL =  0.7439
      Cm = -0.1384     CD =  0.00667   =>   CDf =  0.00468    CDp =  0.00199

 Side 1  free  transition at x/c =  0.6367   58
 Side 2  free  transition at x/c =  0.8641   70

  85   rms: 0.5156E+01   max: 0.8987E+02   C at   70  2   RLX: 0.017
       a =  1.000      CL =  0.7437
      Cm = -0.1385     CD =  0.00678   =>   CDf =  0.00463    CDp =  0.00215

 Side 1  free  transition at x/c =  0.6367   58
 Side 2  free  transition at x/c =  0.8304   67

  86   rms: 0.1143E+01   max: -.1932E+02   C at   67  2   RLX: 0.026
       a =  1.000      CL =  0.7437
      Cm = -0.1384     CD =  0.00671   =>   CDf =  0.00473    CDp =  0.00198

 Side 1  free  transition at x/c =  0.6367   58
 Side 2  free  transition at x/c =  0.8493   69

  87   rms: 0.1324E+01   max: -.2361E+02   C at   69  2   RLX: 0.021
       a =  1.000      CL =  0.7436
      Cm = -0.1383     CD =  0.00666   =>   CDf =  0.00467    CDp =  0.00199

 Side 1  free  transition at x/c =  0.6367   58
 Side 2  free  transition at x/c =  0.8638   70

  88   rms: 0.1126E+02   max: 0.1948E+03   C at   70  2   RLX: 0.008
       a =  1.000      CL =  0.7435
      Cm = -0.1384     CD =  0.00678   =>   CDf =  0.00463    CDp =  0.00215

 Side 1  free  transition at x/c =  0.6366   58
 Side 2  free  transition at x/c =  0.8300   67

  89   rms: 0.1043E+01   max: -.1764E+02   C at   67  2   RLX: 0.028
       a =  1.000      CL =  0.7434
      Cm = -0.1383     CD =  0.00671   =>   CDf =  0.00473    CDp =  0.00198

 Side 1  free  transition at x/c =  0.6366   58
 Side 2  free  transition at x/c =  0.8486   69

  90   rms: 0.1060E+01   max: -.1893E+02   C at   69  2   RLX: 0.026
       a =  1.000      CL =  0.7434
      Cm = -0.1382     CD =  0.00666   =>   CDf =  0.00467    CDp =  0.00199

 Side 1  free  transition at x/c =  0.6367   58
 Side 2  free  transition at x/c =  0.8624   69

  91   rms: 0.1072E+02   max: -.1689E+03   C at   69  2   RLX: 0.003
       a =  1.000      CL =  0.7434
      Cm = -0.1382     CD =  0.00664   =>   CDf =  0.00463    CDp =  0.00201

 Side 1  free  transition at x/c =  0.6367   58
 Side 2  free  transition at x/c =  0.8745   70

  92   rms: 0.8554E+00   max: 0.1312E+02   C at   70  2   RLX: 0.114
       a =  1.000      CL =  0.7430
      Cm = -0.1382     CD =  0.00673   =>   CDf =  0.00459    CDp =  0.00214

 Side 1  free  transition at x/c =  0.6366   58
 Side 2  free  transition at x/c =  0.8451   68

  93   rms: 0.1329E+01   max: -.2224E+02   C at   68  2   RLX: 0.022
       a =  1.000      CL =  0.7430
      Cm = -0.1381     CD =  0.00668   =>   CDf =  0.00469    CDp =  0.00199

 Side 1  free  transition at x/c =  0.6366   58
 Side 2  free  transition at x/c =  0.8621   69

  94   rms: 0.1715E+02   max: -.2716E+03   C at   69  2   RLX: 0.002
       a =  1.000      CL =  0.7429
      Cm = -0.1380     CD =  0.00664   =>   CDf =  0.00463    CDp =  0.00201

 Side 1  free  transition at x/c =  0.6366   58
 Side 2  free  transition at x/c =  0.8747   70

  95   rms: 0.7796E+00   max: 0.1197E+02   C at   70  2   RLX: 0.125
       a =  1.000      CL =  0.7425
      Cm = -0.1379     CD =  0.00674   =>   CDf =  0.00460    CDp =  0.00214

 Side 1  free  transition at x/c =  0.6366   58
 Side 2  free  transition at x/c =  0.8456   68

  96   rms: 0.1429E+01   max: -.2383E+02   C at   68  2   RLX: 0.021
       a =  1.000      CL =  0.7425
      Cm = -0.1378     CD =  0.00668   =>   CDf =  0.00469    CDp =  0.00199

 Side 1  free  transition at x/c =  0.6366   58
 Side 2  free  transition at x/c =  0.8627   69

  97   rms: 0.5514E+02   max: 0.8722E+03   C at   69  2   RLX: 0.002
       a =  1.000      CL =  0.7422
      Cm = -0.1378     CD =  0.00677   =>   CDf =  0.00464    CDp =  0.00213

 Side 1  free  transition at x/c =  0.6365   58
 Side 2  free  transition at x/c =  0.8241   67

  98   rms: 0.8597E+00   max: -.1506E+02   C at   67  2   RLX: 0.033
       a =  1.000      CL =  0.7422
      Cm = -0.1377     CD =  0.00672   =>   CDf =  0.00475    CDp =  0.00197

 Side 1  free  transition at x/c =  0.6365   58
 Side 2  free  transition at x/c =  0.8428   68

  99   rms: 0.1066E+01   max: -.1804E+02   C at   68  2   RLX: 0.028
       a =  1.000      CL =  0.7422
      Cm = -0.1377     CD =  0.00668   =>   CDf =  0.00469    CDp =  0.00198

 Side 1  free  transition at x/c =  0.6366   58
 Side 2  free  transition at x/c =  0.8596   69

 100   rms: 0.2654E+01   max: -.4279E+02   C at   69  2   RLX: 0.012
       a =  1.000      CL =  0.7421
      Cm = -0.1376     CD =  0.00664   =>   CDf =  0.00464    CDp =  0.00200

 Side 1  free  transition at x/c =  0.6366   58
 Side 2  free  transition at x/c =  0.8720   70

 101   rms: 0.1033E+01   max: 0.1614E+02   C at   70  2   RLX: 0.093
       a =  1.000      CL =  0.7419
      Cm = -0.1376     CD =  0.00674   =>   CDf =  0.00461    CDp =  0.00214

 Side 1  free  transition at x/c =  0.6365   58
 Side 2  free  transition at x/c =  0.8421   68

 102   rms: 0.1055E+01   max: -.1793E+02   C at   68  2   RLX: 0.028
       a =  1.000      CL =  0.7418
      Cm = -0.1374     CD =  0.00668   =>   CDf =  0.00470    CDp =  0.00198

 Side 1  free  transition at x/c =  0.6365   58
 Side 2  free  transition at x/c =  0.8592   69

 103   rms: 0.2572E+01   max: -.4172E+02   C at   69  2   RLX: 0.012
       a =  1.000      CL =  0.7417
      Cm = -0.1373     CD =  0.00665   =>   CDf =  0.00465    CDp =  0.00200

 Side 1  free  transition at x/c =  0.6366   58
 Side 2  free  transition at x/c =  0.8722   70

 104   rms: 0.9390E+00   max: 0.1467E+02   C at   70  2   RLX: 0.102
       a =  1.000      CL =  0.7415
      Cm = -0.1374     CD =  0.00675   =>   CDf =  0.00461    CDp =  0.00214

 Side 1  free  transition at x/c =  0.6365   58
 Side 2  free  transition at x/c =  0.8431   68

 105   rms: 0.1112E+01   max: -.1879E+02   C at   68  2   RLX: 0.027
       a =  1.000      CL =  0.7413
      Cm = -0.1372     CD =  0.00668   =>   CDf =  0.00470    CDp =  0.00198

 Side 1  free  transition at x/c =  0.6365   58
 Side 2  free  transition at x/c =  0.8601   69

 106   rms: 0.3196E+01   max: -.5160E+02   C at   69  2   RLX: 0.010
       a =  1.000      CL =  0.7412
      Cm = -0.1371     CD =  0.00664   =>   CDf =  0.00465    CDp =  0.00199

 Side 1  free  transition at x/c =  0.6365   58
 Side 2  free  transition at x/c =  0.8732   70

 107   rms: 0.7847E+00   max: 0.1216E+02   C at   70  2   RLX: 0.123
       a =  1.000      CL =  0.7411
      Cm = -0.1371     CD =  0.00675   =>   CDf =  0.00461    CDp =  0.00213

 Side 1  free  transition at x/c =  0.6365   58
 Side 2  free  transition at x/c =  0.8448   68

 108   rms: 0.1258E+01   max: -.2099E+02   C at   68  2   RLX: 0.024
       a =  1.000      CL =  0.7409
      Cm = -0.1370     CD =  0.00668   =>   CDf =  0.00470    CDp =  0.00198

 Side 1  free  transition at x/c =  0.6365   58
 Side 2  free  transition at x/c =  0.8618   69

 109   rms: 0.1781E+02   max: -.2826E+03   C at   69  2   RLX: 0.002
       a =  1.000      CL =  0.7408
      Cm = -0.1368     CD =  0.00664   =>   CDf =  0.00465    CDp =  0.00199

 Side 1  free  transition at x/c =  0.6365   58
 Side 2  free  transition at x/c =  0.8749   70

 110   rms: 0.6231E+00   max: 0.9521E+01   C at   70  2   RLX: 0.158
       a =  1.000      CL =  0.7407
      Cm = -0.1369     CD =  0.00674   =>   CDf =  0.00461    CDp =  0.00213

 Side 1  free  transition at x/c =  0.6364   58
 Side 2  free  transition at x/c =  0.8473   68

 111   rms: 0.1594E+01   max: -.2616E+02   C at   68  2   RLX: 0.019
       a =  1.000      CL =  0.7406
      Cm = -0.1368     CD =  0.00667   =>   CDf =  0.00470    CDp =  0.00198

 Side 1  free  transition at x/c =  0.6365   58
 Side 2  free  transition at x/c =  0.8641   70

 112   rms: 0.5644E+01   max: 0.9695E+02   C at   70  2   RLX: 0.015
       a =  1.000      CL =  0.7403
      Cm = -0.1367     CD =  0.00679   =>   CDf =  0.00465    CDp =  0.00214

 Side 1  free  transition at x/c =  0.6364   58
 Side 2  free  transition at x/c =  0.8314   67

 113   rms: 0.9280E+00   max: -.1543E+02   C at   67  2   RLX: 0.032
       a =  1.000      CL =  0.7401
      Cm = -0.1365     CD =  0.00670   =>   CDf =  0.00474    CDp =  0.00196

 Side 1  free  transition at x/c =  0.6364   58
 Side 2  free  transition at x/c =  0.8493   69

 114   rms: 0.8806E+00   max: -.1552E+02   C at   69  2   RLX: 0.032
       a =  1.000      CL =  0.7402
      Cm = -0.1365     CD =  0.00666   =>   CDf =  0.00470    CDp =  0.00196

 Side 1  free  transition at x/c =  0.6364   58
 Side 2  free  transition at x/c =  0.8636   69

 115   rms: 0.7345E+01   max: -.1145E+03   C at   69  2   RLX: 0.004
       a =  1.000      CL =  0.7402
      Cm = -0.1365     CD =  0.00663   =>   CDf =  0.00465    CDp =  0.00198

 Side 1  free  transition at x/c =  0.6365   58
 Side 2  free  transition at x/c =  0.8762   70

 116   rms: 0.6378E+00   max: 0.9606E+01   C at   70  2   RLX: 0.156
       a =  1.000      CL =  0.7401
      Cm = -0.1366     CD =  0.00674   =>   CDf =  0.00461    CDp =  0.00212

 Side 1  free  transition at x/c =  0.6364   58
 Side 2  free  transition at x/c =  0.8487   69

 117   rms: 0.1053E+01   max: -.1870E+02   C at   69  2   RLX: 0.027
       a =  1.000      CL =  0.7400
      Cm = -0.1364     CD =  0.00666   =>   CDf =  0.00470    CDp =  0.00197

 Side 1  free  transition at x/c =  0.6364   58
 Side 2  free  transition at x/c =  0.8635   69

 118   rms: 0.2534E+02   max: 0.3976E+03   C at   69  2   RLX: 0.004
       a =  1.000      CL =  0.7398
      Cm = -0.1364     CD =  0.00678   =>   CDf =  0.00465    CDp =  0.00212

 Side 1  free  transition at x/c =  0.6364   58
 Side 2  free  transition at x/c =  0.8255   67

 119   rms: 0.7975E+00   max: -.1379E+02   C at   67  2   RLX: 0.036
       a =  1.000      CL =  0.7398
      Cm = -0.1364     CD =  0.00671   =>   CDf =  0.00476    CDp =  0.00195

 Side 1  free  transition at x/c =  0.6364   58
 Side 2  free  transition at x/c =  0.8438   68

 120   rms: 0.9397E+00   max: -.1572E+02   C at   68  2   RLX: 0.032
       a =  1.000      CL =  0.7399
      Cm = -0.1364     CD =  0.00667   =>   CDf =  0.00471    CDp =  0.00196

 Side 1  free  transition at x/c =  0.6364   58
 Side 2  free  transition at x/c =  0.8606   69

 121   rms: 0.3059E+01   max: -.4858E+02   C at   69  2   RLX: 0.010
       a =  1.000      CL =  0.7398
      Cm = -0.1363     CD =  0.00664   =>   CDf =  0.00466    CDp =  0.00197

 Side 1  free  transition at x/c =  0.6364   58
 Side 2  free  transition at x/c =  0.8729   70

 122   rms: 0.9535E+00   max: 0.1479E+02   C at   70  2   RLX: 0.101
       a =  1.000      CL =  0.7398
      Cm = -0.1364     CD =  0.00675   =>   CDf =  0.00463    CDp =  0.00212

 Side 1  free  transition at x/c =  0.6364   58
 Side 2  free  transition at x/c =  0.8438   68

 123   rms: 0.9847E+00   max: -.1650E+02   C at   68  2   RLX: 0.030
       a =  1.000      CL =  0.7397
      Cm = -0.1362     CD =  0.00668   =>   CDf =  0.00472    CDp =  0.00196

 Side 1  free  transition at x/c =  0.6364   58
 Side 2  free  transition at x/c =  0.8605   69

 124   rms: 0.3140E+01   max: -.5007E+02   C at   69  2   RLX: 0.010
       a =  1.000      CL =  0.7396
      Cm = -0.1361     CD =  0.00664   =>   CDf =  0.00467    CDp =  0.00197

 Side 1  free  transition at x/c =  0.6364   58
 Side 2  free  transition at x/c =  0.8734   70

 125   rms: 0.8652E+00   max: 0.1341E+02   C at   70  2   RLX: 0.112
       a =  1.000      CL =  0.7396
      Cm = -0.1363     CD =  0.00675   =>   CDf =  0.00463    CDp =  0.00212

 Side 1  free  transition at x/c =  0.6364   58
 Side 2  free  transition at x/c =  0.8448   68

 126   rms: 0.1053E+01   max: -.1753E+02   C at   68  2   RLX: 0.029
       a =  1.000      CL =  0.7395
      Cm = -0.1361     CD =  0.00668   =>   CDf =  0.00471    CDp =  0.00196

 Side 1  free  transition at x/c =  0.6364   58
 Side 2  free  transition at x/c =  0.8617   69

 127   rms: 0.4200E+01   max: -.6663E+02   C at   69  2   RLX: 0.008
       a =  1.000      CL =  0.7394
      Cm = -0.1360     CD =  0.00664   =>   CDf =  0.00467    CDp =  0.00197

 Side 1  free  transition at x/c =  0.6364   58
 Side 2  free  transition at x/c =  0.8749   70

 128   rms: 0.7160E+00   max: 0.1097E+02   C at   70  2   RLX: 0.137
       a =  1.000      CL =  0.7394
      Cm = -0.1361     CD =  0.00675   =>   CDf =  0.00463    CDp =  0.00212

 Side 1  free  transition at x/c =  0.6364   58
 Side 2  free  transition at x/c =  0.8468   68

 129   rms: 0.1246E+01   max: -.2047E+02   C at   68  2   RLX: 0.024
       a =  1.000      CL =  0.7393
      Cm = -0.1360     CD =  0.00667   =>   CDf =  0.00471    CDp =  0.00196

 Side 1  free  transition at x/c =  0.6364   58
 Side 2  free  transition at x/c =  0.8637   70

 130   rms: 0.8382E+01   max: -.1445E+03   C at   70  2   RLX: 0.003
       a =  1.000      CL =  0.7393
      Cm = -0.1359     CD =  0.00663   =>   CDf =  0.00467    CDp =  0.00196

 Side 1  free  transition at x/c =  0.6364   58
 Side 2  free  transition at x/c =  0.8751   70

 131   rms: 0.7437E+00   max: 0.1141E+02   C at   70  2   RLX: 0.131
       a =  1.000      CL =  0.7394
      Cm = -0.1362     CD =  0.00675   =>   CDf =  0.00463    CDp =  0.00212

 Side 1  free  transition at x/c =  0.6364   58
 Side 2  free  transition at x/c =  0.8468   68

 132   rms: 0.1225E+01   max: -.2014E+02   C at   68  2   RLX: 0.025
       a =  1.000      CL =  0.7393
      Cm = -0.1360     CD =  0.00667   =>   CDf =  0.00471    CDp =  0.00196

 Side 1  free  transition at x/c =  0.6364   58
 Side 2  free  transition at x/c =  0.8640   70

 133   rms: 0.6715E+01   max: -.1158E+03   C at   70  2   RLX: 0.004
       a =  1.000      CL =  0.7393
      Cm = -0.1359     CD =  0.00663   =>   CDf =  0.00467    CDp =  0.00196

 Side 1  free  transition at x/c =  0.6364   58
 Side 2  free  transition at x/c =  0.8755   70

 134   rms: 0.7629E+00   max: 0.1170E+02   C at   70  2   RLX: 0.128
       a =  1.000      CL =  0.7394
      Cm = -0.1361     CD =  0.00675   =>   CDf =  0.00463    CDp =  0.00211

 Side 1  free  transition at x/c =  0.6364   58
 Side 2  free  transition at x/c =  0.8470   68

 135   rms: 0.1216E+01   max: -.1999E+02   C at   68  2   RLX: 0.025
       a =  1.000      CL =  0.7393
      Cm = -0.1360     CD =  0.00667   =>   CDf =  0.00471    CDp =  0.00196

 Side 1  free  transition at x/c =  0.6364   58
 Side 2  free  transition at x/c =  0.8642   70

 136   rms: 0.5854E+01   max: -.1010E+03   C at   70  2   RLX: 0.005
       a =  1.000      CL =  0.7393
      Cm = -0.1359     CD =  0.00663   =>   CDf =  0.00467    CDp =  0.00196

 Side 1  free  transition at x/c =  0.6364   58
 Side 2  free  transition at x/c =  0.8758   70

 137   rms: 0.7865E+00   max: 0.1206E+02   C at   70  2   RLX: 0.124
       a =  1.000      CL =  0.7394
      Cm = -0.1361     CD =  0.00675   =>   CDf =  0.00463    CDp =  0.00211

 Side 1  free  transition at x/c =  0.6364   58
 Side 2  free  transition at x/c =  0.8471   68

 138   rms: 0.1204E+01   max: -.1978E+02   C at   68  2   RLX: 0.025
       a =  1.000      CL =  0.7394
      Cm = -0.1360     CD =  0.00667   =>   CDf =  0.00471    CDp =  0.00196

 Side 1  free  transition at x/c =  0.6364   58
 Side 2  free  transition at x/c =  0.8644   70

 139   rms: 0.5452E+01   max: -.9402E+02   C at   70  2   RLX: 0.005
       a =  1.000      CL =  0.7393
      Cm = -0.1360     CD =  0.00663   =>   CDf =  0.00467    CDp =  0.00196

 Side 1  free  transition at x/c =  0.6364   58
 Side 2  free  transition at x/c =  0.8760   70

 140   rms: 0.8215E+00   max: 0.1261E+02   C at   70  2   RLX: 0.119
       a =  1.000      CL =  0.7394
      Cm = -0.1361     CD =  0.00675   =>   CDf =  0.00463    CDp =  0.00211

 Side 1  free  transition at x/c =  0.6364   58
 Side 2  free  transition at x/c =  0.8470   68

 141   rms: 0.1172E+01   max: -.1929E+02   C at   68  2   RLX: 0.026
       a =  1.000      CL =  0.7394
      Cm = -0.1361     CD =  0.00667   =>   CDf =  0.00471    CDp =  0.00196

 Side 1  free  transition at x/c =  0.6364   58
 Side 2  free  transition at x/c =  0.8646   70

 142   rms: 0.4631E+01   max: -.7986E+02   C at   70  2   RLX: 0.006
       a =  1.000      CL =  0.7393
      Cm = -0.1360     CD =  0.00663   =>   CDf =  0.00467    CDp =  0.00196

 Side 1  free  transition at x/c =  0.6364   58
 Side 2  free  transition at x/c =  0.8762   70

 143   rms: 0.8458E+00   max: 0.1297E+02   C at   70  2   RLX: 0.116
       a =  1.000      CL =  0.7394
      Cm = -0.1361     CD =  0.00674   =>   CDf =  0.00463    CDp =  0.00211

 Side 1  free  transition at x/c =  0.6364   58
 Side 2  free  transition at x/c =  0.8471   68

 144   rms: 0.1159E+01   max: -.1907E+02   C at   68  2   RLX: 0.026
       a =  1.000      CL =  0.7393
      Cm = -0.1360     CD =  0.00667   =>   CDf =  0.00471    CDp =  0.00196

 Side 1  free  transition at x/c =  0.6364   58
 Side 2  free  transition at x/c =  0.8647   70

 145   rms: 0.4173E+01   max: -.7198E+02   C at   70  2   RLX: 0.007
       a =  1.000      CL =  0.7393
      Cm = -0.1360     CD =  0.00663   =>   CDf =  0.00467    CDp =  0.00196

 Side 1  free  transition at x/c =  0.6364   58
 Side 2  free  transition at x/c =  0.8763   70

 146   rms: 0.8823E+00   max: 0.1354E+02   C at   70  2   RLX: 0.111
       a =  1.000      CL =  0.7394
      Cm = -0.1361     CD =  0.00674   =>   CDf =  0.00464    CDp =  0.00211

 Side 1  free  transition at x/c =  0.6364   58
 Side 2  free  transition at x/c =  0.8470   68

 147   rms: 0.1133E+01   max: -.1865E+02   C at   68  2   RLX: 0.027
       a =  1.000      CL =  0.7393
      Cm = -0.1360     CD =  0.00667   =>   CDf =  0.00471    CDp =  0.00196

 Side 1  free  transition at x/c =  0.6364   58
 Side 2  free  transition at x/c =  0.8647   70

 148   rms: 0.3567E+01   max: -.6158E+02   C at   70  2   RLX: 0.008
       a =  1.000      CL =  0.7393
      Cm = -0.1359     CD =  0.00662   =>   CDf =  0.00467    CDp =  0.00195

 Side 1  free  transition at x/c =  0.6364   58
 Side 2  free  transition at x/c =  0.8765   70

 149   rms: 0.9032E+00   max: 0.1385E+02   C at   70  2   RLX: 0.108
       a =  1.000      CL =  0.7394
      Cm = -0.1361     CD =  0.00674   =>   CDf =  0.00464    CDp =  0.00211

 Side 1  free  transition at x/c =  0.6364   58
 Side 2  free  transition at x/c =  0.8471   68

 150   rms: 0.1124E+01   max: -.1850E+02   C at   68  2   RLX: 0.027
       a =  1.000      CL =  0.7393
      Cm = -0.1360     CD =  0.00667   =>   CDf =  0.00471    CDp =  0.00195

 Side 1  free  transition at x/c =  0.6364   58
 Side 2  free  transition at x/c =  0.8647   70

 151   rms: 0.3323E+01   max: -.5738E+02   C at   70  2   RLX: 0.009
       a =  1.000      CL =  0.7393
      Cm = -0.1359     CD =  0.00662   =>   CDf =  0.00467    CDp =  0.00195

 Side 1  free  transition at x/c =  0.6364   58
 Side 2  free  transition at x/c =  0.8766   70

 152   rms: 0.9218E+00   max: 0.1413E+02   C at   70  2   RLX: 0.106
       a =  1.000      CL =  0.7394
      Cm = -0.1361     CD =  0.00674   =>   CDf =  0.00464    CDp =  0.00211

 Side 1  free  transition at x/c =  0.6364   58
 Side 2  free  transition at x/c =  0.8472   68

 153   rms: 0.1118E+01   max: -.1839E+02   C at   68  2   RLX: 0.027
       a =  1.000      CL =  0.7393
      Cm = -0.1360     CD =  0.00667   =>   CDf =  0.00472    CDp =  0.00195

 Side 1  free  transition at x/c =  0.6364   58
 Side 2  free  transition at x/c =  0.8650   70

 154   rms: 0.3364E+01   max: -.5800E+02   C at   70  2   RLX: 0.009
       a =  1.000      CL =  0.7393
      Cm = -0.1359     CD =  0.00662   =>   CDf =  0.00467    CDp =  0.00195

 Side 1  free  transition at x/c =  0.6364   58
 Side 2  free  transition at x/c =  0.8767   70

 155   rms: 0.9518E+00   max: 0.1460E+02   C at   70  2   RLX: 0.103
       a =  1.000      CL =  0.7393
      Cm = -0.1361     CD =  0.00674   =>   CDf =  0.00464    CDp =  0.00211
 VISCAL:  Convergence failed
 Calculating wake trajectory ...
 Calculating source influence matrix ...

 Solving BL system ...

 Side 1  free  transition at x/c =  0.6364   58
 Side 2  free  transition at x/c =  0.8472   68

   1   rms: 0.5184E+01   max: -.8526E+02   C at   68  2   RLX: 0.006
       a =  1.500      CL =  0.7387
      Cm = -0.1358     CD =  0.00667   =>   CDf =  0.00472    CDp =  0.00195

 Side 1  free  transition at x/c =  0.6363   58
 Side 2  free  transition at x/c =  0.8648   70

   2   rms: 0.1175E+02   max: -.2027E+03   C at   70  2   RLX: 0.002
       a =  1.500      CL =  0.7385
      Cm = -0.1356     CD =  0.00662   =>   CDf =  0.00468    CDp =  0.00195

 Side 1  free  transition at x/c =  0.6363   58
 Side 2  free  transition at x/c =  0.8766   70

   3   rms: 0.4302E+01   max: 0.6606E+02   C at   70  2   RLX: 0.023
       a =  1.500      CL =  0.7365
      Cm = -0.1349     CD =  0.00674   =>   CDf =  0.00464    CDp =  0.00210

 Side 1  free  transition at x/c =  0.6358   58
 Side 2  free  transition at x/c =  0.8465   68

   4   rms: 0.4359E+01   max: -.7198E+02   C at   68  2   RLX: 0.007
       a =  1.500      CL =  0.7359
      Cm = -0.1346     CD =  0.00667   =>   CDf =  0.00473    CDp =  0.00194

 Side 1  free  transition at x/c =  0.6357   58
 Side 2  free  transition at x/c =  0.8644   70

   5   rms: 0.8124E+01   max: -.1405E+03   C at   70  2   RLX: 0.004
       a =  1.500      CL =  0.7355
      Cm = -0.1344     CD =  0.00662   =>   CDf =  0.00469    CDp =  0.00194

 Side 1  free  transition at x/c =  0.6356   58
 Side 2  free  transition at x/c =  0.8760   70

   6   rms: 0.4446E+01   max: 0.6838E+02   C at   70  2   RLX: 0.022
       a =  1.500      CL =  0.7337
      Cm = -0.1338     CD =  0.00674   =>   CDf =  0.00465    CDp =  0.00209

 Side 1  free  transition at x/c =  0.6352   58
 Side 2  free  transition at x/c =  0.8482   68

   7   rms: 0.4099E+01   max: -.6693E+02   C at   68  2   RLX: 0.007
       a =  1.500      CL =  0.7330
      Cm = -0.1334     CD =  0.00667   =>   CDf =  0.00474    CDp =  0.00193

 Side 1  free  transition at x/c =  0.6351   58
 Side 2  free  transition at x/c =  0.8658   70

   8   rms: 0.9155E+01   max: -.1560E+03   C at   70  2   RLX: 0.003
       a =  1.500      CL =  0.7326
      Cm = -0.1331     CD =  0.00662   =>   CDf =  0.00469    CDp =  0.00193

 Side 1  free  transition at x/c =  0.6350   58
 Side 2  free  transition at x/c =  0.8769   70

   9   rms: 0.3749E+01   max: 0.5691E+02   C at   70  2   RLX: 0.026
       a =  1.500      CL =  0.7305
      Cm = -0.1324     CD =  0.00674   =>   CDf =  0.00466    CDp =  0.00208

 Side 1  free  transition at x/c =  0.6345   58
 Side 2  free  transition at x/c =  0.8510   69

  10   rms: 0.3161E+01   max: -.5529E+02   C at   69  2   RLX: 0.009
       a =  1.500      CL =  0.7297
      Cm = -0.1320     CD =  0.00666   =>   CDf =  0.00474    CDp =  0.00192

 Side 1  free  transition at x/c =  0.6344   58
 Side 2  free  transition at x/c =  0.8669   70

  11   rms: 0.1294E+02   max: -.2176E+03   C at   70  2   RLX: 0.002
       a =  1.500      CL =  0.7294
      Cm = -0.1318     CD =  0.00662   =>   CDf =  0.00470    CDp =  0.00192

 Side 1  free  transition at x/c =  0.6344   58
 Side 2  free  transition at x/c =  0.8775   70

  12   rms: 0.2628E+01   max: 0.3900E+02   C at   70  2   RLX: 0.038
       a =  1.500      CL =  0.7266
      Cm = -0.1308     CD =  0.00674   =>   CDf =  0.00467    CDp =  0.00206

 Side 1  free  transition at x/c =  0.6338   58
 Side 2  free  transition at x/c =  0.8531   69

  13   rms: 0.3682E+01   max: -.6345E+02   C at   69  2   RLX: 0.008
       a =  1.500      CL =  0.7259
      Cm = -0.1305     CD =  0.00666   =>   CDf =  0.00474    CDp =  0.00191

 Side 1  free  transition at x/c =  0.6337   58
 Side 2  free  transition at x/c =  0.8688   70

  14   rms: 0.2789E+02   max: 0.4608E+03   C at   70  2   RLX: 0.003
       a =  1.500      CL =  0.7253
      Cm = -0.1302     CD =  0.00678   =>   CDf =  0.00470    CDp =  0.00208

 Side 1  free  transition at x/c =  0.6336   58
 Side 2  free  transition at x/c =  0.8404   68

  15   rms: 0.2282E+01   max: -.3903E+02   C at   68  2   RLX: 0.013
       a =  1.500      CL =  0.7241
      Cm = -0.1296     CD =  0.00668   =>   CDf =  0.00479    CDp =  0.00190

 Side 1  free  transition at x/c =  0.6334   58
 Side 2  free  transition at x/c =  0.8588   69

  16   rms: 0.2537E+01   max: -.4151E+02   C at   69  2   RLX: 0.012
       a =  1.500      CL =  0.7232
      Cm = -0.1292     CD =  0.00664   =>   CDf =  0.00475    CDp =  0.00189

 Side 1  free  transition at x/c =  0.6332   58
 Side 2  free  transition at x/c =  0.8734   70

  17   rms: 0.7000E+01   max: 0.1087E+03   C at   70  2   RLX: 0.014
       a =  1.500      CL =  0.7218
      Cm = -0.1286     CD =  0.00676   =>   CDf =  0.00471    CDp =  0.00205

 Side 1  free  transition at x/c =  0.6330   58
 Side 2  free  transition at x/c =  0.8486   69

  18   rms: 0.1808E+01   max: -.3200E+02   C at   69  2   RLX: 0.016
       a =  1.500      CL =  0.7205
      Cm = -0.1280     CD =  0.00667   =>   CDf =  0.00478    CDp =  0.00189

 Side 1  free  transition at x/c =  0.6328   58
 Side 2  free  transition at x/c =  0.8641   70

  19   rms: 0.2732E+01   max: -.4679E+02   C at   70  2   RLX: 0.011
       a =  1.500      CL =  0.7199
      Cm = -0.1277     CD =  0.00663   =>   CDf =  0.00475    CDp =  0.00188

 Side 1  free  transition at x/c =  0.6327   58
 Side 2  free  transition at x/c =  0.8747   70

  20   rms: 0.6657E+01   max: 0.1017E+03   C at   70  2   RLX: 0.015
       a =  1.500      CL =  0.7188
      Cm = -0.1273     CD =  0.00676   =>   CDf =  0.00472    CDp =  0.00203

 Side 1  free  transition at x/c =  0.6324   57
 Side 2  free  transition at x/c =  0.8511   69

  21   rms: 0.1723E+01   max: -.2989E+02   C at   69  2   RLX: 0.017
       a =  1.500      CL =  0.7174
      Cm = -0.1266     CD =  0.00666   =>   CDf =  0.00479    CDp =  0.00187

 Side 1  free  transition at x/c =  0.6322   57
 Side 2  free  transition at x/c =  0.8662   70

  22   rms: 0.3401E+01   max: -.5703E+02   C at   70  2   RLX: 0.009
       a =  1.500      CL =  0.7169
      Cm = -0.1264     CD =  0.00662   =>   CDf =  0.00475    CDp =  0.00187

 Side 1  free  transition at x/c =  0.6321   57
 Side 2  free  transition at x/c =  0.8762   70

  23   rms: 0.3088E+01   max: 0.4572E+02   C at   70  2   RLX: 0.033
       a =  1.500      CL =  0.7148
      Cm = -0.1256     CD =  0.00674   =>   CDf =  0.00473    CDp =  0.00201

 Side 1  free  transition at x/c =  0.6316   57
 Side 2  free  transition at x/c =  0.8539   69

  24   rms: 0.2060E+01   max: -.3504E+02   C at   69  2   RLX: 0.014
       a =  1.500      CL =  0.7137
      Cm = -0.1251     CD =  0.00665   =>   CDf =  0.00478    CDp =  0.00187

 Side 1  free  transition at x/c =  0.6315   57
 Side 2  free  transition at x/c =  0.8690   70

  25   rms: 0.3342E+02   max: 0.5393E+03   C at   70  2   RLX: 0.003
       a =  1.500      CL =  0.7130
      Cm = -0.1248     CD =  0.00677   =>   CDf =  0.00474    CDp =  0.00203

[...]

 Side 1  free  transition at x/c =  0.0150   23
 Side 2 forced transition at x/c =  1.0000   68

   3   rms: 0.1373E-02   max: 0.1245E-01   D at   81  2
       a = 12.750      CL =  1.4760
      Cm = -0.0690     CD =  0.04339   =>   CDf =  0.00629    CDp =  0.03709

 Side 1  free  transition at x/c =  0.0150   23
 Side 2 forced transition at x/c =  1.0000   68

   4   rms: 0.5278E-04   max: 0.7013E-03   D at   81  2
       a = 12.750      CL =  1.4760
      Cm = -0.0690     CD =  0.04338   =>   CDf =  0.00629    CDp =  0.03709
 plradd ia,ip,cpol           39           0 -1.22302008E-04

 Point added to stored polar  1
 Point written to save file  n6409_Re600k.base.pol                           
 Dump file unspecified or not available
 Calculating wake trajectory ...
 Calculating source influence matrix ...

 Solving BL system ...

 Side 1  free  transition at x/c =  0.0150   23
 Side 2 forced transition at x/c =  1.0000   68

   1   rms: 0.3918E-01   max: 0.1355E+00   D at   70  1   RLX: 0.645
       a = 13.000      CL =  1.4755
      Cm = -0.0682     CD =  0.04537   =>   CDf =  0.00629    CDp =  0.03908

 Side 1  free  transition at x/c =  0.0147   23
 Side 2 forced transition at x/c =  1.0000   68

   2   rms: 0.1592E-01   max: 0.6435E-01   D at   72  1
       a = 13.000      CL =  1.4717
      Cm = -0.0676     CD =  0.04664   =>   CDf =  0.00624    CDp =  0.04040

 Side 1  free  transition at x/c =  0.0146   23
 Side 2 forced transition at x/c =  1.0000   68

   3   rms: 0.1949E-02   max: 0.1101E-01   D at   71  1
       a = 13.000      CL =  1.4704
      Cm = -0.0675     CD =  0.04658   =>   CDf =  0.00620    CDp =  0.04038

 Side 1  free  transition at x/c =  0.0146   23
 Side 2 forced transition at x/c =  1.0000   68

   4   rms: 0.4746E-04   max: 0.4744E-03   D at   82  2
       a = 13.000      CL =  1.4704
      Cm = -0.0675     CD =  0.04657   =>   CDf =  0.00620    CDp =  0.04037
 plradd ia,ip,cpol           40           0 -1.22302008E-04

 Point added to stored polar  1
 Point written to save file  n6409_Re600k.base.pol                           
 Dump file unspecified or not available
 Calculating wake trajectory ...
 Calculating source influence matrix ...

 Solving BL system ...

 Side 1  free  transition at x/c =  0.0146   23
 Side 2 forced transition at x/c =  1.0000   68

   1   rms: 0.4317E-01   max: 0.1451E+00   D at   68  1   RLX: 0.616
       a = 13.250      CL =  1.4681
      Cm = -0.0667     CD =  0.04878   =>   CDf =  0.00620    CDp =  0.04258

 Side 1  free  transition at x/c =  0.0144   23
 Side 2 forced transition at x/c =  1.0000   68

   2   rms: 0.1859E-01   max: 0.5952E-01   D at   70  1
       a = 13.250      CL =  1.4644
      Cm = -0.0660     CD =  0.05015   =>   CDf =  0.00613    CDp =  0.04402

 Side 1  free  transition at x/c =  0.0143   22
 Side 2 forced transition at x/c =  1.0000   68

   3   rms: 0.1728E-02   max: 0.1004E-01   D at   82  2
       a = 13.250      CL =  1.4636
      Cm = -0.0660     CD =  0.05003   =>   CDf =  0.00609    CDp =  0.04394

 Side 1  free  transition at x/c =  0.0143   22
 Side 2 forced transition at x/c =  1.0000   68

   4   rms: 0.6327E-04   max: 0.6758E-03   D at   82  2
       a = 13.250      CL =  1.4636
      Cm = -0.0660     CD =  0.05001   =>   CDf =  0.00609    CDp =  0.04392
 plradd ia,ip,cpol           41           0 -1.22302008E-04

 Point added to stored polar  1
 Point written to save file  n6409_Re600k.base.pol                           
 Dump file unspecified or not available
 Calculating wake trajectory ...
 Calculating source influence matrix ...

 Solving BL system ...

 Side 1  free  transition at x/c =  0.0143   22
 Side 2 forced transition at x/c =  1.0000   68

   1   rms: 0.3171E-01   max: 0.1489E+00   T at   22  1   RLX: 0.600
       a = 13.500      CL =  1.4693
      Cm = -0.0657     CD =  0.05124   =>   CDf =  0.00609    CDp =  0.04515

 Side 1  free  transition at x/c =  0.0141   22
 Side 2 forced transition at x/c =  1.0000   68

   2   rms: 0.1239E-01   max: 0.5539E-01   T at   22  1
       a = 13.500      CL =  1.4719
      Cm = -0.0655     CD =  0.05203   =>   CDf =  0.00603    CDp =  0.04599

 Side 1  free  transition at x/c =  0.0140   22
 Side 2 forced transition at x/c =  1.0000   68

   3   rms: 0.1375E-02   max: 0.8363E-02   D at   82  2
       a = 13.500      CL =  1.4709
      Cm = -0.0654     CD =  0.05201   =>   CDf =  0.00599    CDp =  0.04601

 Side 1  free  transition at x/c =  0.0140   22
 Side 2 forced transition at x/c =  1.0000   68

   4   rms: 0.8409E-04   max: 0.6513E-03   D at   82  2
       a = 13.500      CL =  1.4709
      Cm = -0.0654     CD =  0.05200   =>   CDf =  0.00599    CDp =  0.04601
 plradd ia,ip,cpol           42           0 -1.22302008E-04

 Point added to stored polar  1
 Point written to save file  n6409_Re600k.base.pol                           
 Dump file unspecified or not available
 Calculating wake trajectory ...
 Calculating source influence matrix ...

 Solving BL system ...

 Side 1  free  transition at x/c =  0.0140   22
 Side 2 forced transition at x/c =  1.0000   68

   1   rms: 0.3163E-01   max: 0.1253E+00   T at   22  1   RLX: 0.584
       a = 13.750      CL =  1.4751
      Cm = -0.0652     CD =  0.05337   =>   CDf =  0.00599    CDp =  0.04738

 Side 1  free  transition at x/c =  0.0139   22
 Side 2 forced transition at x/c =  1.0000   68

   2   rms: 0.1329E-01   max: 0.4472E-01   T at   22  1
       a = 13.750      CL =  1.4767
      Cm = -0.0649     CD =  0.05437   =>   CDf =  0.00594    CDp =  0.04843

 Side 1  free  transition at x/c =  0.0138   22
 Side 2 forced transition at x/c =  1.0000   68

   3   rms: 0.1559E-02   max: 0.7236E-02   D at   82  2
       a = 13.750      CL =  1.4756
      Cm = -0.0648     CD =  0.05433   =>   CDf =  0.00589    CDp =  0.04843

 Side 1  free  transition at x/c =  0.0138   22
 Side 2 forced transition at x/c =  1.0000   68

   4   rms: 0.9796E-04   max: 0.6376E-03   D at   82  2
       a = 13.750      CL =  1.4755
      Cm = -0.0648     CD =  0.05431   =>   CDf =  0.00589    CDp =  0.04842
 plradd ia,ip,cpol           43           0 -3.13948549E-04

 Point added to stored polar  1
 Point written to save file  n6409_Re600k.base.pol                           
 Dump file unspecified or not available
 Calculating wake trajectory ...
 Calculating source influence matrix ...

 Solving BL system ...

 Side 1  free  transition at x/c =  0.0138   22
 Side 2 forced transition at x/c =  1.0000   68

   1   rms: 0.3141E-01   max: 0.1030E+00   T at   22  1   RLX: 0.568
       a = 14.000      CL =  1.4792
      Cm = -0.0645     CD =  0.05576   =>   CDf =  0.00589    CDp =  0.04987

 Side 1  free  transition at x/c =  0.0136   22
 Side 2 forced transition at x/c =  1.0000   68

   2   rms: 0.1388E-01   max: 0.4354E-01   D at   67  1
       a = 14.000      CL =  1.4806
      Cm = -0.0643     CD =  0.05686   =>   CDf =  0.00584    CDp =  0.05102

 Side 1  free  transition at x/c =  0.0135   22
 Side 2 forced transition at x/c =  1.0000   68

   3   rms: 0.1576E-02   max: 0.8275E-02   D at   83  2
       a = 14.000      CL =  1.4795
      Cm = -0.0642     CD =  0.05679   =>   CDf =  0.00579    CDp =  0.05100

 Side 1  free  transition at x/c =  0.0135   22
 Side 2 forced transition at x/c =  1.0000   68

   4   rms: 0.1036E-03   max: 0.7483E-03   D at   83  2
       a = 14.000      CL =  1.4794
      Cm = -0.0642     CD =  0.05678   =>   CDf =  0.00579    CDp =  0.05099

 Side 1  free  transition at x/c =  0.0135   22
 Side 2 forced transition at x/c =  1.0000   68

   5   rms: 0.4308E-05   max: -.6016E-04   C at   68  2
       a = 14.000      CL =  1.4794
      Cm = -0.0642     CD =  0.05678   =>   CDf =  0.00579    CDp =  0.05099
 plradd ia,ip,cpol           44           0 -3.13948549E-04

 Point added to stored polar  1
 Point written to save file  n6409_Re600k.base.pol                           
 Dump file unspecified or not available
 Calculating wake trajectory ...
 Calculating source influence matrix ...

 Solving BL system ...

 Side 1  free  transition at x/c =  0.0135   22
 Side 2 forced transition at x/c =  1.0000   68

   1   rms: 0.3134E-01   max: 0.8641E-01   D at   65  1   RLX: 0.553
       a = 14.250      CL =  1.4828
      Cm = -0.0640     CD =  0.05824   =>   CDf =  0.00579    CDp =  0.05245

 Side 1  free  transition at x/c =  0.0134   22
 Side 2 forced transition at x/c =  1.0000   68

   2   rms: 0.1436E-01   max: 0.4724E-01   D at   67  1
       a = 14.250      CL =  1.4841
      Cm = -0.0637     CD =  0.05943   =>   CDf =  0.00574    CDp =  0.05369

 Side 1  free  transition at x/c =  0.0133   22
 Side 2 forced transition at x/c =  1.0000   68

   3   rms: 0.1801E-02   max: 0.9406E-02   D at   83  2
       a = 14.250      CL =  1.4829
      Cm = -0.0637     CD =  0.05937   =>   CDf =  0.00569    CDp =  0.05368

 Side 1  free  transition at x/c =  0.0133   22
 Side 2 forced transition at x/c =  1.0000   68

   4   rms: 0.9448E-04   max: 0.8883E-03   D at   83  2
       a = 14.250      CL =  1.4828
      Cm = -0.0637     CD =  0.05935   =>   CDf =  0.00569    CDp =  0.05366
 plradd ia,ip,cpol           45           0 -3.13948549E-04

 Point added to stored polar  1
 Point written to save file  n6409_Re600k.base.pol                           
 Dump file unspecified or not available
 Calculating wake trajectory ...
 Calculating source influence matrix ...

 Solving BL system ...

 Side 1  free  transition at x/c =  0.0133   22
 Side 2 forced transition at x/c =  1.0000   68

   1   rms: 0.3125E-01   max: 0.8939E-01   T at   22  1   RLX: 0.538
       a = 14.500      CL =  1.4861
      Cm = -0.0635     CD =  0.06081   =>   CDf =  0.00569    CDp =  0.05511

 Side 1  free  transition at x/c =  0.0131   22
 Side 2 forced transition at x/c =  1.0000   68

   2   rms: 0.1445E-01   max: 0.4403E-01   D at   66  1
       a = 14.500      CL =  1.4877
      Cm = -0.0633     CD =  0.06203   =>   CDf =  0.00564    CDp =  0.05639

 Side 1  free  transition at x/c =  0.0130   22
 Side 2 forced transition at x/c =  1.0000   68

   3   rms: 0.2025E-02   max: 0.1308E-01   D at   83  2
       a = 14.500      CL =  1.4864
      Cm = -0.0633     CD =  0.06197   =>   CDf =  0.00559    CDp =  0.05638

 Side 1  free  transition at x/c =  0.0130   22
 Side 2 forced transition at x/c =  1.0000   68

   4   rms: 0.1273E-03   max: 0.1587E-02   D at   83  2
       a = 14.500      CL =  1.4864
      Cm = -0.0633     CD =  0.06195   =>   CDf =  0.00559    CDp =  0.05635

 Side 1  free  transition at x/c =  0.0130   22
 Side 2 forced transition at x/c =  1.0000   68

   5   rms: 0.2464E-05   max: -.2663E-04   C at   68  2
       a = 14.500      CL =  1.4864
      Cm = -0.0633     CD =  0.06195   =>   CDf =  0.00559    CDp =  0.05635
 plradd ia,ip,cpol           46           0 -3.13948549E-04

 Point added to stored polar  1
 Point written to save file  n6409_Re600k.base.pol                           
 Dump file unspecified or not available
 Calculating wake trajectory ...
 Calculating source influence matrix ...

 Solving BL system ...

 Side 1  free  transition at x/c =  0.0130   22
 Side 2 forced transition at x/c =  1.0000   68

   1   rms: 0.3109E-01   max: 0.8531E-01   D at   63  1   RLX: 0.524
       a = 14.750      CL =  1.4893
      Cm = -0.0631     CD =  0.06343   =>   CDf =  0.00559    CDp =  0.05784

 Side 1  free  transition at x/c =  0.0128   22
 Side 2 forced transition at x/c =  1.0000   68

   2   rms: 0.1489E-01   max: 0.4404E-01   D at   65  1
       a = 14.750      CL =  1.4908
      Cm = -0.0629     CD =  0.06473   =>   CDf =  0.00511    CDp =  0.05961

 Side 1  free  transition at x/c =  0.0127   23
 Side 2 forced transition at x/c =  1.0000   67

   3   rms: 0.3793E-02   max: -.5786E-01   D at    2  1
       a = 14.750      CL =  1.4895
      Cm = -0.0629     CD =  0.06466   =>   CDf =  0.00549    CDp =  0.05917

 Side 1  free  transition at x/c =  0.0127   23
 Side 2 forced transition at x/c =  1.0000   67

   4   rms: 0.7301E-03   max: -.8847E-02   D at    4  1
       a = 14.750      CL =  1.4894
      Cm = -0.0629     CD =  0.06464   =>   CDf =  0.00548    CDp =  0.05915

 Side 1  free  transition at x/c =  0.0127   23
 Side 2 forced transition at x/c =  1.0000   67

   5   rms: 0.3887E-05   max: -.5603E-04   C at   67  2
       a = 14.750      CL =  1.4894
      Cm = -0.0629     CD =  0.06463   =>   CDf =  0.00548    CDp =  0.05915
 plradd ia,ip,cpol           47           0 -3.13948549E-04

 Point added to stored polar  1
 Point written to save file  n6409_Re600k.base.pol                           
 Dump file unspecified or not available
 Calculating wake trajectory ...
 Calculating source influence matrix ...

 Solving BL system ...

 Side 1  free  transition at x/c =  0.0127   23
 Side 2 forced transition at x/c =  1.0000   67

   1   rms: 0.3094E-01   max: 0.8814E-01   T at   23  1   RLX: 0.511
       a = 15.000      CL =  1.4922
      Cm = -0.0628     CD =  0.06612   =>   CDf =  0.00549    CDp =  0.06063

 Side 1  free  transition at x/c =  0.0126   23
 Side 2 forced transition at x/c =  1.0000   67

   2   rms: 0.1522E-01   max: 0.4657E-01   D at   65  1
       a = 15.000      CL =  1.4936
      Cm = -0.0627     CD =  0.06754   =>   CDf =  0.00544    CDp =  0.06211

 Side 1  free  transition at x/c =  0.0124   23
 Side 2 forced transition at x/c =  1.0000   67

   3   rms: 0.2070E-02   max: 0.9789E-02   D at   83  2
       a = 15.000      CL =  1.4922
      Cm = -0.0626     CD =  0.06746   =>   CDf =  0.00539    CDp =  0.06207

 Side 1  free  transition at x/c =  0.0124   23
 Side 2 forced transition at x/c =  1.0000   67

   4   rms: 0.9453E-04   max: -.8565E-03   C at   67  2
       a = 15.000      CL =  1.4922
      Cm = -0.0626     CD =  0.06743   =>   CDf =  0.00538    CDp =  0.06204
 plradd ia,ip,cpol           48           0 -3.13948549E-04

 Point added to stored polar  1
 Point written to save file  n6409_Re600k.base.pol                           
 Dump file unspecified or not available
 Calculating wake trajectory ...
 Calculating source influence matrix ...

 Solving BL system ...

 Side 1  free  transition at x/c =  0.0124   23
 Side 2 forced transition at x/c =  1.0000   67

   1   rms: 0.3058E-01   max: 0.8851E-01   T at   23  1   RLX: 0.498
       a = 15.250      CL =  1.4949
      Cm = -0.0626     CD =  0.06891   =>   CDf =  0.00539    CDp =  0.06352

 Side 1  free  transition at x/c =  0.0123   23
 Side 2 forced transition at x/c =  1.0000   67

   2   rms: 0.1529E-01   max: 0.4845E-01   D at   65  1
       a = 15.250      CL =  1.4962
      Cm = -0.0626     CD =  0.07042   =>   CDf =  0.00534    CDp =  0.06509

 Side 1  free  transition at x/c =  0.0121   23
 Side 2 forced transition at x/c =  1.0000   67

   3   rms: 0.2133E-02   max: 0.1054E-01   D at   83  2
       a = 15.250      CL =  1.4948
      Cm = -0.0625     CD =  0.07034   =>   CDf =  0.00529    CDp =  0.06505

 Side 1  free  transition at x/c =  0.0121   23
 Side 2 forced transition at x/c =  1.0000   67

   4   rms: 0.1021E-03   max: 0.1015E-02   D at   83  2
       a = 15.250      CL =  1.4947
      Cm = -0.0625     CD =  0.07031   =>   CDf =  0.00529    CDp =  0.06502

 Side 1  free  transition at x/c =  0.0121   23
 Side 2 forced transition at x/c =  1.0000   67

   5   rms: 0.5615E-05   max: 0.2433E-04   C at   67  2
       a = 15.250      CL =  1.4947
      Cm = -0.0625     CD =  0.07031   =>   CDf =  0.00529    CDp =  0.06502
 plradd ia,ip,cpol           49           0 -3.13948549E-04

 Point added to stored polar  1
 Point written to save file  n6409_Re600k.base.pol                           
 Dump file unspecified or not available
 Calculating wake trajectory ...
 Calculating source influence matrix ...

 Solving BL system ...

 Side 1  free  transition at x/c =  0.0121   23
 Side 2 forced transition at x/c =  1.0000   67

   1   rms: 0.3013E-01   max: 0.9023E-01   T at   23  1   RLX: 0.486
       a = 15.500      CL =  1.4971
      Cm = -0.0626     CD =  0.07185   =>   CDf =  0.00529    CDp =  0.06656

 Side 1  free  transition at x/c =  0.0120   23
 Side 2 forced transition at x/c =  1.0000   67

   2   rms: 0.1530E-01   max: 0.4644E-01   D at   63  1
       a = 15.500      CL =  1.4985
      Cm = -0.0627     CD =  0.07341   =>   CDf =  0.00524    CDp =  0.06817

 Side 1  free  transition at x/c =  0.0119   23
 Side 2 forced transition at x/c =  1.0000   67

   3   rms: 0.2294E-02   max: 0.1093E-01   D at   83  2
       a = 15.500      CL =  1.4970
      Cm = -0.0627     CD =  0.07330   =>   CDf =  0.00520    CDp =  0.06810

 Side 1  free  transition at x/c =  0.0119   23
 Side 2 forced transition at x/c =  1.0000   67

   4   rms: 0.9736E-04   max: 0.9375E-03   D at   83  2
       a = 15.500      CL =  1.4970
      Cm = -0.0626     CD =  0.07327   =>   CDf =  0.00520    CDp =  0.06807
 plradd ia,ip,cpol           50           0 -3.13948549E-04

 Point added to stored polar  1
 Point written to save file  n6409_Re600k.base.pol                           
 Dump file unspecified or not available
 Calculating wake trajectory ...
 Calculating source influence matrix ...

 Solving BL system ...

 Side 1  free  transition at x/c =  0.0119   23
 Side 2 forced transition at x/c =  1.0000   67

   1   rms: 0.3017E-01   max: 0.1104E+00   T at   23  1   RLX: 0.474
       a = 15.750      CL =  1.4990
      Cm = -0.0628     CD =  0.07486   =>   CDf =  0.00520    CDp =  0.06966

 Side 1  free  transition at x/c =  0.0117   23
 Side 2 forced transition at x/c =  1.0000   67

   2   rms: 0.1574E-01   max: 0.5469E-01   T at   23  1
       a = 15.750      CL =  1.5001
      Cm = -0.0629     CD =  0.07654   =>   CDf =  0.00516    CDp =  0.07137

 Side 1  free  transition at x/c =  0.0116   23
 Side 2 forced transition at x/c =  1.0000   67

   3   rms: 0.2202E-02   max: 0.1468E-01   D at   83  2
       a = 15.750      CL =  1.4987
      Cm = -0.0629     CD =  0.07638   =>   CDf =  0.00513    CDp =  0.07125

 Side 1  free  transition at x/c =  0.0116   23
 Side 2 forced transition at x/c =  1.0000   67

   4   rms: 0.8204E-04   max: 0.9510E-03   D at   83  2
       a = 15.750      CL =  1.4986
      Cm = -0.0629     CD =  0.07635   =>   CDf =  0.00512    CDp =  0.07122
 plradd ia,ip,cpol           51           0 -3.13948549E-04

 Point added to stored polar  1
 Point written to save file  n6409_Re600k.base.pol                           
 Dump file unspecified or not available
 Calculating wake trajectory ...
 Calculating source influence matrix ...

 Solving BL system ...

 Side 1  free  transition at x/c =  0.0116   23
 Side 2 forced transition at x/c =  1.0000   67

   1   rms: 0.3001E-01   max: 0.1038E+00   T at   23  1   RLX: 0.463
       a = 16.000      CL =  1.5004
      Cm = -0.0630     CD =  0.07793   =>   CDf =  0.00513    CDp =  0.07281

 Side 1  free  transition at x/c =  0.0115   23
 Side 2 forced transition at x/c =  1.0000   67

   2   rms: 0.1613E-01   max: 0.5279E-01   T at   23  1
       a = 16.000      CL =  1.5014
      Cm = -0.0632     CD =  0.07970   =>   CDf =  0.00509    CDp =  0.07461

 Side 1  free  transition at x/c =  0.0113   23
 Side 2 forced transition at x/c =  1.0000   67

   3   rms: 0.2264E-02   max: -.1173E-01   C at   67  2
       a = 16.000      CL =  1.4998
      Cm = -0.0631     CD =  0.07956   =>   CDf =  0.00505    CDp =  0.07451

 Side 1  free  transition at x/c =  0.0113   23
 Side 2 forced transition at x/c =  1.0000   67

   4   rms: 0.9974E-04   max: -.1012E-02   C at   67  2
       a = 16.000      CL =  1.4998
      Cm = -0.0631     CD =  0.07953   =>   CDf =  0.00505    CDp =  0.07448
 plradd ia,ip,cpol           52           0 -3.13948549E-04

 Point added to stored polar  1
 Point written to save file  n6409_Re600k.base.pol                           
 Dump file unspecified or not available

.OPERva   c>  
 Polar accumulation disabled

.OPERv   c>  
 XFOIL   c>  
 XFOIL   c>  