
 ===================================================
  XFOIL Version 6.99
  Copyright (C) 2000   Mark Drela, Harold Youngren

  This software comes with ABSOLUTELY NO WARRANTY,
    subject to the GNU General Public License.

  Caveat computor
 ===================================================

 File  xfoil.def  not found

   QUIT    Exit program

  .OPER    Direct operating point(s)
  .MDES    Complex mapping design routine
  .QDES    Surface speed design routine
  .GDES    Geometry design routine

   SAVE f  Write airfoil to labeled coordinate file
   PSAV f  Write airfoil to plain coordinate file
   ISAV f  Write airfoil to ISES coordinate file
   MSAV f  Write airfoil to MSES coordinate file
   REVE    Reverse written-airfoil node ordering

   LOAD f  Read buffer airfoil from coordinate file
   NACA i  Set NACA 4,5-digit airfoil and buffer airfoil
   INTE    Set buffer airfoil by interpolating two airfoils
   NORM    Buffer airfoil normalization toggle
   XYCM rr Change CM reference location, currently  0.25000 0.00000

   BEND    Display structural properties of current airfoil

   PCOP    Set current-airfoil panel nodes directly from buffer airfoil points
   PANE    Set current-airfoil panel nodes ( 160 ) based on curvature
  .PPAR    Show/change paneling

  .PLOP    Plotting options

   WDEF f  Write  current-settings file
   RDEF f  Reread current-settings file
   NAME s  Specify new airfoil name
   NINC    Increment name version number

   Z       Zoom    | (available in all menus)
   U       Unzoom  | 

 XFOIL   c>  
 Labeled airfoil file.  Name:  NACA 64-012A AIRFOIL                            

 Number of input coordinate points:  51
 Counterclockwise ordering
 Max thickness =     0.119860  at x =   0.400
 Max camber    =     0.000000  at x =   0.075

  LE  x,y  =   0.00000   0.00000  |   Chord =   1.00000
  TE  x,y  =   1.00000   0.00000  |

 Current airfoil nodes set from buffer airfoil nodes (  51 )

 WARNING: Poor input coordinate distribution
          Excessive panel angle   55.0  at i =  26
          Repaneling with PANE and/or PPAR suggested
           (doing GDES,CADD before repaneling _may_
            improve excessively coarse LE spacing

 XFOIL   c>  
 XFOIL   c>  
 Blunt trailing edge.  Gap =  0.00050

 Paneling parameters used...
   Number of panel nodes       160
   Panel bunching parameter    1.000
   TE/LE panel density ratio   0.150
   Refined-area/LE panel density ratio    0.200
   Top    side refined area x/c limits  1.000 1.000
   Bottom side refined area x/c limits  1.000 1.000

 XFOIL   c>  
.OPERi   c>  
 Xtr/c     =  1.0000    top    side
 Xtr/c     =  1.0000    bottom side
 Ncrit     =    9.00   ( 0.070 % turb. level )
 Vacc      =  0.0100

 Klag  =  5.6000     Uxwt  =    1.00
 A     =  6.7000     B     =  0.7500       KCt = 0.01485
 CtiniK=  1.8000     CtiniX=  3.3000

..VPAR   c>  
..VPAR   c>  
.OPERi   c>  
 M  =    0.0000
 Re =    600000

.OPERv   c>  
.OPERv   c>  
.OPERv   c>  
 Polar  1 newly created for accumulation
 Airfoil archived with polar: NACA 64-012A AIRFOIL                            

Enter  polar save filename  OR  <return> for no file   s>  
 New polar save file available

Enter  polar dump filename  OR  <return> for no file   s>  
 Polar dump file will NOT be written

 Polar accumulation enabled

.OPERva   c>   Calculating unit vorticity distributions ...
 Calculating wake trajectory ...
 Calculating source influence matrix ...

 Solving BL system ...

 Initializing BL ...
    side            1  ...
 MRCHUE: Inverse mode at  55     Hk =   4.235
 MRCHUE: Inverse mode at  56     Hk =   4.851
 MRCHUE: Inverse mode at  57     Hk =   5.458
 MRCHUE: Inverse mode at  58     Hk =   6.058
 MRCHUE: Inverse mode at  59     Hk =   6.651
 MRCHUE: Inverse mode at  60     Hk =   7.239
 MRCHUE: Inverse mode at  61     Hk =   7.823
 MRCHUE: Inverse mode at  62     Hk =   8.405
 MRCHUE: Inverse mode at  63     Hk =   6.113
 MRCHUE: Inverse mode at  64     Hk =   4.260
 MRCHUE: Inverse mode at  65     Hk =   2.995
    side            2  ...
 MRCHUE: Inverse mode at  17     Hk =   4.511
 MRCHUE: Inverse mode at  18     Hk =   6.079
 MRCHUE: Inverse mode at  19     Hk =   7.810
 MRCHUE: Inverse mode at  20     Hk =   8.063
 MRCHUE: Inverse mode at  21     Hk =   2.500
 MRCHUE: Inverse mode at  85     Hk =   2.500
 MRCHUE: Inverse mode at  86     Hk =   2.500

 Side 1  free  transition at x/c =  0.8142   63
 Side 2  free  transition at x/c =  0.0474   20

   1   rms: 0.1917E+00   max: -.1416E+01   T at   63  1   RLX: 0.353
       a = -4.000      CL = -0.4537
      Cm =  0.0036     CD =  0.00869   =>   CDf =  0.00706    CDp =  0.00163

 Side 1  free  transition at x/c =  0.8258   63
 Side 2  free  transition at x/c =  0.0556   21

   2   rms: 0.1801E+00   max: -.1535E+01   T at   63  1   RLX: 0.326
       a = -4.000      CL = -0.4428
      Cm =  0.0018     CD =  0.00974   =>   CDf =  0.00710    CDp =  0.00265

 MRCHDU: Convergence failed at  65  side 1    Res =  0.3031E+01
 Side 1  free  transition at x/c =  0.8440   65
 Side 2  free  transition at x/c =  0.0683   22

   3   rms: 0.3034E+00   max: -.6279E+01   C at   22  2   RLX: 0.080
       a = -4.000      CL = -0.4327
      Cm = -0.0021     CD =  0.00834   =>   CDf =  0.00680    CDp =  0.00154

 Side 1  free  transition at x/c =  0.8476   65
 Side 2  free  transition at x/c =  0.0710   22

   4   rms: 0.1156E+00   max: -.1050E+01   T at   22  2   RLX: 0.476
       a = -4.000      CL = -0.4257
      Cm = -0.0024     CD =  0.00898   =>   CDf =  0.00702    CDp =  0.00197

 Side 1  free  transition at x/c =  0.8733   67
 Side 2  free  transition at x/c =  0.1362   27

   5   rms: 0.3343E+00   max: -.7655E+01   C at   27  2   RLX: 0.065
       a = -4.000      CL = -0.4312
      Cm = -0.0034     CD =  0.00863   =>   CDf =  0.00650    CDp =  0.00212

 Side 1  free  transition at x/c =  0.8748   67
 Side 2  free  transition at x/c =  0.1422   28

   6   rms: 0.4566E+00   max: -.9585E+01   C at   28  2   RLX: 0.052
       a = -4.000      CL = -0.4313
      Cm = -0.0034     CD =  0.00855   =>   CDf =  0.00643    CDp =  0.00212

 Side 1  free  transition at x/c =  0.8758   67
 Side 2  free  transition at x/c =  0.1541   28

   7   rms: 0.5333E+00   max: -.1248E+02   C at   28  2   RLX: 0.040
       a = -4.000      CL = -0.4309
      Cm = -0.0034     CD =  0.00854   =>   CDf =  0.00636    CDp =  0.00218

 Side 1  free  transition at x/c =  0.8766   67
 Side 2  free  transition at x/c =  0.1659   29

   8   rms: 0.4605E+00   max: -.1065E+02   C at   29  2   RLX: 0.047
       a = -4.000      CL = -0.4310
      Cm = -0.0034     CD =  0.00847   =>   CDf =  0.00629    CDp =  0.00219

 Side 1  free  transition at x/c =  0.8774   67
 Side 2  free  transition at x/c =  0.1788   30

   9   rms: 0.4335E+00   max: -.9879E+01   C at   30  2   RLX: 0.051
       a = -4.000      CL = -0.4311
      Cm = -0.0034     CD =  0.00840   =>   CDf =  0.00621    CDp =  0.00219

 Side 1  free  transition at x/c =  0.8783   67
 Side 2  free  transition at x/c =  0.1880   31

  10   rms: 0.3665E+00   max: -.7746E+01   C at   31  2   RLX: 0.065
       a = -4.000      CL = -0.4308
      Cm = -0.0034     CD =  0.00834   =>   CDf =  0.00616    CDp =  0.00218

 Side 1  free  transition at x/c =  0.8794   67
 Side 2  free  transition at x/c =  0.1986   31

  11   rms: 0.4124E+00   max: -.9338E+01   C at   31  2   RLX: 0.054
       a = -4.000      CL = -0.4303
      Cm = -0.0035     CD =  0.00832   =>   CDf =  0.00609    CDp =  0.00223

 Side 1  free  transition at x/c =  0.8803   67
 Side 2  free  transition at x/c =  0.2083   32

  12   rms: 0.3879E+00   max: -.8753E+01   C at   32  2   RLX: 0.057
       a = -4.000      CL = -0.4301
      Cm = -0.0035     CD =  0.00827   =>   CDf =  0.00603    CDp =  0.00224

 Side 1  free  transition at x/c =  0.8812   67
 Side 2  free  transition at x/c =  0.2184   33

  13   rms: 0.3633E+00   max: -.7951E+01   C at   33  2   RLX: 0.063
       a = -4.000      CL = -0.4299
      Cm = -0.0035     CD =  0.00820   =>   CDf =  0.00597    CDp =  0.00223

 Side 1  free  transition at x/c =  0.8822   67
 Side 2  free  transition at x/c =  0.2289   33

  14   rms: 0.3805E+00   max: -.8423E+01   C at   33  2   RLX: 0.059
       a = -4.000      CL = -0.4295
      Cm = -0.0035     CD =  0.00818   =>   CDf =  0.00591    CDp =  0.00227

 Side 1  free  transition at x/c =  0.8831   67
 Side 2  free  transition at x/c =  0.2404   34

  15   rms: 0.3539E+00   max: -.7860E+01   C at   34  2   RLX: 0.064
       a = -4.000      CL = -0.4294
      Cm = -0.0036     CD =  0.00811   =>   CDf =  0.00585    CDp =  0.00227

 Side 1  free  transition at x/c =  0.8841   67
 Side 2  free  transition at x/c =  0.2523   35

  16   rms: 0.3196E+00   max: -.7066E+01   C at   35  2   RLX: 0.071
       a = -4.000      CL = -0.4293
      Cm = -0.0036     CD =  0.00805   =>   CDf =  0.00578    CDp =  0.00226

 Side 1  free  transition at x/c =  0.8851   67
 Side 2  free  transition at x/c =  0.2645   36

  17   rms: 0.2924E+00   max: -.6396E+01   C at   36  2   RLX: 0.078
       a = -4.000      CL = -0.4293
      Cm = -0.0036     CD =  0.00798   =>   CDf =  0.00572    CDp =  0.00226

 Side 1  free  transition at x/c =  0.8862   67
 Side 2  free  transition at x/c =  0.2749   37

  18   rms: 0.2418E+00   max: -.4989E+01   C at   37  2   RLX: 0.100
       a = -4.000      CL = -0.4290
      Cm = -0.0037     CD =  0.00792   =>   CDf =  0.00567    CDp =  0.00225

 Side 1  free  transition at x/c =  0.8854   67
 Side 2  free  transition at x/c =  0.2861   37

  19   rms: 0.2574E+00   max: -.5574E+01   C at   37  2   RLX: 0.090
       a = -4.000      CL = -0.4291
      Cm = -0.0034     CD =  0.00797   =>   CDf =  0.00568    CDp =  0.00229

 Side 1  free  transition at x/c =  0.8869   67
 Side 2  free  transition at x/c =  0.2959   38

  20   rms: 0.1815E+00   max: -.3928E+01   C at   38  2   RLX: 0.127
       a = -4.000      CL = -0.4285
      Cm = -0.0035     CD =  0.00791   =>   CDf =  0.00562    CDp =  0.00229

 Side 1  free  transition at x/c =  0.8894   68
 Side 2  free  transition at x/c =  0.3080   39

  21   rms: 0.1759E+00   max: -.3729E+01   C at   39  2   RLX: 0.134
       a = -4.000      CL = -0.4283
      Cm = -0.0037     CD =  0.00780   =>   CDf =  0.00553    CDp =  0.00227

 Side 1  free  transition at x/c =  0.8907   68
 Side 2  free  transition at x/c =  0.3186   40

  22   rms: 0.1383E+00   max: -.2829E+01   C at   40  2   RLX: 0.177
       a = -4.000      CL = -0.4280
      Cm = -0.0038     CD =  0.00773   =>   CDf =  0.00547    CDp =  0.00226

 Side 1  free  transition at x/c =  0.8923   68
 Side 2  free  transition at x/c =  0.3293   40

  23   rms: 0.1246E+00   max: -.2629E+01   C at   40  2   RLX: 0.190
       a = -4.000      CL = -0.4273
      Cm = -0.0039     CD =  0.00771   =>   CDf =  0.00540    CDp =  0.00231

 Side 1  free  transition at x/c =  0.8938   68
 Side 2  free  transition at x/c =  0.3402   41

  24   rms: 0.9210E-01   max: -.1935E+01   C at   41  2   RLX: 0.258
       a = -4.000      CL = -0.4269
      Cm = -0.0040     CD =  0.00765   =>   CDf =  0.00533    CDp =  0.00231

 Side 1  free  transition at x/c =  0.8956   68
 Side 2  free  transition at x/c =  0.3503   42

  25   rms: 0.6055E-01   max: -.1250E+01   C at   42  2   RLX: 0.400
       a = -4.000      CL = -0.4262
      Cm = -0.0042     CD =  0.00759   =>   CDf =  0.00527    CDp =  0.00232

 Side 1  free  transition at x/c =  0.8980   68
 Side 2  free  transition at x/c =  0.3599   42

  26   rms: 0.3883E-01   max: -.8059E+00   C at   42  2   RLX: 0.620
       a = -4.000      CL = -0.4251
      Cm = -0.0044     CD =  0.00758   =>   CDf =  0.00522    CDp =  0.00237

 Side 1  free  transition at x/c =  0.9007   68
 Side 2  free  transition at x/c =  0.3706   43

  27   rms: 0.1284E-01   max: -.2668E+00   C at   43  2
       a = -4.000      CL = -0.4245
      Cm = -0.0046     CD =  0.00756   =>   CDf =  0.00516    CDp =  0.00240

 Side 1  free  transition at x/c =  0.9020   68
 Side 2  free  transition at x/c =  0.3765   43

  28   rms: 0.6273E-02   max: -.1039E+00   C at   68  1
       a = -4.000      CL = -0.4244
      Cm = -0.0046     CD =  0.00757   =>   CDf =  0.00515    CDp =  0.00242

 Side 1  free  transition at x/c =  0.9024   69
 Side 2  free  transition at x/c =  0.3774   43

  29   rms: 0.4905E-02   max: -.7441E-01   C at   69  1
       a = -4.000      CL = -0.4244
      Cm = -0.0046     CD =  0.00757   =>   CDf =  0.00515    CDp =  0.00242

 Side 1  free  transition at x/c =  0.9028   69
 Side 2  free  transition at x/c =  0.3773   43

  30   rms: 0.3956E-03   max: 0.4882E-02   C at   69  1
       a = -4.000      CL = -0.4245
      Cm = -0.0046     CD =  0.00757   =>   CDf =  0.00513    CDp =  0.00244

 Side 1  free  transition at x/c =  0.9027   69
 Side 2  free  transition at x/c =  0.3772   43

  31   rms: 0.6909E-05   max: -.1247E-03   C at   43  2
       a = -4.000      CL = -0.4245
      Cm = -0.0046     CD =  0.00757   =>   CDf =  0.00513    CDp =  0.00244
 plradd ia,ip,cpol            1           0  4.69071837E-03

 Point added to stored polar  1
 Point written to save file  n64012a_Re600k.base.pol                         
 Dump file unspecified or not available
 Calculating wake trajectory ...
 Calculating source influence matrix ...

 Solving BL system ...

 Side 1  free  transition at x/c =  0.9027   69
 Side 2  free  transition at x/c =  0.3772   43

   1   rms: 0.6774E+00   max: -.1381E+02   C at   43  2   RLX: 0.036
       a = -3.500      CL = -0.4232
      Cm = -0.0045     CD =  0.00750   =>   CDf =  0.00513    CDp =  0.00237

 Side 1  free  transition at x/c =  0.9019   68
 Side 2  free  transition at x/c =  0.3911   44

   2   rms: 0.6136E+00   max: -.1250E+02   C at   44  2   RLX: 0.040
       a = -3.500      CL = -0.4218
      Cm = -0.0044     CD =  0.00741   =>   CDf =  0.00507    CDp =  0.00234

 Side 1  free  transition at x/c =  0.9006   68
 Side 2  free  transition at x/c =  0.4059   45

   3   rms: 0.4841E+00   max: -.9826E+01   C at   45  2   RLX: 0.051
       a = -3.500      CL = -0.4201
      Cm = -0.0042     CD =  0.00733   =>   CDf =  0.00501    CDp =  0.00232

 Side 1  free  transition at x/c =  0.8991   68
 Side 2  free  transition at x/c =  0.4241   47

   4   rms: 0.3782E+00   max: -.7547E+01   C at   47  2   RLX: 0.066
       a = -3.500      CL = -0.4184
      Cm = -0.0040     CD =  0.00721   =>   CDf =  0.00494    CDp =  0.00227

 Side 1  free  transition at x/c =  0.8972   68
 Side 2  free  transition at x/c =  0.4358   47

   5   rms: 0.1796E+00   max: -.3344E+01   C at   47  2   RLX: 0.150
       a = -3.500      CL = -0.4119
      Cm = -0.0039     CD =  0.00718   =>   CDf =  0.00491    CDp =  0.00227

 Side 1  free  transition at x/c =  0.8936   68
 Side 2  free  transition at x/c =  0.4696   50

   6   rms: 0.1725E+00   max: -.3091E+01   C at   50  2   RLX: 0.162
       a = -3.500      CL = -0.4086
      Cm = -0.0033     CD =  0.00698   =>   CDf =  0.00479    CDp =  0.00219

 Side 1  free  transition at x/c =  0.8904   68
 Side 2  free  transition at x/c =  0.4806   50

   7   rms: 0.7201E-01   max: -.7660E+00   C at   50  2   RLX: 0.653
       a = -3.500      CL = -0.3877
      Cm = -0.0032     CD =  0.00697   =>   CDf =  0.00478    CDp =  0.00218

 Side 1  free  transition at x/c =  0.8819   67
 Side 2  free  transition at x/c =  0.5387   54

   8   rms: 0.2409E-01   max: 0.2140E+00   D at   51  2
       a = -3.500      CL = -0.3791
      Cm = -0.0028     CD =  0.00677   =>   CDf =  0.00465    CDp =  0.00212

 Side 1  free  transition at x/c =  0.8748   67
 Side 2  free  transition at x/c =  0.5425   55

   9   rms: 0.8059E-02   max: 0.1144E+00   C at   55  2
       a = -3.500      CL = -0.3790
      Cm = -0.0028     CD =  0.00678   =>   CDf =  0.00462    CDp =  0.00216

 Side 1  free  transition at x/c =  0.8758   67
 Side 2  free  transition at x/c =  0.5383   54

  10   rms: 0.7249E-03   max: -.1208E-01   D at   56  2
       a = -3.500      CL = -0.3792
      Cm = -0.0027     CD =  0.00677   =>   CDf =  0.00463    CDp =  0.00214

 Side 1  free  transition at x/c =  0.8758   67
 Side 2  free  transition at x/c =  0.5378   54

  11   rms: 0.1410E-04   max: 0.1437E-03   D at    4  2
       a = -3.500      CL = -0.3792
      Cm = -0.0027     CD =  0.00677   =>   CDf =  0.00463    CDp =  0.00214
 plradd ia,ip,cpol            2           0  4.69071837E-03

 Point added to stored polar  1
 Point written to save file  n64012a_Re600k.base.pol                         
 Dump file unspecified or not available
 Calculating wake trajectory ...
 Calculating source influence matrix ...

 Solving BL system ...

 Side 1  free  transition at x/c =  0.8758   67
 Side 2  free  transition at x/c =  0.5378   54

   1   rms: 0.2169E+00   max: -.2759E+01   D at    2  2   RLX: 0.181
       a = -3.000      CL = -0.3696
      Cm = -0.0026     CD =  0.00675   =>   CDf =  0.00471    CDp =  0.00204

 Side 1  free  transition at x/c =  0.8717   67
 Side 2  free  transition at x/c =  0.5497   54

   2   rms: 0.9642E-01   max: -.8739E+00   C at   54  2   RLX: 0.572
       a = -3.000      CL = -0.3454
      Cm = -0.0022     CD =  0.00662   =>   CDf =  0.00463    CDp =  0.00199

 Side 1  free  transition at x/c =  0.8579   67
 Side 2  free  transition at x/c =  0.5654   55

   3   rms: 0.3454E-01   max: -.2026E+00   C at   55  2
       a = -3.000      CL = -0.3262
      Cm = -0.0021     CD =  0.00666   =>   CDf =  0.00471    CDp =  0.00196

 Side 1  free  transition at x/c =  0.8537   66
 Side 2  free  transition at x/c =  0.5838   56

   4   rms: 0.7841E-02   max: -.1388E+00   C at   56  2
       a = -3.000      CL = -0.3267
      Cm = -0.0020     CD =  0.00661   =>   CDf =  0.00468    CDp =  0.00192

 Side 1  free  transition at x/c =  0.8526   66
 Side 2  free  transition at x/c =  0.5850   56

   5   rms: 0.4159E-02   max: -.7692E-01   C at   56  2
       a = -3.000      CL = -0.3267
      Cm = -0.0020     CD =  0.00661   =>   CDf =  0.00466    CDp =  0.00194

 Side 1  free  transition at x/c =  0.8526   66
 Side 2  free  transition at x/c =  0.5848   56

   6   rms: 0.4528E-02   max: -.8268E-01   C at   56  2
       a = -3.000      CL = -0.3267
      Cm = -0.0020     CD =  0.00661   =>   CDf =  0.00466    CDp =  0.00194

 Side 1  free  transition at x/c =  0.8526   66
 Side 2  free  transition at x/c =  0.5848   56

   7   rms: 0.4485E-02   max: -.8204E-01   C at   56  2
       a = -3.000      CL = -0.3267
      Cm = -0.0020     CD =  0.00661   =>   CDf =  0.00466    CDp =  0.00194

 Side 1  free  transition at x/c =  0.8526   66
 Side 2  free  transition at x/c =  0.5848   56

   8   rms: 0.4489E-02   max: -.8211E-01   C at   56  2
       a = -3.000      CL = -0.3267
      Cm = -0.0020     CD =  0.00661   =>   CDf =  0.00466    CDp =  0.00194

 Side 1  free  transition at x/c =  0.8526   66
 Side 2  free  transition at x/c =  0.5848   56

   9   rms: 0.4489E-02   max: -.8211E-01   C at   56  2
       a = -3.000      CL = -0.3267
      Cm = -0.0020     CD =  0.00661   =>   CDf =  0.00466    CDp =  0.00194

 Side 1  free  transition at x/c =  0.8526   66
 Side 2  free  transition at x/c =  0.5848   56

  10   rms: 0.4489E-02   max: -.8211E-01   C at   56  2
       a = -3.000      CL = -0.3267
      Cm = -0.0020     CD =  0.00661   =>   CDf =  0.00466    CDp =  0.00194

 Side 1  free  transition at x/c =  0.8526   66
 Side 2  free  transition at x/c =  0.5848   56

  11   rms: 0.4489E-02   max: -.8210E-01   C at   56  2
       a = -3.000      CL = -0.3267
      Cm = -0.0020     CD =  0.00661   =>   CDf =  0.00466    CDp =  0.00194

 Side 1  free  transition at x/c =  0.8526   66
 Side 2  free  transition at x/c =  0.5848   56

  12   rms: 0.4489E-02   max: -.8211E-01   C at   56  2
       a = -3.000      CL = -0.3267
      Cm = -0.0020     CD =  0.00661   =>   CDf =  0.00466    CDp =  0.00194

 Side 1  free  transition at x/c =  0.8526   66
 Side 2  free  transition at x/c =  0.5848   56

  13   rms: 0.4489E-02   max: -.8210E-01   C at   56  2
       a = -3.000      CL = -0.3267
      Cm = -0.0020     CD =  0.00661   =>   CDf =  0.00466    CDp =  0.00194

 Side 1  free  transition at x/c =  0.8526   66
 Side 2  free  transition at x/c =  0.5848   56

  14   rms: 0.4489E-02   max: -.8210E-01   C at   56  2
       a = -3.000      CL = -0.3267
      Cm = -0.0020     CD =  0.00661   =>   CDf =  0.00466    CDp =  0.00194

 Side 1  free  transition at x/c =  0.8526   66
 Side 2  free  transition at x/c =  0.5848   56

  15   rms: 0.4489E-02   max: -.8210E-01   C at   56  2
       a = -3.000      CL = -0.3267
      Cm = -0.0020     CD =  0.00661   =>   CDf =  0.00466    CDp =  0.00194

 Side 1  free  transition at x/c =  0.8526   66
 Side 2  free  transition at x/c =  0.5848   56

  16   rms: 0.4489E-02   max: -.8211E-01   C at   56  2
       a = -3.000      CL = -0.3267
      Cm = -0.0020     CD =  0.00661   =>   CDf =  0.00466    CDp =  0.00194

 Side 1  free  transition at x/c =  0.8526   66
 Side 2  free  transition at x/c =  0.5848   56

  17   rms: 0.4489E-02   max: -.8211E-01   C at   56  2
       a = -3.000      CL = -0.3267
      Cm = -0.0020     CD =  0.00661   =>   CDf =  0.00466    CDp =  0.00194

 Side 1  free  transition at x/c =  0.8526   66
 Side 2  free  transition at x/c =  0.5848   56

  18   rms: 0.4489E-02   max: -.8211E-01   C at   56  2
       a = -3.000      CL = -0.3267
      Cm = -0.0020     CD =  0.00661   =>   CDf =  0.00466    CDp =  0.00194

 Side 1  free  transition at x/c =  0.8526   66
 Side 2  free  transition at x/c =  0.5848   56

  19   rms: 0.4489E-02   max: -.8211E-01   C at   56  2
       a = -3.000      CL = -0.3267
      Cm = -0.0020     CD =  0.00661   =>   CDf =  0.00466    CDp =  0.00194

 Side 1  free  transition at x/c =  0.8526   66
 Side 2  free  transition at x/c =  0.5848   56

  20   rms: 0.4489E-02   max: -.8210E-01   C at   56  2
       a = -3.000      CL = -0.3267
      Cm = -0.0020     CD =  0.00661   =>   CDf =  0.00466    CDp =  0.00194

 Side 1  free  transition at x/c =  0.8526   66
 Side 2  free  transition at x/c =  0.5848   56

  21   rms: 0.4489E-02   max: -.8211E-01   C at   56  2
       a = -3.000      CL = -0.3267
      Cm = -0.0020     CD =  0.00661   =>   CDf =  0.00466    CDp =  0.00194

 Side 1  free  transition at x/c =  0.8526   66
 Side 2  free  transition at x/c =  0.5848   56

  22   rms: 0.4489E-02   max: -.8210E-01   C at   56  2
       a = -3.000      CL = -0.3267
      Cm = -0.0020     CD =  0.00661   =>   CDf =  0.00466    CDp =  0.00194

 Side 1  free  transition at x/c =  0.8526   66
 Side 2  free  transition at x/c =  0.5848   56

  23   rms: 0.4489E-02   max: -.8211E-01   C at   56  2
       a = -3.000      CL = -0.3267
      Cm = -0.0020     CD =  0.00661   =>   CDf =  0.00466    CDp =  0.00194

 Side 1  free  transition at x/c =  0.8526   66
 Side 2  free  transition at x/c =  0.5848   56

  24   rms: 0.4489E-02   max: -.8211E-01   C at   56  2
       a = -3.000      CL = -0.3267
      Cm = -0.0020     CD =  0.00661   =>   CDf =  0.00466    CDp =  0.00194

 Side 1  free  transition at x/c =  0.8526   66
 Side 2  free  transition at x/c =  0.5848   56

  25   rms: 0.4489E-02   max: -.8211E-01   C at   56  2
       a = -3.000      CL = -0.3267
      Cm = -0.0020     CD =  0.00661   =>   CDf =  0.00466    CDp =  0.00194

 Side 1  free  transition at x/c =  0.8526   66
 Side 2  free  transition at x/c =  0.5848   56

  26   rms: 0.4489E-02   max: -.8210E-01   C at   56  2
       a = -3.000      CL = -0.3267
      Cm = -0.0020     CD =  0.00661   =>   CDf =  0.00466    CDp =  0.00194

 Side 1  free  transition at x/c =  0.8526   66
 Side 2  free  transition at x/c =  0.5848   56

  27   rms: 0.4489E-02   max: -.8211E-01   C at   56  2
       a = -3.000      CL = -0.3267
      Cm = -0.0020     CD =  0.00661   =>   CDf =  0.00466    CDp =  0.00194

 Side 1  free  transition at x/c =  0.8526   66
 Side 2  free  transition at x/c =  0.5848   56

  28   rms: 0.4489E-02   max: -.8210E-01   C at   56  2
       a = -3.000      CL = -0.3267
      Cm = -0.0020     CD =  0.00661   =>   CDf =  0.00466    CDp =  0.00194

 Side 1  free  transition at x/c =  0.8526   66
 Side 2  free  transition at x/c =  0.5848   56

  29   rms: 0.4489E-02   max: -.8211E-01   C at   56  2
       a = -3.000      CL = -0.3267
      Cm = -0.0020     CD =  0.00661   =>   CDf =  0.00466    CDp =  0.00194

 Side 1  free  transition at x/c =  0.8526   66
 Side 2  free  transition at x/c =  0.5848   56

  30   rms: 0.4489E-02   max: -.8210E-01   C at   56  2
       a = -3.000      CL = -0.3267
      Cm = -0.0020     CD =  0.00661   =>   CDf =  0.00466    CDp =  0.00194

 Side 1  free  transition at x/c =  0.8526   66
 Side 2  free  transition at x/c =  0.5848   56

  31   rms: 0.4489E-02   max: -.8210E-01   C at   56  2
       a = -3.000      CL = -0.3267
      Cm = -0.0020     CD =  0.00661   =>   CDf =  0.00466    CDp =  0.00194

 Side 1  free  transition at x/c =  0.8526   66
 Side 2  free  transition at x/c =  0.5848   56

  32   rms: 0.4489E-02   max: -.8211E-01   C at   56  2
       a = -3.000      CL = -0.3267
      Cm = -0.0020     CD =  0.00661   =>   CDf =  0.00466    CDp =  0.00194

 Side 1  free  transition at x/c =  0.8526   66
 Side 2  free  transition at x/c =  0.5848   56

  33   rms: 0.4489E-02   max: -.8211E-01   C at   56  2
       a = -3.000      CL = -0.3267
      Cm = -0.0020     CD =  0.00661   =>   CDf =  0.00466    CDp =  0.00194

 Side 1  free  transition at x/c =  0.8526   66
 Side 2  free  transition at x/c =  0.5848   56

  34   rms: 0.4489E-02   max: -.8210E-01   C at   56  2
       a = -3.000      CL = -0.3267
      Cm = -0.0020     CD =  0.00661   =>   CDf =  0.00466    CDp =  0.00194

 Side 1  free  transition at x/c =  0.8526   66
 Side 2  free  transition at x/c =  0.5848   56

  35   rms: 0.4489E-02   max: -.8211E-01   C at   56  2
       a = -3.000      CL = -0.3267
      Cm = -0.0020     CD =  0.00661   =>   CDf =  0.00466    CDp =  0.00194

 Side 1  free  transition at x/c =  0.8526   66
 Side 2  free  transition at x/c =  0.5848   56

  36   rms: 0.4489E-02   max: -.8211E-01   C at   56  2
       a = -3.000      CL = -0.3267
      Cm = -0.0020     CD =  0.00661   =>   CDf =  0.00466    CDp =  0.00194

 Side 1  free  transition at x/c =  0.8526   66
 Side 2  free  transition at x/c =  0.5848   56

  37   rms: 0.4489E-02   max: -.8210E-01   C at   56  2
       a = -3.000      CL = -0.3267
      Cm = -0.0020     CD =  0.00661   =>   CDf =  0.00466    CDp =  0.00194

 Side 1  free  transition at x/c =  0.8526   66
 Side 2  free  transition at x/c =  0.5848   56

  38   rms: 0.4489E-02   max: -.8211E-01   C at   56  2
       a = -3.000      CL = -0.3267
      Cm = -0.0020     CD =  0.00661   =>   CDf =  0.00466    CDp =  0.00194

 Side 1  free  transition at x/c =  0.8526   66
 Side 2  free  transition at x/c =  0.5848   56

  39   rms: 0.4489E-02   max: -.8211E-01   C at   56  2
       a = -3.000      CL = -0.3267
      Cm = -0.0020     CD =  0.00661   =>   CDf =  0.00466    CDp =  0.00194

 Side 1  free  transition at x/c =  0.8526   66
 Side 2  free  transition at x/c =  0.5848   56

  40   rms: 0.4489E-02   max: -.8211E-01   C at   56  2
       a = -3.000      CL = -0.3267
      Cm = -0.0020     CD =  0.00661   =>   CDf =  0.00466    CDp =  0.00194

 Side 1  free  transition at x/c =  0.8526   66
 Side 2  free  transition at x/c =  0.5848   56

  41   rms: 0.4489E-02   max: -.8211E-01   C at   56  2
       a = -3.000      CL = -0.3267
      Cm = -0.0020     CD =  0.00661   =>   CDf =  0.00466    CDp =  0.00194

 Side 1  free  transition at x/c =  0.8526   66
 Side 2  free  transition at x/c =  0.5848   56

  42   rms: 0.4489E-02   max: -.8210E-01   C at   56  2
       a = -3.000      CL = -0.3267
      Cm = -0.0020     CD =  0.00661   =>   CDf =  0.00466    CDp =  0.00194

 Side 1  free  transition at x/c =  0.8526   66
 Side 2  free  transition at x/c =  0.5848   56

  43   rms: 0.4489E-02   max: -.8211E-01   C at   56  2
       a = -3.000      CL = -0.3267
      Cm = -0.0020     CD =  0.00661   =>   CDf =  0.00466    CDp =  0.00194

 Side 1  free  transition at x/c =  0.8526   66
 Side 2  free  transition at x/c =  0.5848   56

  44   rms: 0.4488E-02   max: -.8210E-01   C at   56  2
       a = -3.000      CL = -0.3267
      Cm = -0.0020     CD =  0.00661   =>   CDf =  0.00466    CDp =  0.00194

 Side 1  free  transition at x/c =  0.8526   66
 Side 2  free  transition at x/c =  0.5848   56

  45   rms: 0.4489E-02   max: -.8211E-01   C at   56  2
       a = -3.000      CL = -0.3267
      Cm = -0.0020     CD =  0.00661   =>   CDf =  0.00466    CDp =  0.00194

 Side 1  free  transition at x/c =  0.8526   66
 Side 2  free  transition at x/c =  0.5848   56

  46   rms: 0.4489E-02   max: -.8211E-01   C at   56  2
       a = -3.000      CL = -0.3267
      Cm = -0.0020     CD =  0.00661   =>   CDf =  0.00466    CDp =  0.00194

 Side 1  free  transition at x/c =  0.8526   66
 Side 2  free  transition at x/c =  0.5848   56

  47   rms: 0.4489E-02   max: -.8211E-01   C at   56  2
       a = -3.000      CL = -0.3267
      Cm = -0.0020     CD =  0.00661   =>   CDf =  0.00466    CDp =  0.00194

 Side 1  free  transition at x/c =  0.8526   66
 Side 2  free  transition at x/c =  0.5848   56

  48   rms: 0.4489E-02   max: -.8211E-01   C at   56  2
       a = -3.000      CL = -0.3267
      Cm = -0.0020     CD =  0.00661   =>   CDf =  0.00466    CDp =  0.00194

 Side 1  free  transition at x/c =  0.8526   66
 Side 2  free  transition at x/c =  0.5848   56

  49   rms: 0.4489E-02   max: -.8210E-01   C at   56  2
       a = -3.000      CL = -0.3267
      Cm = -0.0020     CD =  0.00661   =>   CDf =  0.00466    CDp =  0.00194

 Side 1  free  transition at x/c =  0.8526   66
 Side 2  free  transition at x/c =  0.5848   56

  50   rms: 0.4489E-02   max: -.8210E-01   C at   56  2
       a = -3.000      CL = -0.3267
      Cm = -0.0020     CD =  0.00661   =>   CDf =  0.00466    CDp =  0.00194

 Side 1  free  transition at x/c =  0.8526   66
 Side 2  free  transition at x/c =  0.5848   56

  51   rms: 0.4489E-02   max: -.8211E-01   C at   56  2
       a = -3.000      CL = -0.3267
      Cm = -0.0020     CD =  0.00661   =>   CDf =  0.00466    CDp =  0.00194

 Side 1  free  transition at x/c =  0.8526   66
 Side 2  free  transition at x/c =  0.5848   56

  52   rms: 0.4489E-02   max: -.8211E-01   C at   56  2
       a = -3.000      CL = -0.3267
      Cm = -0.0020     CD =  0.00661   =>   CDf =  0.00466    CDp =  0.00194

 Side 1  free  transition at x/c =  0.8526   66
 Side 2  free  transition at x/c =  0.5848   56

  53   rms: 0.4489E-02   max: -.8210E-01   C at   56  2
       a = -3.000      CL = -0.3267
      Cm = -0.0020     CD =  0.00661   =>   CDf =  0.00466    CDp =  0.00194

 Side 1  free  transition at x/c =  0.8526   66
 Side 2  free  transition at x/c =  0.5848   56

  54   rms: 0.4489E-02   max: -.8211E-01   C at   56  2
       a = -3.000      CL = -0.3267
      Cm = -0.0020     CD =  0.00661   =>   CDf =  0.00466    CDp =  0.00194

 Side 1  free  transition at x/c =  0.8526   66
 Side 2  free  transition at x/c =  0.5848   56

  55   rms: 0.4489E-02   max: -.8210E-01   C at   56  2
       a = -3.000      CL = -0.3267
      Cm = -0.0020     CD =  0.00661   =>   CDf =  0.00466    CDp =  0.00194

 Side 1  free  transition at x/c =  0.8526   66
 Side 2  free  transition at x/c =  0.5848   56

  56   rms: 0.4489E-02   max: -.8210E-01   C at   56  2
       a = -3.000      CL = -0.3267
      Cm = -0.0020     CD =  0.00661   =>   CDf =  0.00466    CDp =  0.00194

 Side 1  free  transition at x/c =  0.8526   66
 Side 2  free  transition at x/c =  0.5848   56

  57   rms: 0.4489E-02   max: -.8211E-01   C at   56  2
       a = -3.000      CL = -0.3267
      Cm = -0.0020     CD =  0.00661   =>   CDf =  0.00466    CDp =  0.00194

 Side 1  free  transition at x/c =  0.8526   66
 Side 2  free  transition at x/c =  0.5848   56

  58   rms: 0.4489E-02   max: -.8211E-01   C at   56  2
       a = -3.000      CL = -0.3267
      Cm = -0.0020     CD =  0.00661   =>   CDf =  0.00466    CDp =  0.00194

 Side 1  free  transition at x/c =  0.8526   66
 Side 2  free  transition at x/c =  0.5848   56

  59   rms: 0.4489E-02   max: -.8211E-01   C at   56  2
       a = -3.000      CL = -0.3267
      Cm = -0.0020     CD =  0.00661   =>   CDf =  0.00466    CDp =  0.00194

 Side 1  free  transition at x/c =  0.8526   66
 Side 2  free  transition at x/c =  0.5848   56

  60   rms: 0.4489E-02   max: -.8211E-01   C at   56  2
       a = -3.000      CL = -0.3267
      Cm = -0.0020     CD =  0.00661   =>   CDf =  0.00466    CDp =  0.00194

 Side 1  free  transition at x/c =  0.8526   66
 Side 2  free  transition at x/c =  0.5848   56

  61   rms: 0.4489E-02   max: -.8211E-01   C at   56  2
       a = -3.000      CL = -0.3267
      Cm = -0.0020     CD =  0.00661   =>   CDf =  0.00466    CDp =  0.00194

 Side 1  free  transition at x/c =  0.8526   66
 Side 2  free  transition at x/c =  0.5848   56

  62   rms: 0.4489E-02   max: -.8211E-01   C at   56  2
       a = -3.000      CL = -0.3267
      Cm = -0.0020     CD =  0.00661   =>   CDf =  0.00466    CDp =  0.00194

 Side 1  free  transition at x/c =  0.8526   66
 Side 2  free  transition at x/c =  0.5848   56

  63   rms: 0.4489E-02   max: -.8211E-01   C at   56  2
       a = -3.000      CL = -0.3267
      Cm = -0.0020     CD =  0.00661   =>   CDf =  0.00466    CDp =  0.00194

 Side 1  free  transition at x/c =  0.8526   66
 Side 2  free  transition at x/c =  0.5848   56

  64   rms: 0.4489E-02   max: -.8211E-01   C at   56  2
       a = -3.000      CL = -0.3267
      Cm = -0.0020     CD =  0.00661   =>   CDf =  0.00466    CDp =  0.00194

 Side 1  free  transition at x/c =  0.8526   66
 Side 2  free  transition at x/c =  0.5848   56

  65   rms: 0.4489E-02   max: -.8210E-01   C at   56  2
       a = -3.000      CL = -0.3267
      Cm = -0.0020     CD =  0.00661   =>   CDf =  0.00466    CDp =  0.00194

 Side 1  free  transition at x/c =  0.8526   66
 Side 2  free  transition at x/c =  0.5848   56

  66   rms: 0.4489E-02   max: -.8211E-01   C at   56  2
       a = -3.000      CL = -0.3267
      Cm = -0.0020     CD =  0.00661   =>   CDf =  0.00466    CDp =  0.00194

 Side 1  free  transition at x/c =  0.8526   66
 Side 2  free  transition at x/c =  0.5848   56

  67   rms: 0.4489E-02   max: -.8211E-01   C at   56  2
       a = -3.000      CL = -0.3267
      Cm = -0.0020     CD =  0.00661   =>   CDf =  0.00466    CDp =  0.00194

 Side 1  free  transition at x/c =  0.8526   66
 Side 2  free  transition at x/c =  0.5848   56

  68   rms: 0.4489E-02   max: -.8211E-01   C at   56  2
       a = -3.000      CL = -0.3267
      Cm = -0.0020     CD =  0.00661   =>   CDf =  0.00466    CDp =  0.00194

 Side 1  free  transition at x/c =  0.8526   66
 Side 2  free  transition at x/c =  0.5848   56

  69   rms: 0.4489E-02   max: -.8210E-01   C at   56  2
       a = -3.000      CL = -0.3267
      Cm = -0.0020     CD =  0.00661   =>   CDf =  0.00466    CDp =  0.00194

 Side 1  free  transition at x/c =  0.8526   66
 Side 2  free  transition at x/c =  0.5848   56

  70   rms: 0.4489E-02   max: -.8211E-01   C at   56  2
       a = -3.000      CL = -0.3267
      Cm = -0.0020     CD =  0.00661   =>   CDf =  0.00466    CDp =  0.00194

 Side 1  free  transition at x/c =  0.8526   66
 Side 2  free  transition at x/c =  0.5848   56

  71   rms: 0.4489E-02   max: -.8211E-01   C at   56  2
       a = -3.000      CL = -0.3267
      Cm = -0.0020     CD =  0.00661   =>   CDf =  0.00466    CDp =  0.00194

 Side 1  free  transition at x/c =  0.8526   66
 Side 2  free  transition at x/c =  0.5848   56

  72   rms: 0.4489E-02   max: -.8211E-01   C at   56  2
       a = -3.000      CL = -0.3267
      Cm = -0.0020     CD =  0.00661   =>   CDf =  0.00466    CDp =  0.00194

 Side 1  free  transition at x/c =  0.8526   66
 Side 2  free  transition at x/c =  0.5848   56

  73   rms: 0.4489E-02   max: -.8211E-01   C at   56  2
       a = -3.000      CL = -0.3267
      Cm = -0.0020     CD =  0.00661   =>   CDf =  0.00466    CDp =  0.00194

 Side 1  free  transition at x/c =  0.8526   66
 Side 2  free  transition at x/c =  0.5848   56

  74   rms: 0.4489E-02   max: -.8211E-01   C at   56  2
       a = -3.000      CL = -0.3267
      Cm = -0.0020     CD =  0.00661   =>   CDf =  0.00466    CDp =  0.00194

 Side 1  free  transition at x/c =  0.8526   66
 Side 2  free  transition at x/c =  0.5848   56

  75   rms: 0.4488E-02   max: -.8210E-01   C at   56  2
       a = -3.000      CL = -0.3267
      Cm = -0.0020     CD =  0.00661   =>   CDf =  0.00466    CDp =  0.00194

 Side 1  free  transition at x/c =  0.8526   66
 Side 2  free  transition at x/c =  0.5848   56

  76   rms: 0.4489E-02   max: -.8211E-01   C at   56  2
       a = -3.000      CL = -0.3267
      Cm = -0.0020     CD =  0.00661   =>   CDf =  0.00466    CDp =  0.00194

 Side 1  free  transition at x/c =  0.8526   66
 Side 2  free  transition at x/c =  0.5848   56

  77   rms: 0.4489E-02   max: -.8210E-01   C at   56  2
       a = -3.000      CL = -0.3267
      Cm = -0.0020     CD =  0.00661   =>   CDf =  0.00466    CDp =  0.00194

 Side 1  free  transition at x/c =  0.8526   66
 Side 2  free  transition at x/c =  0.5848   56

  78   rms: 0.4489E-02   max: -.8210E-01   C at   56  2
       a = -3.000      CL = -0.3267
      Cm = -0.0020     CD =  0.00661   =>   CDf =  0.00466    CDp =  0.00194

 Side 1  free  transition at x/c =  0.8526   66
 Side 2  free  transition at x/c =  0.5848   56

  79   rms: 0.4489E-02   max: -.8210E-01   C at   56  2
       a = -3.000      CL = -0.3267
      Cm = -0.0020     CD =  0.00661   =>   CDf =  0.00466    CDp =  0.00194

 Side 1  free  transition at x/c =  0.8526   66
 Side 2  free  transition at x/c =  0.5848   56

  80   rms: 0.4489E-02   max: -.8211E-01   C at   56  2
       a = -3.000      CL = -0.3267
      Cm = -0.0020     CD =  0.00661   =>   CDf =  0.00466    CDp =  0.00194

 Side 1  free  transition at x/c =  0.8526   66
 Side 2  free  transition at x/c =  0.5848   56

  81   rms: 0.4489E-02   max: -.8210E-01   C at   56  2
       a = -3.000      CL = -0.3267
      Cm = -0.0020     CD =  0.00661   =>   CDf =  0.00466    CDp =  0.00194

 Side 1  free  transition at x/c =  0.8526   66
 Side 2  free  transition at x/c =  0.5848   56

  82   rms: 0.4489E-02   max: -.8211E-01   C at   56  2
       a = -3.000      CL = -0.3267
      Cm = -0.0020     CD =  0.00661   =>   CDf =  0.00466    CDp =  0.00194

 Side 1  free  transition at x/c =  0.8526   66
 Side 2  free  transition at x/c =  0.5848   56

  83   rms: 0.4489E-02   max: -.8210E-01   C at   56  2
       a = -3.000      CL = -0.3267
      Cm = -0.0020     CD =  0.00661   =>   CDf =  0.00466    CDp =  0.00194

 Side 1  free  transition at x/c =  0.8526   66
 Side 2  free  transition at x/c =  0.5848   56

  84   rms: 0.4489E-02   max: -.8211E-01   C at   56  2
       a = -3.000      CL = -0.3267
      Cm = -0.0020     CD =  0.00661   =>   CDf =  0.00466    CDp =  0.00194

 Side 1  free  transition at x/c =  0.8526   66
 Side 2  free  transition at x/c =  0.5848   56

  85   rms: 0.4489E-02   max: -.8210E-01   C at   56  2
       a = -3.000      CL = -0.3267
      Cm = -0.0020     CD =  0.00661   =>   CDf =  0.00466    CDp =  0.00194

 Side 1  free  transition at x/c =  0.8526   66
 Side 2  free  transition at x/c =  0.5848   56

  86   rms: 0.4489E-02   max: -.8210E-01   C at   56  2
       a = -3.000      CL = -0.3267
      Cm = -0.0020     CD =  0.00661   =>   CDf =  0.00466    CDp =  0.00194

 Side 1  free  transition at x/c =  0.8526   66
 Side 2  free  transition at x/c =  0.5848   56

  87   rms: 0.4489E-02   max: -.8211E-01   C at   56  2
       a = -3.000      CL = -0.3267
      Cm = -0.0020     CD =  0.00661   =>   CDf =  0.00466    CDp =  0.00194

 Side 1  free  transition at x/c =  0.8526   66
 Side 2  free  transition at x/c =  0.5848   56

  88   rms: 0.4489E-02   max: -.8210E-01   C at   56  2
       a = -3.000      CL = -0.3267
      Cm = -0.0020     CD =  0.00661   =>   CDf =  0.00466    CDp =  0.00194

 Side 1  free  transition at x/c =  0.8526   66
 Side 2  free  transition at x/c =  0.5848   56

  89   rms: 0.4489E-02   max: -.8211E-01   C at   56  2
       a = -3.000      CL = -0.3267
      Cm = -0.0020     CD =  0.00661   =>   CDf =  0.00466    CDp =  0.00194

 Side 1  free  transition at x/c =  0.8526   66
 Side 2  free  transition at x/c =  0.5848   56

  90   rms: 0.4489E-02   max: -.8211E-01   C at   56  2
       a = -3.000      CL = -0.3267
      Cm = -0.0020     CD =  0.00661   =>   CDf =  0.00466    CDp =  0.00194

 Side 1  free  transition at x/c =  0.8526   66
 Side 2  free  transition at x/c =  0.5848   56

  91   rms: 0.4489E-02   max: -.8210E-01   C at   56  2
       a = -3.000      CL = -0.3267
      Cm = -0.0020     CD =  0.00661   =>   CDf =  0.00466    CDp =  0.00194

 Side 1  free  transition at x/c =  0.8526   66
 Side 2  free  transition at x/c =  0.5848   56

  92   rms: 0.4489E-02   max: -.8211E-01   C at   56  2
       a = -3.000      CL = -0.3267
      Cm = -0.0020     CD =  0.00661   =>   CDf =  0.00466    CDp =  0.00194

 Side 1  free  transition at x/c =  0.8526   66
 Side 2  free  transition at x/c =  0.5848   56

  93   rms: 0.4489E-02   max: -.8210E-01   C at   56  2
       a = -3.000      CL = -0.3267
      Cm = -0.0020     CD =  0.00661   =>   CDf =  0.00466    CDp =  0.00194

 Side 1  free  transition at x/c =  0.8526   66
 Side 2  free  transition at x/c =  0.5848   56

  94   rms: 0.4489E-02   max: -.8211E-01   C at   56  2
       a = -3.000      CL = -0.3267
      Cm = -0.0020     CD =  0.00661   =>   CDf =  0.00466    CDp =  0.00194

 Side 1  free  transition at x/c =  0.8526   66
 Side 2  free  transition at x/c =  0.5848   56

  95   rms: 0.4489E-02   max: -.8210E-01   C at   56  2
       a = -3.000      CL = -0.3267
      Cm = -0.0020     CD =  0.00661   =>   CDf =  0.00466    CDp =  0.00194

 Side 1  free  transition at x/c =  0.8526   66
 Side 2  free  transition at x/c =  0.5848   56

  96   rms: 0.4489E-02   max: -.8211E-01   C at   56  2
       a = -3.000      CL = -0.3267
      Cm = -0.0020     CD =  0.00661   =>   CDf =  0.00466    CDp =  0.00194

 Side 1  free  transition at x/c =  0.8526   66
 Side 2  free  transition at x/c =  0.5848   56

  97   rms: 0.4489E-02   max: -.8210E-01   C at   56  2
       a = -3.000      CL = -0.3267
      Cm = -0.0020     CD =  0.00661   =>   CDf =  0.00466    CDp =  0.00194

 Side 1  free  transition at x/c =  0.8526   66
 Side 2  free  transition at x/c =  0.5848   56

  98   rms: 0.4489E-02   max: -.8211E-01   C at   56  2
       a = -3.000      CL = -0.3267
      Cm = -0.0020     CD =  0.00661   =>   CDf =  0.00466    CDp =  0.00194

 Side 1  free  transition at x/c =  0.8526   66
 Side 2  free  transition at x/c =  0.5848   56

  99   rms: 0.4489E-02   max: -.8211E-01   C at   56  2
       a = -3.000      CL = -0.3267
      Cm = -0.0020     CD =  0.00661   =>   CDf =  0.00466    CDp =  0.00194

 Side 1  free  transition at x/c =  0.8526   66
 Side 2  free  transition at x/c =  0.5848   56

 100   rms: 0.4489E-02   max: -.8211E-01   C at   56  2
       a = -3.000      CL = -0.3267
      Cm = -0.0020     CD =  0.00661   =>   CDf =  0.00466    CDp =  0.00194

 Side 1  free  transition at x/c =  0.8526   66
 Side 2  free  transition at x/c =  0.5848   56

 101   rms: 0.4489E-02   max: -.8210E-01   C at   56  2
       a = -3.000      CL = -0.3267
      Cm = -0.0020     CD =  0.00661   =>   CDf =  0.00466    CDp =  0.00194

 Side 1  free  transition at x/c =  0.8526   66
 Side 2  free  transition at x/c =  0.5848   56

 102   rms: 0.4489E-02   max: -.8211E-01   C at   56  2
       a = -3.000      CL = -0.3267
      Cm = -0.0020     CD =  0.00661   =>   CDf =  0.00466    CDp =  0.00194

 Side 1  free  transition at x/c =  0.8526   66
 Side 2  free  transition at x/c =  0.5848   56

 103   rms: 0.4489E-02   max: -.8211E-01   C at   56  2
       a = -3.000      CL = -0.3267
      Cm = -0.0020     CD =  0.00661   =>   CDf =  0.00466    CDp =  0.00194

 Side 1  free  transition at x/c =  0.8526   66
 Side 2  free  transition at x/c =  0.5848   56

 104   rms: 0.4489E-02   max: -.8211E-01   C at   56  2
       a = -3.000      CL = -0.3267
      Cm = -0.0020     CD =  0.00661   =>   CDf =  0.00466    CDp =  0.00194

 Side 1  free  transition at x/c =  0.8526   66
 Side 2  free  transition at x/c =  0.5848   56

 105   rms: 0.4489E-02   max: -.8210E-01   C at   56  2
       a = -3.000      CL = -0.3267
      Cm = -0.0020     CD =  0.00661   =>   CDf =  0.00466    CDp =  0.00194

 Side 1  free  transition at x/c =  0.8526   66
 Side 2  free  transition at x/c =  0.5848   56

 106   rms: 0.4489E-02   max: -.8211E-01   C at   56  2
       a = -3.000      CL = -0.3267
      Cm = -0.0020     CD =  0.00661   =>   CDf =  0.00466    CDp =  0.00194

 Side 1  free  transition at x/c =  0.8526   66
 Side 2  free  transition at x/c =  0.5848   56

 107   rms: 0.4489E-02   max: -.8211E-01   C at   56  2
       a = -3.000      CL = -0.3267
      Cm = -0.0020     CD =  0.00661   =>   CDf =  0.00466    CDp =  0.00194

 Side 1  free  transition at x/c =  0.8526   66
 Side 2  free  transition at x/c =  0.5848   56

 108   rms: 0.4489E-02   max: -.8211E-01   C at   56  2
       a = -3.000      CL = -0.3267
      Cm = -0.0020     CD =  0.00661   =>   CDf =  0.00466    CDp =  0.00194

 Side 1  free  transition at x/c =  0.8526   66
 Side 2  free  transition at x/c =  0.5848   56

 109   rms: 0.4489E-02   max: -.8211E-01   C at   56  2
       a = -3.000      CL = -0.3267
      Cm = -0.0020     CD =  0.00661   =>   CDf =  0.00466    CDp =  0.00194

 Side 1  free  transition at x/c =  0.8526   66
 Side 2  free  transition at x/c =  0.5848   56

 110   rms: 0.4488E-02   max: -.8210E-01   C at   56  2
       a = -3.000      CL = -0.3267
      Cm = -0.0020     CD =  0.00661   =>   CDf =  0.00466    CDp =  0.00194

 Side 1  free  transition at x/c =  0.8526   66
 Side 2  free  transition at x/c =  0.5848   56

 111   rms: 0.4489E-02   max: -.8211E-01   C at   56  2
       a = -3.000      CL = -0.3267
      Cm = -0.0020     CD =  0.00661   =>   CDf =  0.00466    CDp =  0.00194

 Side 1  free  transition at x/c =  0.8526   66
 Side 2  free  transition at x/c =  0.5848   56

 112   rms: 0.4489E-02   max: -.8211E-01   C at   56  2
       a = -3.000      CL = -0.3267
      Cm = -0.0020     CD =  0.00661   =>   CDf =  0.00466    CDp =  0.00194

 Side 1  free  transition at x/c =  0.8526   66
 Side 2  free  transition at x/c =  0.5848   56

 113   rms: 0.4489E-02   max: -.8211E-01   C at   56  2
       a = -3.000      CL = -0.3267
      Cm = -0.0020     CD =  0.00661   =>   CDf =  0.00466    CDp =  0.00194

 Side 1  free  transition at x/c =  0.8526   66
 Side 2  free  transition at x/c =  0.5848   56

 114   rms: 0.4489E-02   max: -.8211E-01   C at   56  2
       a = -3.000      CL = -0.3267
      Cm = -0.0020     CD =  0.00661   =>   CDf =  0.00466    CDp =  0.00194

 Side 1  free  transition at x/c =  0.8526   66
 Side 2  free  transition at x/c =  0.5848   56

 115   rms: 0.4489E-02   max: -.8210E-01   C at   56  2
       a = -3.000      CL = -0.3267
      Cm = -0.0020     CD =  0.00661   =>   CDf =  0.00466    CDp =  0.00194

 Side 1  free  transition at x/c =  0.8526   66
 Side 2  free  transition at x/c =  0.5848   56

 116   rms: 0.4489E-02   max: -.8211E-01   C at   56  2
       a = -3.000      CL = -0.3267
      Cm = -0.0020     CD =  0.00661   =>   CDf =  0.00466    CDp =  0.00194

 Side 1  free  transition at x/c =  0.8526   66
 Side 2  free  transition at x/c =  0.5848   56

 117   rms: 0.4489E-02   max: -.8210E-01   C at   56  2
       a = -3.000      CL = -0.3267
      Cm = -0.0020     CD =  0.00661   =>   CDf =  0.00466    CDp =  0.00194

 Side 1  free  transition at x/c =  0.8526   66
 Side 2  free  transition at x/c =  0.5848   56

 118   rms: 0.4489E-02   max: -.8211E-01   C at   56  2
       a = -3.000      CL = -0.3267
      Cm = -0.0020     CD =  0.00661   =>   CDf =  0.00466    CDp =  0.00194

 Side 1  free  transition at x/c =  0.8526   66
 Side 2  free  transition at x/c =  0.5848   56

 119   rms: 0.4489E-02   max: -.8211E-01   C at   56  2
       a = -3.000      CL = -0.3267
      Cm = -0.0020     CD =  0.00661   =>   CDf =  0.00466    CDp =  0.00194

 Side 1  free  transition at x/c =  0.8526   66
 Side 2  free  transition at x/c =  0.5848   56

 120   rms: 0.4489E-02   max: -.8211E-01   C at   56  2
       a = -3.000      CL = -0.3267
      Cm = -0.0020     CD =  0.00661   =>   CDf =  0.00466    CDp =  0.00194

 Side 1  free  transition at x/c =  0.8526   66
 Side 2  free  transition at x/c =  0.5848   56

 121   rms: 0.4489E-02   max: -.8210E-01   C at   56  2
       a = -3.000      CL = -0.3267
      Cm = -0.0020     CD =  0.00661   =>   CDf =  0.00466    CDp =  0.00194

 Side 1  free  transition at x/c =  0.8526   66
 Side 2  free  transition at x/c =  0.5848   56

 122   rms: 0.4489E-02   max: -.8211E-01   C at   56  2
       a = -3.000      CL = -0.3267
      Cm = -0.0020     CD =  0.00661   =>   CDf =  0.00466    CDp =  0.00194

 Side 1  free  transition at x/c =  0.8526   66
 Side 2  free  transition at x/c =  0.5848   56

 123   rms: 0.4489E-02   max: -.8210E-01   C at   56  2
       a = -3.000      CL = -0.3267
      Cm = -0.0020     CD =  0.00661   =>   CDf =  0.00466    CDp =  0.00194

 Side 1  free  transition at x/c =  0.8526   66
 Side 2  free  transition at x/c =  0.5848   56

 124   rms: 0.4489E-02   max: -.8211E-01   C at   56  2
       a = -3.000      CL = -0.3267
      Cm = -0.0020     CD =  0.00661   =>   CDf =  0.00466    CDp =  0.00194

 Side 1  free  transition at x/c =  0.8526   66
 Side 2  free  transition at x/c =  0.5848   56

 125   rms: 0.4489E-02   max: -.8210E-01   C at   56  2
       a = -3.000      CL = -0.3267
      Cm = -0.0020     CD =  0.00661   =>   CDf =  0.00466    CDp =  0.00194

 Side 1  free  transition at x/c =  0.8526   66
 Side 2  free  transition at x/c =  0.5848   56

 126   rms: 0.4489E-02   max: -.8211E-01   C at   56  2
       a = -3.000      CL = -0.3267
      Cm = -0.0020     CD =  0.00661   =>   CDf =  0.00466    CDp =  0.00194

 Side 1  free  transition at x/c =  0.8526   66
 Side 2  free  transition at x/c =  0.5848   56

 127   rms: 0.4489E-02   max: -.8210E-01   C at   56  2
       a = -3.000      CL = -0.3267
      Cm = -0.0020     CD =  0.00661   =>   CDf =  0.00466    CDp =  0.00194

 Side 1  free  transition at x/c =  0.8526   66
 Side 2  free  transition at x/c =  0.5848   56

 128   rms: 0.4489E-02   max: -.8211E-01   C at   56  2
       a = -3.000      CL = -0.3267
      Cm = -0.0020     CD =  0.00661   =>   CDf =  0.00466    CDp =  0.00194

 Side 1  free  transition at x/c =  0.8526   66
 Side 2  free  transition at x/c =  0.5848   56

 129   rms: 0.4489E-02   max: -.8210E-01   C at   56  2
       a = -3.000      CL = -0.3267
      Cm = -0.0020     CD =  0.00661   =>   CDf =  0.00466    CDp =  0.00194

 Side 1  free  transition at x/c =  0.8526   66
 Side 2  free  transition at x/c =  0.5848   56

 130   rms: 0.4489E-02   max: -.8210E-01   C at   56  2
       a = -3.000      CL = -0.3267
      Cm = -0.0020     CD =  0.00661   =>   CDf =  0.00466    CDp =  0.00194

 Side 1  free  transition at x/c =  0.8526   66
 Side 2  free  transition at x/c =  0.5848   56

 131   rms: 0.4489E-02   max: -.8211E-01   C at   56  2
       a = -3.000      CL = -0.3267
      Cm = -0.0020     CD =  0.00661   =>   CDf =  0.00466    CDp =  0.00194

 Side 1  free  transition at x/c =  0.8526   66
 Side 2  free  transition at x/c =  0.5848   56

 132   rms: 0.4489E-02   max: -.8211E-01   C at   56  2
       a = -3.000      CL = -0.3267
      Cm = -0.0020     CD =  0.00661   =>   CDf =  0.00466    CDp =  0.00194

 Side 1  free  transition at x/c =  0.8526   66
 Side 2  free  transition at x/c =  0.5848   56

 133   rms: 0.4489E-02   max: -.8211E-01   C at   56  2
       a = -3.000      CL = -0.3267
      Cm = -0.0020     CD =  0.00661   =>   CDf =  0.00466    CDp =  0.00194

 Side 1  free  transition at x/c =  0.8526   66
 Side 2  free  transition at x/c =  0.5848   56

 134   rms: 0.4489E-02   max: -.8211E-01   C at   56  2
       a = -3.000      CL = -0.3267
      Cm = -0.0020     CD =  0.00661   =>   CDf =  0.00466    CDp =  0.00194

 Side 1  free  transition at x/c =  0.8526   66
 Side 2  free  transition at x/c =  0.5848   56

 135   rms: 0.4489E-02   max: -.8211E-01   C at   56  2
       a = -3.000      CL = -0.3267
      Cm = -0.0020     CD =  0.00661   =>   CDf =  0.00466    CDp =  0.00194

 Side 1  free  transition at x/c =  0.8526   66
 Side 2  free  transition at x/c =  0.5848   56

 136   rms: 0.4489E-02   max: -.8210E-01   C at   56  2
       a = -3.000      CL = -0.3267
      Cm = -0.0020     CD =  0.00661   =>   CDf =  0.00466    CDp =  0.00194

 Side 1  free  transition at x/c =  0.8526   66
 Side 2  free  transition at x/c =  0.5848   56

 137   rms: 0.4489E-02   max: -.8211E-01   C at   56  2
       a = -3.000      CL = -0.3267
      Cm = -0.0020     CD =  0.00661   =>   CDf =  0.00466    CDp =  0.00194

 Side 1  free  transition at x/c =  0.8526   66
 Side 2  free  transition at x/c =  0.5848   56

 138   rms: 0.4489E-02   max: -.8211E-01   C at   56  2
       a = -3.000      CL = -0.3267
      Cm = -0.0020     CD =  0.00661   =>   CDf =  0.00466    CDp =  0.00194

 Side 1  free  transition at x/c =  0.8526   66
 Side 2  free  transition at x/c =  0.5848   56

 139   rms: 0.4489E-02   max: -.8211E-01   C at   56  2
       a = -3.000      CL = -0.3267
      Cm = -0.0020     CD =  0.00661   =>   CDf =  0.00466    CDp =  0.00194

 Side 1  free  transition at x/c =  0.8526   66
 Side 2  free  transition at x/c =  0.5848   56

 140   rms: 0.4489E-02   max: -.8211E-01   C at   56  2
       a = -3.000      CL = -0.3267
      Cm = -0.0020     CD =  0.00661   =>   CDf =  0.00466    CDp =  0.00194

 Side 1  free  transition at x/c =  0.8526   66
 Side 2  free  transition at x/c =  0.5848   56

 141   rms: 0.4489E-02   max: -.8211E-01   C at   56  2
       a = -3.000      CL = -0.3267
      Cm = -0.0020     CD =  0.00661   =>   CDf =  0.00466    CDp =  0.00194

 Side 1  free  transition at x/c =  0.8526   66
 Side 2  free  transition at x/c =  0.5848   56

 142   rms: 0.4489E-02   max: -.8211E-01   C at   56  2
       a = -3.000      CL = -0.3267
      Cm = -0.0020     CD =  0.00661   =>   CDf =  0.00466    CDp =  0.00194

 Side 1  free  transition at x/c =  0.8526   66
 Side 2  free  transition at x/c =  0.5848   56

 143   rms: 0.4489E-02   max: -.8211E-01   C at   56  2
       a = -3.000      CL = -0.3267
      Cm = -0.0020     CD =  0.00661   =>   CDf =  0.00466    CDp =  0.00194

 Side 1  free  transition at x/c =  0.8526   66
 Side 2  free  transition at x/c =  0.5848   56

 144   rms: 0.4489E-02   max: -.8211E-01   C at   56  2
       a = -3.000      CL = -0.3267
      Cm = -0.0020     CD =  0.00661   =>   CDf =  0.00466    CDp =  0.00194

 Side 1  free  transition at x/c =  0.8526   66
 Side 2  free  transition at x/c =  0.5848   56

 145   rms: 0.4489E-02   max: -.8210E-01   C at   56  2
       a = -3.000      CL = -0.3267
      Cm = -0.0020     CD =  0.00661   =>   CDf =  0.00466    CDp =  0.00194

 Side 1  free  transition at x/c =  0.8526   66
 Side 2  free  transition at x/c =  0.5848   56

 146   rms: 0.4489E-02   max: -.8211E-01   C at   56  2
       a = -3.000      CL = -0.3267
      Cm = -0.0020     CD =  0.00661   =>   CDf =  0.00466    CDp =  0.00194

 Side 1  free  transition at x/c =  0.8526   66
 Side 2  free  transition at x/c =  0.5848   56

 147   rms: 0.4489E-02   max: -.8211E-01   C at   56  2
       a = -3.000      CL = -0.3267
      Cm = -0.0020     CD =  0.00661   =>   CDf =  0.00466    CDp =  0.00194

 Side 1  free  transition at x/c =  0.8526   66
 Side 2  free  transition at x/c =  0.5848   56

 148   rms: 0.4489E-02   max: -.8211E-01   C at   56  2
       a = -3.000      CL = -0.3267
      Cm = -0.0020     CD =  0.00661   =>   CDf =  0.00466    CDp =  0.00194

 Side 1  free  transition at x/c =  0.8526   66
 Side 2  free  transition at x/c =  0.5848   56

 149   rms: 0.4489E-02   max: -.8211E-01   C at   56  2
       a = -3.000      CL = -0.3267
      Cm = -0.0020     CD =  0.00661   =>   CDf =  0.00466    CDp =  0.00194

 Side 1  free  transition at x/c =  0.8526   66
 Side 2  free  transition at x/c =  0.5848   56

 150   rms: 0.4489E-02   max: -.8211E-01   C at   56  2
       a = -3.000      CL = -0.3267
      Cm = -0.0020     CD =  0.00661   =>   CDf =  0.00466    CDp =  0.00194

 Side 1  free  transition at x/c =  0.8526   66
 Side 2  free  transition at x/c =  0.5848   56

 151   rms: 0.4489E-02   max: -.8210E-01   C at   56  2
       a = -3.000      CL = -0.3267
      Cm = -0.0020     CD =  0.00661   =>   CDf =  0.00466    CDp =  0.00194

 Side 1  free  transition at x/c =  0.8526   66
 Side 2  free  transition at x/c =  0.5848   56

 152   rms: 0.4489E-02   max: -.8211E-01   C at   56  2
       a = -3.000      CL = -0.3267
      Cm = -0.0020     CD =  0.00661   =>   CDf =  0.00466    CDp =  0.00194

 Side 1  free  transition at x/c =  0.8526   66
 Side 2  free  transition at x/c =  0.5848   56

 153   rms: 0.4489E-02   max: -.8211E-01   C at   56  2
       a = -3.000      CL = -0.3267
      Cm = -0.0020     CD =  0.00661   =>   CDf =  0.00466    CDp =  0.00194

 Side 1  free  transition at x/c =  0.8526   66
 Side 2  free  transition at x/c =  0.5848   56

 154   rms: 0.4489E-02   max: -.8211E-01   C at   56  2
       a = -3.000      CL = -0.3267
      Cm = -0.0020     CD =  0.00661   =>   CDf =  0.00466    CDp =  0.00194

 Side 1  free  transition at x/c =  0.8526   66
 Side 2  free  transition at x/c =  0.5848   56

 155   rms: 0.4489E-02   max: -.8211E-01   C at   56  2
       a = -3.000      CL = -0.3267
      Cm = -0.0020     CD =  0.00661   =>   CDf =  0.00466    CDp =  0.00194
 VISCAL:  Convergence failed
 Calculating wake trajectory ...
 Calculating source influence matrix ...

 Solving BL system ...

 Side 1  free  transition at x/c =  0.8526   66
 Side 2  free  transition at x/c =  0.5848   56

   1   rms: 0.9039E-01   max: -.2930E+00   T at   56  2
       a = -2.500      CL = -0.2712
      Cm = -0.0019     CD =  0.00666   =>   CDf =  0.00474    CDp =  0.00192

 MRCHDU: Convergence failed at  58  side 2    Res =  0.2590E+01
 Side 1  free  transition at x/c =  0.8295   66
 Side 2  free  transition at x/c =  0.6216   58

   2   rms: 0.1666E-01   max: -.2343E+00   D at   66  1
       a = -2.500      CL = -0.2736
      Cm = -0.0013     CD =  0.00649   =>   CDf =  0.00466    CDp =  0.00184

 Side 1  free  transition at x/c =  0.8325   66
 Side 2  free  transition at x/c =  0.6215   58

   3   rms: 0.3434E-02   max: 0.5576E-01   C at   66  1
       a = -2.500      CL = -0.2736
      Cm = -0.0014     CD =  0.00649   =>   CDf =  0.00464    CDp =  0.00185

 Side 1  free  transition at x/c =  0.8313   66
 Side 2  free  transition at x/c =  0.6217   58

   4   rms: 0.8797E-04   max: -.1519E-02   D at   68  1
       a = -2.500      CL = -0.2736
      Cm = -0.0014     CD =  0.00649   =>   CDf =  0.00465    CDp =  0.00184
 plradd ia,ip,cpol            3           0  6.79436047E-03

 Point added to stored polar  1
 Point written to save file  n64012a_Re600k.base.pol                         
 Dump file unspecified or not available
 Calculating wake trajectory ...
 Calculating source influence matrix ...

 Solving BL system ...

 Side 1  free  transition at x/c =  0.8312   66
 Side 2  free  transition at x/c =  0.6217   58

   1   rms: 0.9579E-01   max: -.4741E+00   C at   58  2
       a = -2.000      CL = -0.2204
      Cm = -0.0007     CD =  0.00644   =>   CDf =  0.00465    CDp =  0.00178

 Side 1  free  transition at x/c =  0.8118   65
 Side 2  free  transition at x/c =  0.6578   60

   2   rms: 0.2108E-01   max: -.2998E+00   D at   65  1
       a = -2.000      CL = -0.2203
      Cm = -0.0007     CD =  0.00642   =>   CDf =  0.00463    CDp =  0.00179

 Side 1  free  transition at x/c =  0.8128   65
 Side 2  free  transition at x/c =  0.6599   60

   3   rms: 0.4183E-02   max: 0.5969E-01   C at   65  1
       a = -2.000      CL = -0.2202
      Cm = -0.0007     CD =  0.00647   =>   CDf =  0.00467    CDp =  0.00180

 Side 1  free  transition at x/c =  0.8116   65
 Side 2  free  transition at x/c =  0.6597   60

   4   rms: 0.6091E-02   max: -.9909E-01   C at   60  2
       a = -2.000      CL = -0.2202
      Cm = -0.0007     CD =  0.00647   =>   CDf =  0.00472    CDp =  0.00175

 Side 1  free  transition at x/c =  0.8115   65
 Side 2  free  transition at x/c =  0.6599   60

   5   rms: 0.5769E-02   max: -.9667E-01   C at   60  2
       a = -2.000      CL = -0.2202
      Cm = -0.0007     CD =  0.00647   =>   CDf =  0.00472    CDp =  0.00175

 Side 1  free  transition at x/c =  0.8115   65
 Side 2  free  transition at x/c =  0.6599   60

   6   rms: 0.5822E-02   max: -.9708E-01   C at   60  2
       a = -2.000      CL = -0.2202
      Cm = -0.0007     CD =  0.00647   =>   CDf =  0.00472    CDp =  0.00175

 Side 1  free  transition at x/c =  0.8115   65
 Side 2  free  transition at x/c =  0.6599   60

   7   rms: 0.5813E-02   max: -.9701E-01   C at   60  2
       a = -2.000      CL = -0.2202
      Cm = -0.0007     CD =  0.00647   =>   CDf =  0.00472    CDp =  0.00175

 Side 1  free  transition at x/c =  0.8115   65
 Side 2  free  transition at x/c =  0.6599   60

   8   rms: 0.5814E-02   max: -.9702E-01   C at   60  2
       a = -2.000      CL = -0.2202
      Cm = -0.0007     CD =  0.00647   =>   CDf =  0.00472    CDp =  0.00175

 Side 1  free  transition at x/c =  0.8115   65
 Side 2  free  transition at x/c =  0.6599   60

   9   rms: 0.5814E-02   max: -.9702E-01   C at   60  2
       a = -2.000      CL = -0.2202
      Cm = -0.0007     CD =  0.00647   =>   CDf =  0.00472    CDp =  0.00175

 Side 1  free  transition at x/c =  0.8115   65
 Side 2  free  transition at x/c =  0.6599   60

  10   rms: 0.5814E-02   max: -.9701E-01   C at   60  2
       a = -2.000      CL = -0.2202
      Cm = -0.0007     CD =  0.00647   =>   CDf =  0.00472    CDp =  0.00175

 Side 1  free  transition at x/c =  0.8115   65
 Side 2  free  transition at x/c =  0.6599   60

  11   rms: 0.5814E-02   max: -.9702E-01   C at   60  2
       a = -2.000      CL = -0.2202
      Cm = -0.0007     CD =  0.00647   =>   CDf =  0.00472    CDp =  0.00175

 Side 1  free  transition at x/c =  0.8115   65
 Side 2  free  transition at x/c =  0.6599   60

  12   rms: 0.5814E-02   max: -.9702E-01   C at   60  2
       a = -2.000      CL = -0.2202
      Cm = -0.0007     CD =  0.00647   =>   CDf =  0.00472    CDp =  0.00175

 Side 1  free  transition at x/c =  0.8115   65
 Side 2  free  transition at x/c =  0.6599   60

  13   rms: 0.5814E-02   max: -.9702E-01   C at   60  2
       a = -2.000      CL = -0.2202
      Cm = -0.0007     CD =  0.00647   =>   CDf =  0.00472    CDp =  0.00175

 Side 1  free  transition at x/c =  0.8115   65
 Side 2  free  transition at x/c =  0.6599   60

  14   rms: 0.5814E-02   max: -.9702E-01   C at   60  2
       a = -2.000      CL = -0.2202
      Cm = -0.0007     CD =  0.00647   =>   CDf =  0.00472    CDp =  0.00175

 Side 1  free  transition at x/c =  0.8115   65
 Side 2  free  transition at x/c =  0.6599   60

  15   rms: 0.5814E-02   max: -.9702E-01   C at   60  2
       a = -2.000      CL = -0.2202
      Cm = -0.0007     CD =  0.00647   =>   CDf =  0.00472    CDp =  0.00175

 Side 1  free  transition at x/c =  0.8115   65
 Side 2  free  transition at x/c =  0.6599   60

  16   rms: 0.5814E-02   max: -.9702E-01   C at   60  2
       a = -2.000      CL = -0.2202
      Cm = -0.0007     CD =  0.00647   =>   CDf =  0.00472    CDp =  0.00175

 Side 1  free  transition at x/c =  0.8115   65
 Side 2  free  transition at x/c =  0.6599   60

  17   rms: 0.5814E-02   max: -.9702E-01   C at   60  2
       a = -2.000      CL = -0.2202
      Cm = -0.0007     CD =  0.00647   =>   CDf =  0.00472    CDp =  0.00175

 Side 1  free  transition at x/c =  0.8115   65
 Side 2  free  transition at x/c =  0.6599   60

  18   rms: 0.5814E-02   max: -.9702E-01   C at   60  2
       a = -2.000      CL = -0.2202
      Cm = -0.0007     CD =  0.00647   =>   CDf =  0.00472    CDp =  0.00175

 Side 1  free  transition at x/c =  0.8115   65
 Side 2  free  transition at x/c =  0.6599   60

  19   rms: 0.5814E-02   max: -.9701E-01   C at   60  2
       a = -2.000      CL = -0.2202
      Cm = -0.0007     CD =  0.00647   =>   CDf =  0.00472    CDp =  0.00175

 Side 1  free  transition at x/c =  0.8115   65
 Side 2  free  transition at x/c =  0.6599   60

  20   rms: 0.5814E-02   max: -.9702E-01   C at   60  2
       a = -2.000      CL = -0.2202
      Cm = -0.0007     CD =  0.00647   =>   CDf =  0.00472    CDp =  0.00175

 Side 1  free  transition at x/c =  0.8115   65
 Side 2  free  transition at x/c =  0.6599   60

  21   rms: 0.5814E-02   max: -.9701E-01   C at   60  2
       a = -2.000      CL = -0.2202
      Cm = -0.0007     CD =  0.00647   =>   CDf =  0.00472    CDp =  0.00175

 Side 1  free  transition at x/c =  0.8115   65
 Side 2  free  transition at x/c =  0.6599   60

  22   rms: 0.5814E-02   max: -.9702E-01   C at   60  2
       a = -2.000      CL = -0.2202
      Cm = -0.0007     CD =  0.00647   =>   CDf =  0.00472    CDp =  0.00175

 Side 1  free  transition at x/c =  0.8115   65
 Side 2  free  transition at x/c =  0.6599   60

  23   rms: 0.5814E-02   max: -.9702E-01   C at   60  2
       a = -2.000      CL = -0.2202
      Cm = -0.0007     CD =  0.00647   =>   CDf =  0.00472    CDp =  0.00175

 Side 1  free  transition at x/c =  0.8115   65
 Side 2  free  transition at x/c =  0.6599   60

  24   rms: 0.5814E-02   max: -.9702E-01   C at   60  2
       a = -2.000      CL = -0.2202
      Cm = -0.0007     CD =  0.00647   =>   CDf =  0.00472    CDp =  0.00175

 Side 1  free  transition at x/c =  0.8115   65
 Side 2  free  transition at x/c =  0.6599   60

  25   rms: 0.5814E-02   max: -.9702E-01   C at   60  2
       a = -2.000      CL = -0.2202
      Cm = -0.0007     CD =  0.00647   =>   CDf =  0.00472    CDp =  0.00175

 Side 1  free  transition at x/c =  0.8115   65
 Side 2  free  transition at x/c =  0.6599   60

  26   rms: 0.5814E-02   max: -.9702E-01   C at   60  2
       a = -2.000      CL = -0.2202
      Cm = -0.0007     CD =  0.00647   =>   CDf =  0.00472    CDp =  0.00175

 Side 1  free  transition at x/c =  0.8115   65
 Side 2  free  transition at x/c =  0.6599   60

  27   rms: 0.5814E-02   max: -.9701E-01   C at   60  2
       a = -2.000      CL = -0.2202
      Cm = -0.0007     CD =  0.00647   =>   CDf =  0.00472    CDp =  0.00175

 Side 1  free  transition at x/c =  0.8115   65
 Side 2  free  transition at x/c =  0.6599   60

  28   rms: 0.5814E-02   max: -.9702E-01   C at   60  2
       a = -2.000      CL = -0.2202
      Cm = -0.0007     CD =  0.00647   =>   CDf =  0.00472    CDp =  0.00175

 Side 1  free  transition at x/c =  0.8115   65
 Side 2  free  transition at x/c =  0.6599   60

  29   rms: 0.5814E-02   max: -.9702E-01   C at   60  2
       a = -2.000      CL = -0.2202
      Cm = -0.0007     CD =  0.00647   =>   CDf =  0.00472    CDp =  0.00175

 Side 1  free  transition at x/c =  0.8115   65
 Side 2  free  transition at x/c =  0.6599   60

  30   rms: 0.5814E-02   max: -.9702E-01   C at   60  2
       a = -2.000      CL = -0.2202
      Cm = -0.0007     CD =  0.00647   =>   CDf =  0.00472    CDp =  0.00175

 Side 1  free  transition at x/c =  0.8115   65
 Side 2  free  transition at x/c =  0.6599   60

  31   rms: 0.5814E-02   max: -.9702E-01   C at   60  2
       a = -2.000      CL = -0.2202
      Cm = -0.0007     CD =  0.00647   =>   CDf =  0.00472    CDp =  0.00175

 Side 1  free  transition at x/c =  0.8115   65
 Side 2  free  transition at x/c =  0.6599   60

  32   rms: 0.5814E-02   max: -.9702E-01   C at   60  2
       a = -2.000      CL = -0.2202
      Cm = -0.0007     CD =  0.00647   =>   CDf =  0.00472    CDp =  0.00175

 Side 1  free  transition at x/c =  0.8115   65
 Side 2  free  transition at x/c =  0.6599   60

  33   rms: 0.5814E-02   max: -.9702E-01   C at   60  2
       a = -2.000      CL = -0.2202
      Cm = -0.0007     CD =  0.00647   =>   CDf =  0.00472    CDp =  0.00175

 Side 1  free  transition at x/c =  0.8115   65
 Side 2  free  transition at x/c =  0.6599   60

  34   rms: 0.5814E-02   max: -.9701E-01   C at   60  2
       a = -2.000      CL = -0.2202
      Cm = -0.0007     CD =  0.00647   =>   CDf =  0.00472    CDp =  0.00175

 Side 1  free  transition at x/c =  0.8115   65
 Side 2  free  transition at x/c =  0.6599   60

  35   rms: 0.5814E-02   max: -.9701E-01   C at   60  2
       a = -2.000      CL = -0.2202
      Cm = -0.0007     CD =  0.00647   =>   CDf =  0.00472    CDp =  0.00175

 Side 1  free  transition at x/c =  0.8115   65
 Side 2  free  transition at x/c =  0.6599   60

  36   rms: 0.5814E-02   max: -.9701E-01   C at   60  2
       a = -2.000      CL = -0.2202
      Cm = -0.0007     CD =  0.00647   =>   CDf =  0.00472    CDp =  0.00175

 Side 1  free  transition at x/c =  0.8115   65
 Side 2  free  transition at x/c =  0.6599   60

  37   rms: 0.5814E-02   max: -.9702E-01   C at   60  2
       a = -2.000      CL = -0.2202
      Cm = -0.0007     CD =  0.00647   =>   CDf =  0.00472    CDp =  0.00175

 Side 1  free  transition at x/c =  0.8115   65
 Side 2  free  transition at x/c =  0.6599   60

  38   rms: 0.5814E-02   max: -.9702E-01   C at   60  2
       a = -2.000      CL = -0.2202
      Cm = -0.0007     CD =  0.00647   =>   CDf =  0.00472    CDp =  0.00175

 Side 1  free  transition at x/c =  0.8115   65
 Side 2  free  transition at x/c =  0.6599   60

  39   rms: 0.5814E-02   max: -.9702E-01   C at   60  2
       a = -2.000      CL = -0.2202
      Cm = -0.0007     CD =  0.00647   =>   CDf =  0.00472    CDp =  0.00175

 Side 1  free  transition at x/c =  0.8115   65
 Side 2  free  transition at x/c =  0.6599   60

  40   rms: 0.5813E-02   max: -.9701E-01   C at   60  2
       a = -2.000      CL = -0.2202
      Cm = -0.0007     CD =  0.00647   =>   CDf =  0.00472    CDp =  0.00175

 Side 1  free  transition at x/c =  0.8115   65
 Side 2  free  transition at x/c =  0.6599   60

  41   rms: 0.5814E-02   max: -.9702E-01   C at   60  2
       a = -2.000      CL = -0.2202
      Cm = -0.0007     CD =  0.00647   =>   CDf =  0.00472    CDp =  0.00175

 Side 1  free  transition at x/c =  0.8115   65
 Side 2  free  transition at x/c =  0.6599   60

  42   rms: 0.5814E-02   max: -.9702E-01   C at   60  2
       a = -2.000      CL = -0.2202
      Cm = -0.0007     CD =  0.00647   =>   CDf =  0.00472    CDp =  0.00175

 Side 1  free  transition at x/c =  0.8115   65
 Side 2  free  transition at x/c =  0.6599   60

  43   rms: 0.5814E-02   max: -.9702E-01   C at   60  2
       a = -2.000      CL = -0.2202
      Cm = -0.0007     CD =  0.00647   =>   CDf =  0.00472    CDp =  0.00175

 Side 1  free  transition at x/c =  0.8115   65
 Side 2  free  transition at x/c =  0.6599   60

  44   rms: 0.5814E-02   max: -.9702E-01   C at   60  2
       a = -2.000      CL = -0.2202
      Cm = -0.0007     CD =  0.00647   =>   CDf =  0.00472    CDp =  0.00175

 Side 1  free  transition at x/c =  0.8115   65
 Side 2  free  transition at x/c =  0.6599   60

  45   rms: 0.5814E-02   max: -.9701E-01   C at   60  2
       a = -2.000      CL = -0.2202
      Cm = -0.0007     CD =  0.00647   =>   CDf =  0.00472    CDp =  0.00175

 Side 1  free  transition at x/c =  0.8115   65
 Side 2  free  transition at x/c =  0.6599   60

  46   rms: 0.5814E-02   max: -.9702E-01   C at   60  2
       a = -2.000      CL = -0.2202
      Cm = -0.0007     CD =  0.00647   =>   CDf =  0.00472    CDp =  0.00175

 Side 1  free  transition at x/c =  0.8115   65
 Side 2  free  transition at x/c =  0.6599   60

  47   rms: 0.5814E-02   max: -.9702E-01   C at   60  2
       a = -2.000      CL = -0.2202
      Cm = -0.0007     CD =  0.00647   =>   CDf =  0.00472    CDp =  0.00175

 Side 1  free  transition at x/c =  0.8115   65
 Side 2  free  transition at x/c =  0.6599   60

  48   rms: 0.5814E-02   max: -.9702E-01   C at   60  2
       a = -2.000      CL = -0.2202
      Cm = -0.0007     CD =  0.00647   =>   CDf =  0.00472    CDp =  0.00175

 Side 1  free  transition at x/c =  0.8115   65
 Side 2  free  transition at x/c =  0.6599   60

  49   rms: 0.5814E-02   max: -.9702E-01   C at   60  2
       a = -2.000      CL = -0.2202
      Cm = -0.0007     CD =  0.00647   =>   CDf =  0.00472    CDp =  0.00175

 Side 1  free  transition at x/c =  0.8115   65
 Side 2  free  transition at x/c =  0.6599   60

  50   rms: 0.5814E-02   max: -.9702E-01   C at   60  2
       a = -2.000      CL = -0.2202
      Cm = -0.0007     CD =  0.00647   =>   CDf =  0.00472    CDp =  0.00175

 Side 1  free  transition at x/c =  0.8115   65
 Side 2  free  transition at x/c =  0.6599   60

  51   rms: 0.5814E-02   max: -.9702E-01   C at   60  2
       a = -2.000      CL = -0.2202
      Cm = -0.0007     CD =  0.00647   =>   CDf =  0.00472    CDp =  0.00175

 Side 1  free  transition at x/c =  0.8115   65
 Side 2  free  transition at x/c =  0.6599   60

  52   rms: 0.5814E-02   max: -.9702E-01   C at   60  2
       a = -2.000      CL = -0.2202
      Cm = -0.0007     CD =  0.00647   =>   CDf =  0.00472    CDp =  0.00175

 Side 1  free  transition at x/c =  0.8115   65
 Side 2  free  transition at x/c =  0.6599   60

  53   rms: 0.5814E-02   max: -.9701E-01   C at   60  2
       a = -2.000      CL = -0.2202
      Cm = -0.0007     CD =  0.00647   =>   CDf =  0.00472    CDp =  0.00175

 Side 1  free  transition at x/c =  0.8115   65
 Side 2  free  transition at x/c =  0.6599   60

  54   rms: 0.5814E-02   max: -.9702E-01   C at   60  2
       a = -2.000      CL = -0.2202
      Cm = -0.0007     CD =  0.00647   =>   CDf =  0.00472    CDp =  0.00175

 Side 1  free  transition at x/c =  0.8115   65
 Side 2  free  transition at x/c =  0.6599   60

  55   rms: 0.5814E-02   max: -.9702E-01   C at   60  2
       a = -2.000      CL = -0.2202
      Cm = -0.0007     CD =  0.00647   =>   CDf =  0.00472    CDp =  0.00175

 Side 1  free  transition at x/c =  0.8115   65
 Side 2  free  transition at x/c =  0.6599   60

  56   rms: 0.5814E-02   max: -.9702E-01   C at   60  2
       a = -2.000      CL = -0.2202
      Cm = -0.0007     CD =  0.00647   =>   CDf =  0.00472    CDp =  0.00175

 Side 1  free  transition at x/c =  0.8115   65
 Side 2  free  transition at x/c =  0.6599   60

  57   rms: 0.5814E-02   max: -.9701E-01   C at   60  2
       a = -2.000      CL = -0.2202
      Cm = -0.0007     CD =  0.00647   =>   CDf =  0.00472    CDp =  0.00175

 Side 1  free  transition at x/c =  0.8115   65
 Side 2  free  transition at x/c =  0.6599   60

  58   rms: 0.5814E-02   max: -.9702E-01   C at   60  2
       a = -2.000      CL = -0.2202
      Cm = -0.0007     CD =  0.00647   =>   CDf =  0.00472    CDp =  0.00175

 Side 1  free  transition at x/c =  0.8115   65
 Side 2  free  transition at x/c =  0.6599   60

  59   rms: 0.5814E-02   max: -.9702E-01   C at   60  2
       a = -2.000      CL = -0.2202
      Cm = -0.0007     CD =  0.00647   =>   CDf =  0.00472    CDp =  0.00175

 Side 1  free  transition at x/c =  0.8115   65
 Side 2  free  transition at x/c =  0.6599   60

  60   rms: 0.5814E-02   max: -.9701E-01   C at   60  2
       a = -2.000      CL = -0.2202
      Cm = -0.0007     CD =  0.00647   =>   CDf =  0.00472    CDp =  0.00175

 Side 1  free  transition at x/c =  0.8115   65
 Side 2  free  transition at x/c =  0.6599   60

  61   rms: 0.5814E-02   max: -.9702E-01   C at   60  2
       a = -2.000      CL = -0.2202
      Cm = -0.0007     CD =  0.00647   =>   CDf =  0.00472    CDp =  0.00175

 Side 1  free  transition at x/c =  0.8115   65
 Side 2  free  transition at x/c =  0.6599   60

  62   rms: 0.5814E-02   max: -.9701E-01   C at   60  2
       a = -2.000      CL = -0.2202
      Cm = -0.0007     CD =  0.00647   =>   CDf =  0.00472    CDp =  0.00175

 Side 1  free  transition at x/c =  0.8115   65
 Side 2  free  transition at x/c =  0.6599   60

  63   rms: 0.5814E-02   max: -.9702E-01   C at   60  2
       a = -2.000      CL = -0.2202
      Cm = -0.0007     CD =  0.00647   =>   CDf =  0.00472    CDp =  0.00175

 Side 1  free  transition at x/c =  0.8115   65
 Side 2  free  transition at x/c =  0.6599   60

  64   rms: 0.5814E-02   max: -.9701E-01   C at   60  2
       a = -2.000      CL = -0.2202
      Cm = -0.0007     CD =  0.00647   =>   CDf =  0.00472    CDp =  0.00175

 Side 1  free  transition at x/c =  0.8115   65
 Side 2  free  transition at x/c =  0.6599   60

  65   rms: 0.5814E-02   max: -.9701E-01   C at   60  2
       a = -2.000      CL = -0.2202
      Cm = -0.0007     CD =  0.00647   =>   CDf =  0.00472    CDp =  0.00175

 Side 1  free  transition at x/c =  0.8115   65
 Side 2  free  transition at x/c =  0.6599   60

  66   rms: 0.5814E-02   max: -.9702E-01   C at   60  2
       a = -2.000      CL = -0.2202
      Cm = -0.0007     CD =  0.00647   =>   CDf =  0.00472    CDp =  0.00175

 Side 1  free  transition at x/c =  0.8115   65
 Side 2  free  transition at x/c =  0.6599   60

  67   rms: 0.5814E-02   max: -.9702E-01   C at   60  2
       a = -2.000      CL = -0.2202
      Cm = -0.0007     CD =  0.00647   =>   CDf =  0.00472    CDp =  0.00175

 Side 1  free  transition at x/c =  0.8115   65
 Side 2  free  transition at x/c =  0.6599   60

  68   rms: 0.5814E-02   max: -.9701E-01   C at   60  2
       a = -2.000      CL = -0.2202
      Cm = -0.0007     CD =  0.00647   =>   CDf =  0.00472    CDp =  0.00175

 Side 1  free  transition at x/c =  0.8115   65
 Side 2  free  transition at x/c =  0.6599   60

  69   rms: 0.5814E-02   max: -.9702E-01   C at   60  2
       a = -2.000      CL = -0.2202
      Cm = -0.0007     CD =  0.00647   =>   CDf =  0.00472    CDp =  0.00175

 Side 1  free  transition at x/c =  0.8115   65
 Side 2  free  transition at x/c =  0.6599   60

  70   rms: 0.5814E-02   max: -.9702E-01   C at   60  2
       a = -2.000      CL = -0.2202
      Cm = -0.0007     CD =  0.00647   =>   CDf =  0.00472    CDp =  0.00175

 Side 1  free  transition at x/c =  0.8115   65
 Side 2  free  transition at x/c =  0.6599   60

  71   rms: 0.5814E-02   max: -.9701E-01   C at   60  2
       a = -2.000      CL = -0.2202
      Cm = -0.0007     CD =  0.00647   =>   CDf =  0.00472    CDp =  0.00175

 Side 1  free  transition at x/c =  0.8115   65
 Side 2  free  transition at x/c =  0.6599   60

  72   rms: 0.5813E-02   max: -.9701E-01   C at   60  2
       a = -2.000      CL = -0.2202
      Cm = -0.0007     CD =  0.00647   =>   CDf =  0.00472    CDp =  0.00175

 Side 1  free  transition at x/c =  0.8115   65
 Side 2  free  transition at x/c =  0.6599   60

  73   rms: 0.5814E-02   max: -.9702E-01   C at   60  2
       a = -2.000      CL = -0.2202
      Cm = -0.0007     CD =  0.00647   =>   CDf =  0.00472    CDp =  0.00175

 Side 1  free  transition at x/c =  0.8115   65
 Side 2  free  transition at x/c =  0.6599   60

  74   rms: 0.5814E-02   max: -.9701E-01   C at   60  2
       a = -2.000      CL = -0.2202
      Cm = -0.0007     CD =  0.00647   =>   CDf =  0.00472    CDp =  0.00175

 Side 1  free  transition at x/c =  0.8115   65
 Side 2  free  transition at x/c =  0.6599   60

  75   rms: 0.5814E-02   max: -.9702E-01   C at   60  2
       a = -2.000      CL = -0.2202
      Cm = -0.0007     CD =  0.00647   =>   CDf =  0.00472    CDp =  0.00175

 Side 1  free  transition at x/c =  0.8115   65
 Side 2  free  transition at x/c =  0.6599   60

  76   rms: 0.5814E-02   max: -.9702E-01   C at   60  2
       a = -2.000      CL = -0.2202
      Cm = -0.0007     CD =  0.00647   =>   CDf =  0.00472    CDp =  0.00175

[...]
 Side 2 forced transition at x/c =  1.0000   74

  99   rms: 0.2045E+03   max: -.1856E+04   C at   92  2   RLX: 0.000
       a = 14.250      CL =  0.2732
      Cm =  0.0192     CD =  0.10355   =>   CDf =  0.00195    CDp =  0.10160

 MRCHDU: Convergence failed at  88  side 2    Res =  0.4061E-01
 MRCHDU: Convergence failed at  89  side 2    Res =  0.1115E+00
 Side 1  free  transition at x/c =  0.0299   21
 Side 2 forced transition at x/c =  1.0000   74

 100   rms: 0.2252E+03   max: -.2043E+04   C at   92  2   RLX: 0.000
       a = 14.250      CL =  0.2733
      Cm =  0.0192     CD =  0.10356   =>   CDf =  0.00195    CDp =  0.10160

 MRCHDU: Convergence failed at  88  side 2    Res =  0.9120E-01
 MRCHDU: Convergence failed at  89  side 2    Res =  0.1116E+00
 Side 1  free  transition at x/c =  0.0299   21
 Side 2 forced transition at x/c =  1.0000   74

 101   rms: 0.2280E+03   max: -.2067E+04   C at   92  2   RLX: 0.000
       a = 14.250      CL =  0.2733
      Cm =  0.0192     CD =  0.10356   =>   CDf =  0.00195    CDp =  0.10160

 MRCHDU: Convergence failed at  88  side 2    Res =  0.1418E+00
 MRCHDU: Convergence failed at  89  side 2    Res =  0.6474E+00
 Side 1  free  transition at x/c =  0.0299   21
 Side 2 forced transition at x/c =  1.0000   74

 102   rms: 0.4030E+00   max: 0.3800E+01   C at   74  2   RLX: 0.395
       a = 14.250      CL =  0.3230
      Cm =  0.0215     CD =  0.13292   =>   CDf =  0.00192    CDp =  0.13100

 Side 1  free  transition at x/c =  0.0297   22
 Side 2 forced transition at x/c =  1.0000   73

 103   rms: 0.2940E+00   max: 0.2161E+01   C at   73  2   RLX: 0.551
       a = 14.250      CL =  0.3573
      Cm =  0.0283     CD =  0.12706   =>   CDf =  0.00198    CDp =  0.12508

 Side 1  free  transition at x/c =  0.0287   21
 Side 2 forced transition at x/c =  1.0000   73

 104   rms: 0.4516E+02   max: -.1631E+03   D at   27  1   RLX: 0.003
       a = 14.250      CL =  0.2457
      Cm =  0.0855     CD =  0.15252   =>   CDf =  0.00193    CDp =  0.15058

 Side 1  free  transition at x/c =  0.0287   22
 Side 2 forced transition at x/c =  1.0000   72

 105   rms: 0.9600E+00   max: 0.5838E+01   D at   36  1   RLX: 0.257
       a = 14.250      CL =  0.2509
      Cm =  0.0790     CD =  0.15640   =>   CDf =  0.00221    CDp =  0.15419

 Side 1  free  transition at x/c =  0.0285   22
 Side 2 forced transition at x/c =  1.0000   72
 idif Ue xi dudx           1  0.20323156      7.46822357E-03   27.212837    
 Uenew xinew           2  7.76975974E-02  2.85518169E-03

 106   rms: 0.2127E+01   max: 0.9861E+01   D at   36  1   RLX: 0.152
       a = 14.250      CL =  0.2018
      Cm =  0.0572     CD =  0.18608   =>   CDf =  0.00212    CDp =  0.18396

 Side 1  free  transition at x/c =  0.0286   21
 Side 2 forced transition at x/c =  1.0000   73

 107   rms: 0.3150E+00   max: 0.1403E+01   D at   22  1   RLX: 0.733
       a = 14.250      CL =  0.3546
      Cm =  0.0248     CD =  0.17109   =>   CDf =  0.00206    CDp =  0.16903

 Side 1  free  transition at x/c =  0.0245   21
 Side 2 forced transition at x/c =  1.0000   73

 108   rms: 0.1678E+00   max: -.6983E+00   D at   21  1   RLX: 0.716
       a = 14.250      CL =  0.4360
      Cm =  0.0147     CD =  0.14534   =>   CDf =  0.00198    CDp =  0.14336

 Side 1  free  transition at x/c =  0.0227   22
 Side 2 forced transition at x/c =  1.0000   72

 109   rms: 0.7006E-01   max: -.6460E+00   D at   22  1   RLX: 0.774
       a = 14.250      CL =  0.4817
      Cm =  0.0012     CD =  0.13638   =>   CDf =  0.00203    CDp =  0.13435

 Side 1  free  transition at x/c =  0.0230   22
 Side 2 forced transition at x/c =  1.0000   72

 110   rms: 0.5012E-01   max: -.4098E+00   D at   22  1
       a = 14.250      CL =  0.4950
      Cm =  0.0020     CD =  0.13184   =>   CDf =  0.00203    CDp =  0.12981

 Side 1  free  transition at x/c =  0.0234   22
 Side 2 forced transition at x/c =  1.0000   72

 111   rms: 0.3339E-01   max: -.6011E-01   D at   91  2
       a = 14.250      CL =  0.5101
      Cm =  0.0024     CD =  0.13288   =>   CDf =  0.00202    CDp =  0.13086

 Side 1  free  transition at x/c =  0.0233   22
 Side 2 forced transition at x/c =  1.0000   72

 112   rms: 0.9464E-02   max: 0.3865E-01   T at   22  1
       a = 14.250      CL =  0.5161
      Cm =  0.0021     CD =  0.13425   =>   CDf =  0.00202    CDp =  0.13223

 Side 1  free  transition at x/c =  0.0232   22
 Side 2 forced transition at x/c =  1.0000   72

 113   rms: 0.1348E-02   max: -.5318E-02   D at   93  2
       a = 14.250      CL =  0.5169
      Cm =  0.0020     CD =  0.13449   =>   CDf =  0.00201    CDp =  0.13247

 Side 1  free  transition at x/c =  0.0232   22
 Side 2 forced transition at x/c =  1.0000   72

 114   rms: 0.2667E-03   max: 0.1028E-02   T at   22  1
       a = 14.250      CL =  0.5171
      Cm =  0.0020     CD =  0.13453   =>   CDf =  0.00201    CDp =  0.13252

 Side 1  free  transition at x/c =  0.0232   22
 Side 2 forced transition at x/c =  1.0000   72

 115   rms: 0.4177E-04   max: 0.1642E-03   T at   22  1
       a = 14.250      CL =  0.5171
      Cm =  0.0020     CD =  0.13454   =>   CDf =  0.00201    CDp =  0.13253
 plradd ia,ip,cpol           44           0  3.29621835E-04

 Point added to stored polar  1
 Point written to save file  n64012a_Re600k.base.pol                         
 Dump file unspecified or not available
 Calculating wake trajectory ...
 Calculating source influence matrix ...

 Solving BL system ...

 Side 1  free  transition at x/c =  0.0232   22
 Side 2 forced transition at x/c =  1.0000   72

   1   rms: 0.2350E-01   max: 0.1999E+00   T at   22  1   RLX: 0.417
       a = 14.500      CL =  0.5182
      Cm =  0.0019     CD =  0.13549   =>   CDf =  0.00201    CDp =  0.13348

 Side 1  free  transition at x/c =  0.0231   22
 Side 2 forced transition at x/c =  1.0000   72

   2   rms: 0.1299E-01   max: 0.1192E+00   T at   22  1
       a = 14.500      CL =  0.5193
      Cm =  0.0016     CD =  0.13692   =>   CDf =  0.00201    CDp =  0.13491

 Side 1  free  transition at x/c =  0.0229   22
 Side 2 forced transition at x/c =  1.0000   72

   3   rms: 0.2515E-02   max: 0.1523E-01   D at   22  1
       a = 14.500      CL =  0.5183
      Cm =  0.0016     CD =  0.13642   =>   CDf =  0.00201    CDp =  0.13441

 Side 1  free  transition at x/c =  0.0228   22
 Side 2 forced transition at x/c =  1.0000   72

   4   rms: 0.6141E-03   max: -.2401E-02   T at   22  1
       a = 14.500      CL =  0.5180
      Cm =  0.0017     CD =  0.13629   =>   CDf =  0.00201    CDp =  0.13428

 Side 1  free  transition at x/c =  0.0228   22
 Side 2 forced transition at x/c =  1.0000   72

   5   rms: 0.7588E-04   max: -.3043E-03   T at   22  1
       a = 14.500      CL =  0.5179
      Cm =  0.0017     CD =  0.13626   =>   CDf =  0.00201    CDp =  0.13425
 plradd ia,ip,cpol           45           0  3.29621835E-04

 Point added to stored polar  1
 Point written to save file  n64012a_Re600k.base.pol                         
 Dump file unspecified or not available
 Calculating wake trajectory ...
 Calculating source influence matrix ...

 Solving BL system ...

 Side 1  free  transition at x/c =  0.0228   22
 Side 2 forced transition at x/c =  1.0000   72

   1   rms: 0.2310E-01   max: 0.1947E+00   T at   22  1   RLX: 0.408
       a = 14.750      CL =  0.5188
      Cm =  0.0014     CD =  0.13741   =>   CDf =  0.00201    CDp =  0.13540

 Side 1  free  transition at x/c =  0.0227   22
 Side 2 forced transition at x/c =  1.0000   72

   2   rms: 0.1462E-01   max: 0.1202E+00   T at   22  1
       a = 14.750      CL =  0.5200
      Cm =  0.0013     CD =  0.13850   =>   CDf =  0.00201    CDp =  0.13649

 Side 1  free  transition at x/c =  0.0225   22
 Side 2 forced transition at x/c =  1.0000   72

   3   rms: 0.8218E-02   max: 0.4707E-01   T at   22  1
       a = 14.750      CL =  0.5173
      Cm =  0.0012     CD =  0.13868   =>   CDf =  0.00200    CDp =  0.13668

 Side 1  free  transition at x/c =  0.0224   22
 Side 2 forced transition at x/c =  1.0000   72

   4   rms: 0.1495E-02   max: 0.5235E-02   T at   22  1
       a = 14.750      CL =  0.5165
      Cm =  0.0012     CD =  0.13856   =>   CDf =  0.00201    CDp =  0.13655

 Side 1  free  transition at x/c =  0.0224   22
 Side 2 forced transition at x/c =  1.0000   72

   5   rms: 0.2598E-04   max: 0.1574E-03   D at   91  2
       a = 14.750      CL =  0.5165
      Cm =  0.0012     CD =  0.13854   =>   CDf =  0.00201    CDp =  0.13654
 plradd ia,ip,cpol           46           0  3.29621835E-04

 Point added to stored polar  1
 Point written to save file  n64012a_Re600k.base.pol                         
 Dump file unspecified or not available
 Calculating wake trajectory ...
 Calculating source influence matrix ...

 Solving BL system ...

 Side 1  free  transition at x/c =  0.0224   22
 Side 2 forced transition at x/c =  1.0000   72

   1   rms: 0.7899E-01   max: 0.8354E+00   T at   22  1   RLX: 0.391
       a = 15.000      CL =  0.5091
      Cm =  0.0007     CD =  0.14189   =>   CDf =  0.00201    CDp =  0.13988

 Side 1  free  transition at x/c =  0.0221   21
 Side 2 forced transition at x/c =  1.0000   72

   2   rms: 0.1464E+00   max: 0.7214E+00   D at   22  1
       a = 15.000      CL =  0.5039
      Cm = -0.0050     CD =  0.16062   =>   CDf =  0.00201    CDp =  0.15861

 Side 1  free  transition at x/c =  0.0219   21
 Side 2 forced transition at x/c =  1.0000   72

   3   rms: 0.8580E-01   max: 0.3688E+00   D at   22  1
       a = 15.000      CL =  0.5091
      Cm = -0.0023     CD =  0.15283   =>   CDf =  0.00203    CDp =  0.15080

 Side 1  free  transition at x/c =  0.0221   21
 Side 2 forced transition at x/c =  1.0000   72

   4   rms: 0.2633E-01   max: -.1185E+00   D at   22  1
       a = 15.000      CL =  0.4975
      Cm = -0.0000     CD =  0.14106   =>   CDf =  0.00202    CDp =  0.13904

 Side 1  free  transition at x/c =  0.0221   21
 Side 2 forced transition at x/c =  1.0000   72

   5   rms: 0.1917E-01   max: 0.8645E-01   D at   22  1
       a = 15.000      CL =  0.5062
      Cm = -0.0009     CD =  0.14526   =>   CDf =  0.00202    CDp =  0.14323

 Side 1  free  transition at x/c =  0.0221   21
 Side 2 forced transition at x/c =  1.0000   72

   6   rms: 0.4185E-02   max: -.2108E-01   C at   72  2
       a = 15.000      CL =  0.5045
      Cm = -0.0007     CD =  0.14438   =>   CDf =  0.00202    CDp =  0.14236

 Side 1  free  transition at x/c =  0.0221   21
 Side 2 forced transition at x/c =  1.0000   72

   7   rms: 0.6786E-03   max: 0.3832E-02   D at   91  2
       a = 15.000      CL =  0.5040
      Cm = -0.0006     CD =  0.14390   =>   CDf =  0.00202    CDp =  0.14188

 Side 1  free  transition at x/c =  0.0221   21
 Side 2 forced transition at x/c =  1.0000   72

   8   rms: 0.2397E-04   max: 0.1999E-03   D at   91  2
       a = 15.000      CL =  0.5040
      Cm = -0.0006     CD =  0.14387   =>   CDf =  0.00202    CDp =  0.14185
 plradd ia,ip,cpol           47           0  3.29621835E-04

 Point added to stored polar  1
 Point written to save file  n64012a_Re600k.base.pol                         
 Dump file unspecified or not available
 Calculating wake trajectory ...
 Calculating source influence matrix ...

 Solving BL system ...

 Side 1  free  transition at x/c =  0.0221   21
 Side 2 forced transition at x/c =  1.0000   72

   1   rms: 0.2301E-01   max: -.8870E-01   C at   72  2   RLX: 0.385
       a = 15.250      CL =  0.5041
      Cm = -0.0014     CD =  0.14619   =>   CDf =  0.00202    CDp =  0.14417

 Side 1  free  transition at x/c =  0.0220   21
 Side 2 forced transition at x/c =  1.0000   72

   2   rms: 0.1841E-01   max: -.7589E-01   C at   72  2
       a = 15.250      CL =  0.5049
      Cm = -0.0026     CD =  0.14965   =>   CDf =  0.00202    CDp =  0.14763

 Side 1  free  transition at x/c =  0.0220   21
 Side 2 forced transition at x/c =  1.0000   72

   3   rms: 0.2029E-01   max: 0.9698E-01   D at   22  1
       a = 15.250      CL =  0.5048
      Cm = -0.0027     CD =  0.14973   =>   CDf =  0.00202    CDp =  0.14772

 Side 1  free  transition at x/c =  0.0220   21
 Side 2 forced transition at x/c =  1.0000   72

   4   rms: 0.4472E-02   max: 0.1941E-01   D at   92  2
       a = 15.250      CL =  0.5014
      Cm = -0.0022     CD =  0.14736   =>   CDf =  0.00202    CDp =  0.14534

 Side 1  free  transition at x/c =  0.0220   21
 Side 2 forced transition at x/c =  1.0000   72

   5   rms: 0.1789E-02   max: 0.8858E-02   D at   22  1
       a = 15.250      CL =  0.5021
      Cm = -0.0023     CD =  0.14759   =>   CDf =  0.00202    CDp =  0.14557

 Side 1  free  transition at x/c =  0.0220   21
 Side 2 forced transition at x/c =  1.0000   72

   6   rms: 0.3641E-03   max: -.1537E-02   C at   72  2
       a = 15.250      CL =  0.5019
      Cm = -0.0023     CD =  0.14747   =>   CDf =  0.00202    CDp =  0.14545

 Side 1  free  transition at x/c =  0.0220   21
 Side 2 forced transition at x/c =  1.0000   72

   7   rms: 0.2317E-04   max: 0.1894E-03   D at   93  2
       a = 15.250      CL =  0.5018
      Cm = -0.0023     CD =  0.14745   =>   CDf =  0.00202    CDp =  0.14543
 plradd ia,ip,cpol           48           0  3.29621835E-04

 Point added to stored polar  1
 Point written to save file  n64012a_Re600k.base.pol                         
 Dump file unspecified or not available
 Calculating wake trajectory ...
 Calculating source influence matrix ...

 Solving BL system ...

 Side 1  free  transition at x/c =  0.0220   21
 Side 2 forced transition at x/c =  1.0000   72

   1   rms: 0.2239E-01   max: 0.1078E+00   T at   21  1   RLX: 0.376
       a = 15.500      CL =  0.5023
      Cm = -0.0030     CD =  0.14965   =>   CDf =  0.00202    CDp =  0.14763

 Side 1  free  transition at x/c =  0.0219   21
 Side 2 forced transition at x/c =  1.0000   72

   2   rms: 0.2143E-01   max: -.8745E-01   C at   72  2
       a = 15.500      CL =  0.5044
      Cm = -0.0044     CD =  0.15362   =>   CDf =  0.00202    CDp =  0.15161

 Side 1  free  transition at x/c =  0.0217   21
 Side 2 forced transition at x/c =  1.0000   72

   3   rms: 0.4130E-01   max: 0.2350E+00   D at   22  1
       a = 15.500      CL =  0.5056
      Cm = -0.0051     CD =  0.15592   =>   CDf =  0.00201    CDp =  0.15391

 Side 1  free  transition at x/c =  0.0218   21
 Side 2 forced transition at x/c =  1.0000   72

   4   rms: 0.1509E-01   max: -.1056E+00   T at   21  1
       a = 15.500      CL =  0.5017
      Cm = -0.0039     CD =  0.15140   =>   CDf =  0.00202    CDp =  0.14939

 Side 1  free  transition at x/c =  0.0218   21
 Side 2 forced transition at x/c =  1.0000   72

   5   rms: 0.3122E-01   max: 0.1687E+00   D at   22  1
       a = 15.500      CL =  0.5051
      Cm = -0.0048     CD =  0.15457   =>   CDf =  0.00202    CDp =  0.15256

 Side 1  free  transition at x/c =  0.0218   21
 Side 2 forced transition at x/c =  1.0000   72

   6   rms: 0.1377E-01   max: 0.7393E-01   T at   22  1
       a = 15.500      CL =  0.5022
      Cm = -0.0042     CD =  0.15235   =>   CDf =  0.00202    CDp =  0.15034

 Side 1  free  transition at x/c =  0.0218   21
 Side 2 forced transition at x/c =  1.0000   72

   7   rms: 0.4356E-02   max: 0.2600E-01   T at   22  1
       a = 15.500      CL =  0.5011
      Cm = -0.0040     CD =  0.15125   =>   CDf =  0.00202    CDp =  0.14924

 Side 1  free  transition at x/c =  0.0219   21
 Side 2 forced transition at x/c =  1.0000   72

   8   rms: 0.7467E-03   max: -.4441E-02   T at   21  1
       a = 15.500      CL =  0.5007
      Cm = -0.0039     CD =  0.15091   =>   CDf =  0.00202    CDp =  0.14890

 Side 1  free  transition at x/c =  0.0219   21
 Side 2 forced transition at x/c =  1.0000   72

   9   rms: 0.7181E-04   max: 0.3770E-03   T at   22  1
       a = 15.500      CL =  0.5006
      Cm = -0.0039     CD =  0.15088   =>   CDf =  0.00202    CDp =  0.14886
 plradd ia,ip,cpol           49           0  3.29621835E-04

 Point added to stored polar  1
 Point written to save file  n64012a_Re600k.base.pol                         
 Dump file unspecified or not available
 Calculating wake trajectory ...
 Calculating source influence matrix ...

 Solving BL system ...

 Side 1  free  transition at x/c =  0.0219   21
 Side 2 forced transition at x/c =  1.0000   72

   1   rms: 0.2885E-01   max: 0.2401E+00   T at   21  1   RLX: 0.368
       a = 15.750      CL =  0.5014
      Cm = -0.0048     CD =  0.15311   =>   CDf =  0.00202    CDp =  0.15110

 Side 1  free  transition at x/c =  0.0216   21
 Side 2 forced transition at x/c =  1.0000   72

   2   rms: 0.5171E-01   max: 0.3542E+00   T at   21  1
       a = 15.750      CL =  0.5041
      Cm = -0.0078     CD =  0.16130   =>   CDf =  0.00202    CDp =  0.15929

 Side 1  free  transition at x/c =  0.0203   21
 Side 2 forced transition at x/c =  1.0000   72

   3   rms: 0.2736E-01   max: 0.1809E+00   D at   22  1
       a = 15.750      CL =  0.4971
      Cm = -0.0078     CD =  0.15949   =>   CDf =  0.00202    CDp =  0.15747

 Side 1  free  transition at x/c =  0.0203   21
 Side 2 forced transition at x/c =  1.0000   72

   4   rms: 0.6008E-02   max: -.5289E-01   T at   21  1
       a = 15.750      CL =  0.4936
      Cm = -0.0073     CD =  0.15607   =>   CDf =  0.00202    CDp =  0.15405

 Side 1  free  transition at x/c =  0.0205   21
 Side 2 forced transition at x/c =  1.0000   72

   5   rms: 0.1197E-02   max: -.1304E-01   T at   21  1
       a = 15.750      CL =  0.4931
      Cm = -0.0071     CD =  0.15535   =>   CDf =  0.00202    CDp =  0.15333

 Side 1  free  transition at x/c =  0.0205   21
 Side 2 forced transition at x/c =  1.0000   72

   6   rms: 0.1985E-03   max: 0.1966E-02   T at   21  1
       a = 15.750      CL =  0.4932
      Cm = -0.0072     CD =  0.15540   =>   CDf =  0.00202    CDp =  0.15338

 Side 1  free  transition at x/c =  0.0205   21
 Side 2 forced transition at x/c =  1.0000   72

   7   rms: 0.2198E-04   max: 0.2306E-03   T at   21  1
       a = 15.750      CL =  0.4932
      Cm = -0.0072     CD =  0.15542   =>   CDf =  0.00202    CDp =  0.15340
 plradd ia,ip,cpol           50           0  3.29621835E-04

 Point added to stored polar  1
 Point written to save file  n64012a_Re600k.base.pol                         
 Dump file unspecified or not available
 Calculating wake trajectory ...
 Calculating source influence matrix ...

 Solving BL system ...

 Side 1  free  transition at x/c =  0.0205   21
 Side 2 forced transition at x/c =  1.0000   72

   1   rms: 0.3751E-01   max: 0.5313E+00   T at   21  1   RLX: 0.358
       a = 16.000      CL =  0.4936
      Cm = -0.0080     CD =  0.15768   =>   CDf =  0.00202    CDp =  0.15566

 Side 1  free  transition at x/c =  0.0200   21
 Side 2 forced transition at x/c =  1.0000   72

   2   rms: 0.1139E-01   max: 0.1776E+00   T at   21  1
       a = 16.000      CL =  0.4942
      Cm = -0.0088     CD =  0.15942   =>   CDf =  0.00202    CDp =  0.15740

 Side 1  free  transition at x/c =  0.0194   21
 Side 2 forced transition at x/c =  1.0000   72

   3   rms: 0.3261E-02   max: -.2364E-01   D at   22  1
       a = 16.000      CL =  0.4930
      Cm = -0.0086     CD =  0.15817   =>   CDf =  0.00202    CDp =  0.15615

 Side 1  free  transition at x/c =  0.0195   21
 Side 2 forced transition at x/c =  1.0000   72

   4   rms: 0.8001E-03   max: 0.4183E-02   T at   21  1
       a = 16.000      CL =  0.4935
      Cm = -0.0086     CD =  0.15836   =>   CDf =  0.00202    CDp =  0.15634

 Side 1  free  transition at x/c =  0.0195   21
 Side 2 forced transition at x/c =  1.0000   72

   5   rms: 0.8331E-04   max: -.5641E-03   D at   91  2
       a = 16.000      CL =  0.4936
      Cm = -0.0086     CD =  0.15843   =>   CDf =  0.00202    CDp =  0.15641
 plradd ia,ip,cpol           51           0  3.29621835E-04

 Point added to stored polar  1
 Point written to save file  n64012a_Re600k.base.pol                         
 Dump file unspecified or not available

.OPERva   c>  
 Polar accumulation disabled

.OPERv   c>  
 XFOIL   c>  
 XFOIL   c>  