
 ===================================================
  XFOIL Version 6.99
  Copyright (C) 2000   Mark Drela, Harold Youngren

  This software comes with ABSOLUTELY NO WARRANTY,
    subject to the GNU General Public License.

  Caveat computor
 ===================================================

 File  xfoil.def  not found

   QUIT    Exit program

  .OPER    Direct operating point(s)
  .MDES    Complex mapping design routine
  .QDES    Surface speed design routine
  .GDES    Geometry design routine

   SAVE f  Write airfoil to labeled coordinate file
   PSAV f  Write airfoil to plain coordinate file
   ISAV f  Write airfoil to ISES coordinate file
   MSAV f  Write airfoil to MSES coordinate file
   REVE    Reverse written-airfoil node ordering

   LOAD f  Read buffer airfoil from coordinate file
   NACA i  Set NACA 4,5-digit airfoil and buffer airfoil
   INTE    Set buffer airfoil by interpolating two airfoils
   NORM    Buffer airfoil normalization toggle
   XYCM rr Change CM reference location, currently  0.25000 0.00000

   BEND    Display structural properties of current airfoil

   PCOP    Set current-airfoil panel nodes directly from buffer airfoil points
   PANE    Set current-airfoil panel nodes ( 160 ) based on curvature
  .PPAR    Show/change paneling

  .PLOP    Plotting options

   WDEF f  Write  current-settings file
   RDEF f  Reread current-settings file
   NAME s  Specify new airfoil name
   NINC    Increment name version number

   Z       Zoom    | (available in all menus)
   U       Unzoom  | 

 XFOIL   c>  
 Labeled airfoil file.  Name:  NACA 64(2)-415 [NACA 6a series from Theory of Wi

 Number of input coordinate points:  51
 Counterclockwise ordering
 Max thickness =     0.149740  at x =   0.352
 Max camber    =     0.020712  at x =   0.550

  LE  x,y  =  -0.00024   0.00270  |   Chord =   1.00025
  TE  x,y  =   1.00000   0.00000  |

 Current airfoil nodes set from buffer airfoil nodes (  51 )

 WARNING: Poor input coordinate distribution
          Excessive panel angle   45.8  at i =  26
          Repaneling with PANE and/or PPAR suggested
           (doing GDES,CADD before repaneling _may_
            improve excessively coarse LE spacing

 XFOIL   c>  
 XFOIL   c>  
 Sharp trailing edge

 Paneling parameters used...
   Number of panel nodes       160
   Panel bunching parameter    1.000
   TE/LE panel density ratio   0.150
   Refined-area/LE panel density ratio    0.200
   Top    side refined area x/c limits  1.000 1.000
   Bottom side refined area x/c limits  1.000 1.000

 XFOIL   c>  
.OPERi   c>  
 Xtr/c     =  1.0000    top    side
 Xtr/c     =  1.0000    bottom side
 Ncrit     =    9.00   ( 0.070 % turb. level )
 Vacc      =  0.0100

 Klag  =  5.6000     Uxwt  =    1.00
 A     =  6.7000     B     =  0.7500       KCt = 0.01485
 CtiniK=  1.8000     CtiniX=  3.3000

..VPAR   c>  
..VPAR   c>  
.OPERi   c>  
 M  =    0.0000
 Re =    500000

.OPERv   c>  
.OPERv   c>  
.OPERv   c>  
 Polar  1 newly created for accumulation
 Airfoil archived with polar: NACA 64(2)-415 [NACA 6a series from Theory of Wi

Enter  polar save filename  OR  <return> for no file   s>  
 New polar save file available

Enter  polar dump filename  OR  <return> for no file   s>  
 Polar dump file will NOT be written

 Polar accumulation enabled

.OPERva   c>   Calculating unit vorticity distributions ...
 Calculating wake trajectory ...
 Calculating source influence matrix ...

 Solving BL system ...

 Initializing BL ...
    side            1  ...
 MRCHUE: Inverse mode at  50     Hk =   4.254
 MRCHUE: Inverse mode at  51     Hk =   4.987
 MRCHUE: Inverse mode at  52     Hk =   5.705
 MRCHUE: Inverse mode at  53     Hk =   6.413
 MRCHUE: Inverse mode at  54     Hk =   7.115
 MRCHUE: Inverse mode at  55     Hk =   7.810
 MRCHUE: Inverse mode at  56     Hk =   8.501
 MRCHUE: Inverse mode at  57     Hk =   6.922
 MRCHUE: Inverse mode at  58     Hk =   4.420
 MRCHUE: Inverse mode at  59     Hk =   2.851
    side            2  ...
 MRCHUE: Inverse mode at  21     Hk =   4.242
 MRCHUE: Inverse mode at  22     Hk =   5.268
 MRCHUE: Inverse mode at  23     Hk =   6.356
 MRCHUE: Inverse mode at  24     Hk =   7.521
 MRCHUE: Inverse mode at  25     Hk =   8.768
 MRCHUE: Inverse mode at  26     Hk =   9.194
 MRCHUE: Inverse mode at  27     Hk =   2.616
 MRCHUE: Inverse mode at  81     Hk =   2.500
 MRCHUE: Inverse mode at  82     Hk =   2.500

 Side 1  free  transition at x/c =  0.7019   57
 Side 2  free  transition at x/c =  0.0662   26

   1   rms: 0.1617E+00   max: -.1478E+01   T at   26  2   RLX: 0.338
       a = -4.000      CL = -0.0968
      Cm = -0.0790     CD =  0.01198   =>   CDf =  0.00736    CDp =  0.00461

 Side 1  free  transition at x/c =  0.7118   58
 Side 2  free  transition at x/c =  0.0759   27

   2   rms: 0.1718E+00   max: -.1684E+01   T at   27  2   RLX: 0.297
       a = -4.000      CL = -0.1001
      Cm = -0.0776     CD =  0.01105   =>   CDf =  0.00741    CDp =  0.00364

 Side 1  free  transition at x/c =  0.7186   58
 Side 2  free  transition at x/c =  0.0910   28

   3   rms: 0.1396E+00   max: 0.1671E+01   C at   28  2   RLX: 0.344
       a = -4.000      CL = -0.1027
      Cm = -0.0762     CD =  0.01091   =>   CDf =  0.00729    CDp =  0.00362

 Side 1  free  transition at x/c =  0.7268   58
 Side 2  free  transition at x/c =  0.1819   34

   4   rms: 0.1191E+01   max: -.2586E+02   C at   34  2   RLX: 0.019
       a = -4.000      CL = -0.1060
      Cm = -0.0765     CD =  0.01025   =>   CDf =  0.00687    CDp =  0.00338

 Side 1  free  transition at x/c =  0.7278   59
 Side 2  free  transition at x/c =  0.1976   35

   5   rms: 0.1827E+01   max: -.3979E+02   C at   35  2   RLX: 0.013
       a = -4.000      CL = -0.1055
      Cm = -0.0766     CD =  0.00990   =>   CDf =  0.00675    CDp =  0.00315

 Side 1  free  transition at x/c =  0.7280   59
 Side 2  free  transition at x/c =  0.2168   37

   6   rms: 0.2215E+01   max: -.4942E+02   C at   37  2   RLX: 0.010
       a = -4.000      CL = -0.1061
      Cm = -0.0766     CD =  0.00975   =>   CDf =  0.00667    CDp =  0.00307

 Side 1  free  transition at x/c =  0.7282   59
 Side 2  free  transition at x/c =  0.2235   37

   7   rms: 0.1465E+01   max: -.3293E+02   C at   37  2   RLX: 0.015
       a = -4.000      CL = -0.1062
      Cm = -0.0766     CD =  0.00971   =>   CDf =  0.00664    CDp =  0.00307

 Side 1  free  transition at x/c =  0.7285   59
 Side 2  free  transition at x/c =  0.2260   37

   8   rms: 0.8490E+00   max: -.1884E+02   C at   37  2   RLX: 0.027
       a = -4.000      CL = -0.1063
      Cm = -0.0766     CD =  0.00968   =>   CDf =  0.00662    CDp =  0.00305

 Side 1  free  transition at x/c =  0.7289   59
 Side 2  free  transition at x/c =  0.2424   38

   9   rms: 0.7972E+00   max: -.1760E+02   C at   38  2   RLX: 0.028
       a = -4.000      CL = -0.1069
      Cm = -0.0766     CD =  0.00955   =>   CDf =  0.00655    CDp =  0.00301

 Side 1  free  transition at x/c =  0.7294   59
 Side 2  free  transition at x/c =  0.2614   39

  10   rms: 0.9172E+00   max: -.1996E+02   C at   39  2   RLX: 0.025
       a = -4.000      CL = -0.1076
      Cm = -0.0766     CD =  0.00943   =>   CDf =  0.00646    CDp =  0.00296

 Side 1  free  transition at x/c =  0.7298   59
 Side 2  free  transition at x/c =  0.2765   40

  11   rms: 0.8037E+00   max: -.1742E+02   C at   40  2   RLX: 0.029
       a = -4.000      CL = -0.1081
      Cm = -0.0766     CD =  0.00931   =>   CDf =  0.00639    CDp =  0.00292

 Side 1  free  transition at x/c =  0.7302   59
 Side 2  free  transition at x/c =  0.2923   41

  12   rms: 0.7024E+00   max: -.1513E+02   C at   41  2   RLX: 0.033
       a = -4.000      CL = -0.1088
      Cm = -0.0765     CD =  0.00919   =>   CDf =  0.00632    CDp =  0.00287

 Side 1  free  transition at x/c =  0.7308   59
 Side 2  free  transition at x/c =  0.3084   42

  13   rms: 0.5961E+00   max: -.1270E+02   C at   42  2   RLX: 0.039
       a = -4.000      CL = -0.1094
      Cm = -0.0765     CD =  0.00907   =>   CDf =  0.00625    CDp =  0.00282

 Side 1  free  transition at x/c =  0.7314   59
 Side 2  free  transition at x/c =  0.3252   43

  14   rms: 0.4983E+00   max: -.1051E+02   C at   43  2   RLX: 0.048
       a = -4.000      CL = -0.1101
      Cm = -0.0764     CD =  0.00894   =>   CDf =  0.00617    CDp =  0.00278

 Side 1  free  transition at x/c =  0.7321   59
 Side 2  free  transition at x/c =  0.3432   44

  15   rms: 0.4327E+00   max: -.9018E+01   C at   44  2   RLX: 0.055
       a = -4.000      CL = -0.1109
      Cm = -0.0764     CD =  0.00881   =>   CDf =  0.00608    CDp =  0.00273

 Side 1  free  transition at x/c =  0.7330   59
 Side 2  free  transition at x/c =  0.3649   46

  16   rms: 0.5453E+00   max: -.1127E+02   C at   46  2   RLX: 0.044
       a = -4.000      CL = -0.1118
      Cm = -0.0763     CD =  0.00865   =>   CDf =  0.00597    CDp =  0.00268

 Side 1  free  transition at x/c =  0.7337   59
 Side 2  free  transition at x/c =  0.3776   46

  17   rms: 0.5344E+00   max: -.1086E+02   C at   46  2   RLX: 0.046
       a = -4.000      CL = -0.1120
      Cm = -0.0763     CD =  0.00859   =>   CDf =  0.00590    CDp =  0.00269

 Side 1  free  transition at x/c =  0.7344   59
 Side 2  free  transition at x/c =  0.3921   47

  18   rms: 0.4793E+00   max: -.9697E+01   C at   47  2   RLX: 0.052
       a = -4.000      CL = -0.1125
      Cm = -0.0763     CD =  0.00850   =>   CDf =  0.00583    CDp =  0.00267

 Side 1  free  transition at x/c =  0.7351   59
 Side 2  free  transition at x/c =  0.4071   48

  19   rms: 0.3152E+00   max: -.6363E+01   C at   48  2   RLX: 0.079
       a = -4.000      CL = -0.1131
      Cm = -0.0762     CD =  0.00842   =>   CDf =  0.00576    CDp =  0.00266

 Side 1  free  transition at x/c =  0.7362   59
 Side 2  free  transition at x/c =  0.4245   49

  20   rms: 0.9189E-01   max: -.1604E+01   C at   49  2   RLX: 0.312
       a = -4.000      CL = -0.1148
      Cm = -0.0759     CD =  0.00831   =>   CDf =  0.00569    CDp =  0.00262

 Side 1  free  transition at x/c =  0.7405   59
 Side 2  free  transition at x/c =  0.4704   52

  21   rms: 0.3225E-01   max: -.1913E+00   T at   59  1
       a = -4.000      CL = -0.1183
      Cm = -0.0750     CD =  0.00819   =>   CDf =  0.00553    CDp =  0.00265

 Side 1  free  transition at x/c =  0.7538   60
 Side 2  free  transition at x/c =  0.4723   52

  22   rms: 0.1782E-01   max: -.2588E+00   C at   52  2
       a = -4.000      CL = -0.1187
      Cm = -0.0750     CD =  0.00810   =>   CDf =  0.00541    CDp =  0.00269

 Side 1  free  transition at x/c =  0.7513   60
 Side 2  free  transition at x/c =  0.4769   53

  23   rms: 0.5701E-02   max: 0.9557E-01   C at   53  2
       a = -4.000      CL = -0.1187
      Cm = -0.0750     CD =  0.00809   =>   CDf =  0.00534    CDp =  0.00275

 Side 1  free  transition at x/c =  0.7507   60
 Side 2  free  transition at x/c =  0.4748   53

  24   rms: 0.1353E-03   max: -.2324E-02   D at   55  2
       a = -4.000      CL = -0.1187
      Cm = -0.0750     CD =  0.00810   =>   CDf =  0.00537    CDp =  0.00273

 Side 1  free  transition at x/c =  0.7507   60
 Side 2  free  transition at x/c =  0.4748   53

  25   rms: 0.5663E-06   max: 0.4467E-05   D at   56  2
       a = -4.000      CL = -0.1187
      Cm = -0.0750     CD =  0.00810   =>   CDf =  0.00537    CDp =  0.00273
 plradd ia,ip,cpol            1           0  8.10736604E-03

 Point added to stored polar  1
 Point written to save file  n642415_Re500k.base.pol                         
 Dump file unspecified or not available
 Calculating wake trajectory ...
 Calculating source influence matrix ...

 Solving BL system ...

 Side 1  free  transition at x/c =  0.7507   60
 Side 2  free  transition at x/c =  0.4748   53

   1   rms: 0.1349E+00   max: -.1461E+01   C at   53  2   RLX: 0.342
       a = -3.500      CL = -0.0998
      Cm = -0.0751     CD =  0.00797   =>   CDf =  0.00537    CDp =  0.00260

 Side 1  free  transition at x/c =  0.7461   60
 Side 2  free  transition at x/c =  0.4886   53

   2   rms: 0.6830E-01   max: 0.4868E+00   C at   53  2
       a = -3.500      CL = -0.0601
      Cm = -0.0755     CD =  0.00829   =>   CDf =  0.00553    CDp =  0.00276

 MRCHDU: Convergence failed at  54  side 2    Res =  0.2032E+01
 MRCHDU: Convergence failed at  55  side 2    Res =  0.1433E+01
 MRCHDU: Convergence failed at  56  side 2    Res =  0.2057E+01
 MRCHDU: Convergence failed at  57  side 2    Res =  0.2551E+01
 MRCHDU: Convergence failed at  58  side 2    Res =  0.2775E+01
 MRCHDU: Convergence failed at  59  side 2    Res =  0.2828E+01
 MRCHDU: Convergence failed at  60  side 2    Res =  0.2811E+01
 MRCHDU: Convergence failed at  61  side 2    Res =  0.2777E+01
 MRCHDU: Convergence failed at  62  side 2    Res =  0.2802E+01
 MRCHDU: Convergence failed at  63  side 2    Res =  0.2237E+01
 MRCHDU: Convergence failed at  64  side 2    Res =  0.2183E+01
 MRCHDU: Convergence failed at  65  side 2    Res =  0.2156E+01
 MRCHDU: Convergence failed at  66  side 2    Res =  0.1563E+01
 MRCHDU: Convergence failed at  67  side 2    Res =  0.1754E+01
 MRCHDU: Convergence failed at  68  side 2    Res =  0.1967E+01
 MRCHDU: Convergence failed at  69  side 2    Res =  0.2206E+01
 MRCHDU: Convergence failed at  70  side 2    Res =  0.2486E+01
 MRCHDU: Convergence failed at  71  side 2    Res =  0.2868E+01
 MRCHDU: Convergence failed at  72  side 2    Res =  0.3299E+01
 MRCHDU: Convergence failed at  73  side 2    Res =  0.3739E+01
 MRCHDU: Convergence failed at  74  side 2    Res =  0.4186E+01
 MRCHDU: Convergence failed at  75  side 2    Res =  0.4666E+01
 MRCHDU: Convergence failed at  76  side 2    Res =  0.5320E+01
 MRCHDU: Convergence failed at  77  side 2    Res =  0.6248E+01
 MRCHDU: Convergence failed at  78  side 2    Res =  0.7481E+01
 MRCHDU: Convergence failed at  79  side 2    Res =  0.8820E+01
 MRCHDU: Convergence failed at  80  side 2    Res =  0.9678E+01
 MRCHDU: Convergence failed at  81  side 2    Res =  0.9819E+01
 MRCHDU: Convergence failed at  82  side 2    Res =  0.9270E+01
 MRCHDU: Convergence failed at  83  side 2    Res =  0.8151E+01
 MRCHDU: Convergence failed at  84  side 2    Res =  0.7056E+01
 MRCHDU: Convergence failed at  85  side 2    Res =  0.7676E+01
 Side 1  free  transition at x/c =  0.7394   60
 Side 2  free  transition at x/c =  0.6474   62

   3   rms: 0.3468E+00   max: 0.2267E+01   C at   62  2   RLX: 0.379
       a = -3.500      CL = -0.1894
      Cm = -0.0041     CD =  0.00544   =>   CDf =  0.00445    CDp =  0.00099

 Side 1  free  transition at x/c =  0.7389   60
 Side 2  free  transition at x/c =  0.5723   57

   4   rms: 0.1871E+00   max: 0.1037E+01   C at   57  2
       a = -3.500      CL = -0.0621
      Cm = -0.0757     CD =  0.00730   =>   CDf =  0.00593    CDp =  0.00137

 Side 1  free  transition at x/c =  0.7377   60
 Side 2  free  transition at x/c =  0.5306   55

   5   rms: 0.3317E-01   max: -.5324E+00   D at   56  2   RLX: 0.939
       a = -3.500      CL = -0.0619
      Cm = -0.0754     CD =  0.00794   =>   CDf =  0.00535    CDp =  0.00259

 Side 1  free  transition at x/c =  0.7378   60
 Side 2  free  transition at x/c =  0.5269   55

   6   rms: 0.6608E-02   max: -.1353E+00   D at   56  2
       a = -3.500      CL = -0.0616
      Cm = -0.0753     CD =  0.00801   =>   CDf =  0.00536    CDp =  0.00266

 Side 1  free  transition at x/c =  0.7378   60
 Side 2  free  transition at x/c =  0.5247   55

   7   rms: 0.6798E-03   max: -.1586E-01   D at   56  2
       a = -3.500      CL = -0.0616
      Cm = -0.0753     CD =  0.00802   =>   CDf =  0.00538    CDp =  0.00263

 Side 1  free  transition at x/c =  0.7378   60
 Side 2  free  transition at x/c =  0.5246   55

   8   rms: 0.8381E-05   max: -.1907E-03   D at   56  2
       a = -3.500      CL = -0.0616
      Cm = -0.0753     CD =  0.00802   =>   CDf =  0.00539    CDp =  0.00263
 plradd ia,ip,cpol            2           0  1.03819314E-02

 Point added to stored polar  1
 Point written to save file  n642415_Re500k.base.pol                         
 Dump file unspecified or not available
 Calculating wake trajectory ...
 Calculating source influence matrix ...

 Solving BL system ...

 Side 1  free  transition at x/c =  0.7378   60
 Side 2  free  transition at x/c =  0.5246   55

   1   rms: 0.9680E-01   max: 0.5583E+00   D at   56  2
       a = -3.000      CL = -0.0052
      Cm = -0.0755     CD =  0.00785   =>   CDf =  0.00539    CDp =  0.00247

 Side 1  free  transition at x/c =  0.7243   59
 Side 2  free  transition at x/c =  0.5399   56

   2   rms: 0.8682E-01   max: -.6867E+00   T at   56  2   RLX: 0.728
       a = -3.000      CL = -0.0044
      Cm = -0.0758     CD =  0.00783   =>   CDf =  0.00580    CDp =  0.00204

 Side 1  free  transition at x/c =  0.7252   59
 Side 2  free  transition at x/c =  0.5486   56

   3   rms: 0.3095E-01   max: -.4089E+00   D at   56  2
       a = -3.000      CL = -0.0040
      Cm = -0.0757     CD =  0.00802   =>   CDf =  0.00559    CDp =  0.00242

 Side 1  free  transition at x/c =  0.7254   59
 Side 2  free  transition at x/c =  0.5551   56

   4   rms: 0.7224E-02   max: 0.1059E+00   C at   56  2
       a = -3.000      CL = -0.0043
      Cm = -0.0756     CD =  0.00802   =>   CDf =  0.00544    CDp =  0.00258

 Side 1  free  transition at x/c =  0.7254   59
 Side 2  free  transition at x/c =  0.5522   56

   5   rms: 0.3287E-03   max: -.5367E-02   D at   58  2
       a = -3.000      CL = -0.0043
      Cm = -0.0756     CD =  0.00802   =>   CDf =  0.00547    CDp =  0.00256

 Side 1  free  transition at x/c =  0.7254   59
 Side 2  free  transition at x/c =  0.5521   56

   6   rms: 0.1655E-05   max: -.1186E-04   D at   58  2
       a = -3.000      CL = -0.0043
      Cm = -0.0756     CD =  0.00802   =>   CDf =  0.00547    CDp =  0.00256
 plradd ia,ip,cpol            3           0  1.03819314E-02

 Point added to stored polar  1
 Point written to save file  n642415_Re500k.base.pol                         
 Dump file unspecified or not available
 Calculating wake trajectory ...
 Calculating source influence matrix ...

 Solving BL system ...

 Side 1  free  transition at x/c =  0.7254   59
 Side 2  free  transition at x/c =  0.5521   56

   1   rms: 0.8506E-01   max: -.3034E+00   T at   56  2
       a = -2.500      CL =  0.0540
      Cm = -0.0761     CD =  0.00805   =>   CDf =  0.00549    CDp =  0.00256

 Side 1  free  transition at x/c =  0.7106   60
 Side 2  free  transition at x/c =  0.5788   57

   2   rms: 0.1577E-01   max: 0.1810E+00   D at   57  2
       a = -2.500      CL =  0.0531
      Cm = -0.0759     CD =  0.00804   =>   CDf =  0.00555    CDp =  0.00249

 Side 1  free  transition at x/c =  0.7130   60
 Side 2  free  transition at x/c =  0.5772   57

   3   rms: 0.1338E-02   max: -.1374E-01   D at   61  1
       a = -2.500      CL =  0.0532
      Cm = -0.0759     CD =  0.00805   =>   CDf =  0.00551    CDp =  0.00254

 Side 1  free  transition at x/c =  0.7127   60
 Side 2  free  transition at x/c =  0.5769   57

   4   rms: 0.1446E-04   max: -.2684E-03   D at   61  1
       a = -2.500      CL =  0.0532
      Cm = -0.0759     CD =  0.00806   =>   CDf =  0.00552    CDp =  0.00253
 plradd ia,ip,cpol            4           0  1.29924798E-02

 Point added to stored polar  1
 Point written to save file  n642415_Re500k.base.pol                         
 Dump file unspecified or not available
 Calculating wake trajectory ...
 Calculating source influence matrix ...

 Solving BL system ...

 Side 1  free  transition at x/c =  0.7127   60
 Side 2  free  transition at x/c =  0.5769   57

   1   rms: 0.9982E-01   max: 0.5865E+00   D at   58  2
       a = -2.000      CL =  0.1094
      Cm = -0.0758     CD =  0.00812   =>   CDf =  0.00554    CDp =  0.00258

 Side 1  free  transition at x/c =  0.7027   60
 Side 2  free  transition at x/c =  0.6043   57

   2   rms: 0.1626E-01   max: 0.2037E+00   D at   57  2
       a = -2.000      CL =  0.1105
      Cm = -0.0761     CD =  0.00818   =>   CDf =  0.00551    CDp =  0.00267

 Side 1  free  transition at x/c =  0.7004   60
 Side 2  free  transition at x/c =  0.6070   57

   3   rms: 0.1187E-02   max: -.1694E-01   D at   58  2
       a = -2.000      CL =  0.1106
      Cm = -0.0761     CD =  0.00821   =>   CDf =  0.00556    CDp =  0.00265

 Side 1  free  transition at x/c =  0.7005   60
 Side 2  free  transition at x/c =  0.6069   57

   4   rms: 0.5864E-02   max: -.7431E-01   D at   57  2
       a = -2.000      CL =  0.1106
      Cm = -0.0761     CD =  0.00821   =>   CDf =  0.00558    CDp =  0.00263

 Side 1  free  transition at x/c =  0.7005   60
 Side 2  free  transition at x/c =  0.6070   57

   5   rms: 0.5593E-02   max: -.7106E-01   D at   57  2
       a = -2.000      CL =  0.1106
      Cm = -0.0761     CD =  0.00821   =>   CDf =  0.00558    CDp =  0.00263

 Side 1  free  transition at x/c =  0.7005   60
 Side 2  free  transition at x/c =  0.6070   57

   6   rms: 0.5610E-02   max: -.7128E-01   D at   57  2
       a = -2.000      CL =  0.1106
      Cm = -0.0761     CD =  0.00821   =>   CDf =  0.00558    CDp =  0.00263

 Side 1  free  transition at x/c =  0.7005   60
 Side 2  free  transition at x/c =  0.6070   57

   7   rms: 0.5609E-02   max: -.7127E-01   D at   57  2
       a = -2.000      CL =  0.1106
      Cm = -0.0761     CD =  0.00821   =>   CDf =  0.00558    CDp =  0.00263

 Side 1  free  transition at x/c =  0.7005   60
 Side 2  free  transition at x/c =  0.6070   57

   8   rms: 0.5609E-02   max: -.7127E-01   D at   57  2
       a = -2.000      CL =  0.1106
      Cm = -0.0761     CD =  0.00821   =>   CDf =  0.00558    CDp =  0.00263

 Side 1  free  transition at x/c =  0.7005   60
 Side 2  free  transition at x/c =  0.6070   57

   9   rms: 0.5610E-02   max: -.7128E-01   D at   57  2
       a = -2.000      CL =  0.1106
      Cm = -0.0761     CD =  0.00821   =>   CDf =  0.00558    CDp =  0.00263

 Side 1  free  transition at x/c =  0.7005   60
 Side 2  free  transition at x/c =  0.6070   57

  10   rms: 0.5609E-02   max: -.7127E-01   D at   57  2
       a = -2.000      CL =  0.1106
      Cm = -0.0761     CD =  0.00821   =>   CDf =  0.00558    CDp =  0.00263

 Side 1  free  transition at x/c =  0.7005   60
 Side 2  free  transition at x/c =  0.6070   57

  11   rms: 0.5609E-02   max: -.7128E-01   D at   57  2
       a = -2.000      CL =  0.1106
      Cm = -0.0761     CD =  0.00821   =>   CDf =  0.00558    CDp =  0.00263

 Side 1  free  transition at x/c =  0.7005   60
 Side 2  free  transition at x/c =  0.6070   57

  12   rms: 0.5609E-02   max: -.7128E-01   D at   57  2
       a = -2.000      CL =  0.1106
      Cm = -0.0761     CD =  0.00821   =>   CDf =  0.00558    CDp =  0.00263

 Side 1  free  transition at x/c =  0.7005   60
 Side 2  free  transition at x/c =  0.6070   57

  13   rms: 0.5609E-02   max: -.7127E-01   D at   57  2
       a = -2.000      CL =  0.1106
      Cm = -0.0761     CD =  0.00821   =>   CDf =  0.00558    CDp =  0.00263

 Side 1  free  transition at x/c =  0.7005   60
 Side 2  free  transition at x/c =  0.6070   57

  14   rms: 0.5609E-02   max: -.7127E-01   D at   57  2
       a = -2.000      CL =  0.1106
      Cm = -0.0761     CD =  0.00821   =>   CDf =  0.00558    CDp =  0.00263

 Side 1  free  transition at x/c =  0.7005   60
 Side 2  free  transition at x/c =  0.6070   57

  15   rms: 0.5609E-02   max: -.7128E-01   D at   57  2
       a = -2.000      CL =  0.1106
      Cm = -0.0761     CD =  0.00821   =>   CDf =  0.00558    CDp =  0.00263

 Side 1  free  transition at x/c =  0.7005   60
 Side 2  free  transition at x/c =  0.6070   57

  16   rms: 0.5609E-02   max: -.7127E-01   D at   57  2
       a = -2.000      CL =  0.1106
      Cm = -0.0761     CD =  0.00821   =>   CDf =  0.00558    CDp =  0.00263

 Side 1  free  transition at x/c =  0.7005   60
 Side 2  free  transition at x/c =  0.6070   57

  17   rms: 0.5609E-02   max: -.7127E-01   D at   57  2
       a = -2.000      CL =  0.1106
      Cm = -0.0761     CD =  0.00821   =>   CDf =  0.00558    CDp =  0.00263

 Side 1  free  transition at x/c =  0.7005   60
 Side 2  free  transition at x/c =  0.6070   57

  18   rms: 0.5609E-02   max: -.7127E-01   D at   57  2
       a = -2.000      CL =  0.1106
      Cm = -0.0761     CD =  0.00821   =>   CDf =  0.00558    CDp =  0.00263

 Side 1  free  transition at x/c =  0.7005   60
 Side 2  free  transition at x/c =  0.6070   57

  19   rms: 0.5609E-02   max: -.7128E-01   D at   57  2
       a = -2.000      CL =  0.1106
      Cm = -0.0761     CD =  0.00821   =>   CDf =  0.00558    CDp =  0.00263

 Side 1  free  transition at x/c =  0.7005   60
 Side 2  free  transition at x/c =  0.6070   57

  20   rms: 0.5609E-02   max: -.7127E-01   D at   57  2
       a = -2.000      CL =  0.1106
      Cm = -0.0761     CD =  0.00821   =>   CDf =  0.00558    CDp =  0.00263

 Side 1  free  transition at x/c =  0.7005   60
 Side 2  free  transition at x/c =  0.6070   57

  21   rms: 0.5609E-02   max: -.7128E-01   D at   57  2
       a = -2.000      CL =  0.1106
      Cm = -0.0761     CD =  0.00821   =>   CDf =  0.00558    CDp =  0.00263

 Side 1  free  transition at x/c =  0.7005   60
 Side 2  free  transition at x/c =  0.6070   57

  22   rms: 0.5609E-02   max: -.7127E-01   D at   57  2
       a = -2.000      CL =  0.1106
      Cm = -0.0761     CD =  0.00821   =>   CDf =  0.00558    CDp =  0.00263

 Side 1  free  transition at x/c =  0.7005   60
 Side 2  free  transition at x/c =  0.6070   57

  23   rms: 0.5609E-02   max: -.7128E-01   D at   57  2
       a = -2.000      CL =  0.1106
      Cm = -0.0761     CD =  0.00821   =>   CDf =  0.00558    CDp =  0.00263

 Side 1  free  transition at x/c =  0.7005   60
 Side 2  free  transition at x/c =  0.6070   57

  24   rms: 0.5609E-02   max: -.7127E-01   D at   57  2
       a = -2.000      CL =  0.1106
      Cm = -0.0761     CD =  0.00821   =>   CDf =  0.00558    CDp =  0.00263

 Side 1  free  transition at x/c =  0.7005   60
 Side 2  free  transition at x/c =  0.6070   57

  25   rms: 0.5608E-02   max: -.7127E-01   D at   57  2
       a = -2.000      CL =  0.1106
      Cm = -0.0761     CD =  0.00821   =>   CDf =  0.00558    CDp =  0.00263

 Side 1  free  transition at x/c =  0.7005   60
 Side 2  free  transition at x/c =  0.6070   57

  26   rms: 0.5609E-02   max: -.7127E-01   D at   57  2
       a = -2.000      CL =  0.1106
      Cm = -0.0761     CD =  0.00821   =>   CDf =  0.00558    CDp =  0.00263

 Side 1  free  transition at x/c =  0.7005   60
 Side 2  free  transition at x/c =  0.6070   57

  27   rms: 0.5609E-02   max: -.7128E-01   D at   57  2
       a = -2.000      CL =  0.1106
      Cm = -0.0761     CD =  0.00821   =>   CDf =  0.00558    CDp =  0.00263

 Side 1  free  transition at x/c =  0.7005   60
 Side 2  free  transition at x/c =  0.6070   57

  28   rms: 0.5609E-02   max: -.7128E-01   D at   57  2
       a = -2.000      CL =  0.1106
      Cm = -0.0761     CD =  0.00821   =>   CDf =  0.00558    CDp =  0.00263

 Side 1  free  transition at x/c =  0.7005   60
 Side 2  free  transition at x/c =  0.6070   57

  29   rms: 0.5609E-02   max: -.7127E-01   D at   57  2
       a = -2.000      CL =  0.1106
      Cm = -0.0761     CD =  0.00821   =>   CDf =  0.00558    CDp =  0.00263

 Side 1  free  transition at x/c =  0.7005   60
 Side 2  free  transition at x/c =  0.6070   57

  30   rms: 0.5609E-02   max: -.7127E-01   D at   57  2
       a = -2.000      CL =  0.1106
      Cm = -0.0761     CD =  0.00821   =>   CDf =  0.00558    CDp =  0.00263

 Side 1  free  transition at x/c =  0.7005   60
 Side 2  free  transition at x/c =  0.6070   57

  31   rms: 0.5609E-02   max: -.7127E-01   D at   57  2
       a = -2.000      CL =  0.1106
      Cm = -0.0761     CD =  0.00821   =>   CDf =  0.00558    CDp =  0.00263

 Side 1  free  transition at x/c =  0.7005   60
 Side 2  free  transition at x/c =  0.6070   57

  32   rms: 0.5609E-02   max: -.7127E-01   D at   57  2
       a = -2.000      CL =  0.1106
      Cm = -0.0761     CD =  0.00821   =>   CDf =  0.00558    CDp =  0.00263

 Side 1  free  transition at x/c =  0.7005   60
 Side 2  free  transition at x/c =  0.6070   57

  33   rms: 0.5609E-02   max: -.7127E-01   D at   57  2
       a = -2.000      CL =  0.1106
      Cm = -0.0761     CD =  0.00821   =>   CDf =  0.00558    CDp =  0.00263

 Side 1  free  transition at x/c =  0.7005   60
 Side 2  free  transition at x/c =  0.6070   57

  34   rms: 0.5609E-02   max: -.7127E-01   D at   57  2
       a = -2.000      CL =  0.1106
      Cm = -0.0761     CD =  0.00821   =>   CDf =  0.00558    CDp =  0.00263

 Side 1  free  transition at x/c =  0.7005   60
 Side 2  free  transition at x/c =  0.6070   57

  35   rms: 0.5609E-02   max: -.7128E-01   D at   57  2
       a = -2.000      CL =  0.1106
      Cm = -0.0761     CD =  0.00821   =>   CDf =  0.00558    CDp =  0.00263

 Side 1  free  transition at x/c =  0.7005   60
 Side 2  free  transition at x/c =  0.6070   57

  36   rms: 0.5609E-02   max: -.7128E-01   D at   57  2
       a = -2.000      CL =  0.1106
      Cm = -0.0761     CD =  0.00821   =>   CDf =  0.00558    CDp =  0.00263

 Side 1  free  transition at x/c =  0.7005   60
 Side 2  free  transition at x/c =  0.6070   57

  37   rms: 0.5609E-02   max: -.7127E-01   D at   57  2
       a = -2.000      CL =  0.1106
      Cm = -0.0761     CD =  0.00821   =>   CDf =  0.00558    CDp =  0.00263

 Side 1  free  transition at x/c =  0.7005   60
 Side 2  free  transition at x/c =  0.6070   57

  38   rms: 0.5609E-02   max: -.7127E-01   D at   57  2
       a = -2.000      CL =  0.1106
      Cm = -0.0761     CD =  0.00821   =>   CDf =  0.00558    CDp =  0.00263

 Side 1  free  transition at x/c =  0.7005   60
 Side 2  free  transition at x/c =  0.6070   57

  39   rms: 0.5609E-02   max: -.7128E-01   D at   57  2
       a = -2.000      CL =  0.1106
      Cm = -0.0761     CD =  0.00821   =>   CDf =  0.00558    CDp =  0.00263

 Side 1  free  transition at x/c =  0.7005   60
 Side 2  free  transition at x/c =  0.6070   57

  40   rms: 0.5609E-02   max: -.7128E-01   D at   57  2
       a = -2.000      CL =  0.1106
      Cm = -0.0761     CD =  0.00821   =>   CDf =  0.00558    CDp =  0.00263

 Side 1  free  transition at x/c =  0.7005   60
 Side 2  free  transition at x/c =  0.6070   57

  41   rms: 0.5609E-02   max: -.7128E-01   D at   57  2
       a = -2.000      CL =  0.1106
      Cm = -0.0761     CD =  0.00821   =>   CDf =  0.00558    CDp =  0.00263

 Side 1  free  transition at x/c =  0.7005   60
 Side 2  free  transition at x/c =  0.6070   57

  42   rms: 0.5609E-02   max: -.7127E-01   D at   57  2
       a = -2.000      CL =  0.1106
      Cm = -0.0761     CD =  0.00821   =>   CDf =  0.00558    CDp =  0.00263

 Side 1  free  transition at x/c =  0.7005   60
 Side 2  free  transition at x/c =  0.6070   57

  43   rms: 0.5609E-02   max: -.7127E-01   D at   57  2
       a = -2.000      CL =  0.1106
      Cm = -0.0761     CD =  0.00821   =>   CDf =  0.00558    CDp =  0.00263

 Side 1  free  transition at x/c =  0.7005   60
 Side 2  free  transition at x/c =  0.6070   57

  44   rms: 0.5609E-02   max: -.7127E-01   D at   57  2
       a = -2.000      CL =  0.1106
      Cm = -0.0761     CD =  0.00821   =>   CDf =  0.00558    CDp =  0.00263

 Side 1  free  transition at x/c =  0.7005   60
 Side 2  free  transition at x/c =  0.6070   57

  45   rms: 0.5610E-02   max: -.7128E-01   D at   57  2
       a = -2.000      CL =  0.1106
      Cm = -0.0761     CD =  0.00821   =>   CDf =  0.00558    CDp =  0.00263

 Side 1  free  transition at x/c =  0.7005   60
 Side 2  free  transition at x/c =  0.6070   57

  46   rms: 0.5609E-02   max: -.7127E-01   D at   57  2
       a = -2.000      CL =  0.1106
      Cm = -0.0761     CD =  0.00821   =>   CDf =  0.00558    CDp =  0.00263

 Side 1  free  transition at x/c =  0.7005   60
 Side 2  free  transition at x/c =  0.6070   57

  47   rms: 0.5609E-02   max: -.7128E-01   D at   57  2
       a = -2.000      CL =  0.1106
      Cm = -0.0761     CD =  0.00821   =>   CDf =  0.00558    CDp =  0.00263

 Side 1  free  transition at x/c =  0.7005   60
 Side 2  free  transition at x/c =  0.6070   57

  48   rms: 0.5609E-02   max: -.7127E-01   D at   57  2
       a = -2.000      CL =  0.1106
      Cm = -0.0761     CD =  0.00821   =>   CDf =  0.00558    CDp =  0.00263

 Side 1  free  transition at x/c =  0.7005   60
 Side 2  free  transition at x/c =  0.6070   57

  49   rms: 0.5609E-02   max: -.7128E-01   D at   57  2
       a = -2.000      CL =  0.1106
      Cm = -0.0761     CD =  0.00821   =>   CDf =  0.00558    CDp =  0.00263

 Side 1  free  transition at x/c =  0.7005   60
 Side 2  free  transition at x/c =  0.6070   57

  50   rms: 0.5609E-02   max: -.7127E-01   D at   57  2
       a = -2.000      CL =  0.1106
      Cm = -0.0761     CD =  0.00821   =>   CDf =  0.00558    CDp =  0.00263

 Side 1  free  transition at x/c =  0.7005   60
 Side 2  free  transition at x/c =  0.6070   57

  51   rms: 0.5609E-02   max: -.7128E-01   D at   57  2
       a = -2.000      CL =  0.1106
      Cm = -0.0761     CD =  0.00821   =>   CDf =  0.00558    CDp =  0.00263

 Side 1  free  transition at x/c =  0.7005   60
 Side 2  free  transition at x/c =  0.6070   57

  52   rms: 0.5609E-02   max: -.7128E-01   D at   57  2
       a = -2.000      CL =  0.1106
      Cm = -0.0761     CD =  0.00821   =>   CDf =  0.00558    CDp =  0.00263

 Side 1  free  transition at x/c =  0.7005   60
 Side 2  free  transition at x/c =  0.6070   57

  53   rms: 0.5609E-02   max: -.7127E-01   D at   57  2
       a = -2.000      CL =  0.1106
      Cm = -0.0761     CD =  0.00821   =>   CDf =  0.00558    CDp =  0.00263

 Side 1  free  transition at x/c =  0.7005   60
 Side 2  free  transition at x/c =  0.6070   57

  54   rms: 0.5609E-02   max: -.7127E-01   D at   57  2
       a = -2.000      CL =  0.1106
      Cm = -0.0761     CD =  0.00821   =>   CDf =  0.00558    CDp =  0.00263

 Side 1  free  transition at x/c =  0.7005   60
 Side 2  free  transition at x/c =  0.6070   57

  55   rms: 0.5609E-02   max: -.7128E-01   D at   57  2
       a = -2.000      CL =  0.1106
      Cm = -0.0761     CD =  0.00821   =>   CDf =  0.00558    CDp =  0.00263

 Side 1  free  transition at x/c =  0.7005   60
 Side 2  free  transition at x/c =  0.6070   57

  56   rms: 0.5609E-02   max: -.7127E-01   D at   57  2
       a = -2.000      CL =  0.1106
      Cm = -0.0761     CD =  0.00821   =>   CDf =  0.00558    CDp =  0.00263

 Side 1  free  transition at x/c =  0.7005   60
 Side 2  free  transition at x/c =  0.6070   57

  57   rms: 0.5609E-02   max: -.7128E-01   D at   57  2
       a = -2.000      CL =  0.1106
      Cm = -0.0761     CD =  0.00821   =>   CDf =  0.00558    CDp =  0.00263

 Side 1  free  transition at x/c =  0.7005   60
 Side 2  free  transition at x/c =  0.6070   57

  58   rms: 0.5609E-02   max: -.7127E-01   D at   57  2
       a = -2.000      CL =  0.1106
      Cm = -0.0761     CD =  0.00821   =>   CDf =  0.00558    CDp =  0.00263

 Side 1  free  transition at x/c =  0.7005   60
 Side 2  free  transition at x/c =  0.6070   57

  59   rms: 0.5609E-02   max: -.7127E-01   D at   57  2
       a = -2.000      CL =  0.1106
      Cm = -0.0761     CD =  0.00821   =>   CDf =  0.00558    CDp =  0.00263

 Side 1  free  transition at x/c =  0.7005   60
 Side 2  free  transition at x/c =  0.6070   57

  60   rms: 0.5609E-02   max: -.7127E-01   D at   57  2
       a = -2.000      CL =  0.1106
      Cm = -0.0761     CD =  0.00821   =>   CDf =  0.00558    CDp =  0.00263

 Side 1  free  transition at x/c =  0.7005   60
 Side 2  free  transition at x/c =  0.6070   57

  61   rms: 0.5609E-02   max: -.7128E-01   D at   57  2
       a = -2.000      CL =  0.1106
      Cm = -0.0761     CD =  0.00821   =>   CDf =  0.00558    CDp =  0.00263

 Side 1  free  transition at x/c =  0.7005   60
 Side 2  free  transition at x/c =  0.6070   57

  62   rms: 0.5609E-02   max: -.7127E-01   D at   57  2
       a = -2.000      CL =  0.1106
      Cm = -0.0761     CD =  0.00821   =>   CDf =  0.00558    CDp =  0.00263

 Side 1  free  transition at x/c =  0.7005   60
 Side 2  free  transition at x/c =  0.6070   57

  63   rms: 0.5609E-02   max: -.7128E-01   D at   57  2
       a = -2.000      CL =  0.1106
      Cm = -0.0761     CD =  0.00821   =>   CDf =  0.00558    CDp =  0.00263

 Side 1  free  transition at x/c =  0.7005   60
 Side 2  free  transition at x/c =  0.6070   57

  64   rms: 0.5609E-02   max: -.7127E-01   D at   57  2
       a = -2.000      CL =  0.1106
      Cm = -0.0761     CD =  0.00821   =>   CDf =  0.00558    CDp =  0.00263

 Side 1  free  transition at x/c =  0.7005   60
 Side 2  free  transition at x/c =  0.6070   57

  65   rms: 0.5609E-02   max: -.7128E-01   D at   57  2
       a = -2.000      CL =  0.1106
      Cm = -0.0761     CD =  0.00821   =>   CDf =  0.00558    CDp =  0.00263

 Side 1  free  transition at x/c =  0.7005   60
 Side 2  free  transition at x/c =  0.6070   57

  66   rms: 0.5609E-02   max: -.7128E-01   D at   57  2
       a = -2.000      CL =  0.1106
      Cm = -0.0761     CD =  0.00821   =>   CDf =  0.00558    CDp =  0.00263

 Side 1  free  transition at x/c =  0.7005   60
 Side 2  free  transition at x/c =  0.6070   57

  67   rms: 0.5609E-02   max: -.7128E-01   D at   57  2
       a = -2.000      CL =  0.1106
      Cm = -0.0761     CD =  0.00821   =>   CDf =  0.00558    CDp =  0.00263

 Side 1  free  transition at x/c =  0.7005   60
 Side 2  free  transition at x/c =  0.6070   57

  68   rms: 0.5609E-02   max: -.7127E-01   D at   57  2
       a = -2.000      CL =  0.1106
      Cm = -0.0761     CD =  0.00821   =>   CDf =  0.00558    CDp =  0.00263

 Side 1  free  transition at x/c =  0.7005   60
 Side 2  free  transition at x/c =  0.6070   57

  69   rms: 0.5609E-02   max: -.7127E-01   D at   57  2
       a = -2.000      CL =  0.1106
      Cm = -0.0761     CD =  0.00821   =>   CDf =  0.00558    CDp =  0.00263

 Side 1  free  transition at x/c =  0.7005   60
 Side 2  free  transition at x/c =  0.6070   57

  70   rms: 0.5609E-02   max: -.7128E-01   D at   57  2
       a = -2.000      CL =  0.1106
      Cm = -0.0761     CD =  0.00821   =>   CDf =  0.00558    CDp =  0.00263

 Side 1  free  transition at x/c =  0.7005   60
 Side 2  free  transition at x/c =  0.6070   57

  71   rms: 0.5609E-02   max: -.7127E-01   D at   57  2
       a = -2.000      CL =  0.1106
      Cm = -0.0761     CD =  0.00821   =>   CDf =  0.00558    CDp =  0.00263

 Side 1  free  transition at x/c =  0.7005   60
 Side 2  free  transition at x/c =  0.6070   57

  72   rms: 0.5609E-02   max: -.7128E-01   D at   57  2
       a = -2.000      CL =  0.1106
      Cm = -0.0761     CD =  0.00821   =>   CDf =  0.00558    CDp =  0.00263

 Side 1  free  transition at x/c =  0.7005   60
 Side 2  free  transition at x/c =  0.6070   57

  73   rms: 0.5609E-02   max: -.7127E-01   D at   57  2
       a = -2.000      CL =  0.1106
      Cm = -0.0761     CD =  0.00821   =>   CDf =  0.00558    CDp =  0.00263

 Side 1  free  transition at x/c =  0.7005   60
 Side 2  free  transition at x/c =  0.6070   57

  74   rms: 0.5609E-02   max: -.7127E-01   D at   57  2
       a = -2.000      CL =  0.1106
      Cm = -0.0761     CD =  0.00821   =>   CDf =  0.00558    CDp =  0.00263

 Side 1  free  transition at x/c =  0.7005   60
 Side 2  free  transition at x/c =  0.6070   57

  75   rms: 0.5609E-02   max: -.7128E-01   D at   57  2
       a = -2.000      CL =  0.1106
      Cm = -0.0761     CD =  0.00821   =>   CDf =  0.00558    CDp =  0.00263

 Side 1  free  transition at x/c =  0.7005   60
 Side 2  free  transition at x/c =  0.6070   57

  76   rms: 0.5609E-02   max: -.7127E-01   D at   57  2
       a = -2.000      CL =  0.1106
      Cm = -0.0761     CD =  0.00821   =>   CDf =  0.00558    CDp =  0.00263

 Side 1  free  transition at x/c =  0.7005   60
 Side 2  free  transition at x/c =  0.6070   57

  77   rms: 0.5610E-02   max: -.7128E-01   D at   57  2
       a = -2.000      CL =  0.1106
      Cm = -0.0761     CD =  0.00821   =>   CDf =  0.00558    CDp =  0.00263

 Side 1  free  transition at x/c =  0.7005   60
 Side 2  free  transition at x/c =  0.6070   57

  78   rms: 0.5609E-02   max: -.7128E-01   D at   57  2
       a = -2.000      CL =  0.1106
      Cm = -0.0761     CD =  0.00821   =>   CDf =  0.00558    CDp =  0.00263

 Side 1  free  transition at x/c =  0.7005   60
 Side 2  free  transition at x/c =  0.6070   57

  79   rms: 0.5609E-02   max: -.7127E-01   D at   57  2
       a = -2.000      CL =  0.1106
      Cm = -0.0761     CD =  0.00821   =>   CDf =  0.00558    CDp =  0.00263

 Side 1  free  transition at x/c =  0.7005   60
 Side 2  free  transition at x/c =  0.6070   57

  80   rms: 0.5609E-02   max: -.7127E-01   D at   57  2
       a = -2.000      CL =  0.1106
      Cm = -0.0761     CD =  0.00821   =>   CDf =  0.00558    CDp =  0.00263

 Side 1  free  transition at x/c =  0.7005   60
 Side 2  free  transition at x/c =  0.6070   57

  81   rms: 0.5609E-02   max: -.7127E-01   D at   57  2
       a = -2.000      CL =  0.1106
      Cm = -0.0761     CD =  0.00821   =>   CDf =  0.00558    CDp =  0.00263

 Side 1  free  transition at x/c =  0.7005   60
 Side 2  free  transition at x/c =  0.6070   57

  82   rms: 0.5609E-02   max: -.7127E-01   D at   57  2
       a = -2.000      CL =  0.1106
      Cm = -0.0761     CD =  0.00821   =>   CDf =  0.00558    CDp =  0.00263

 Side 1  free  transition at x/c =  0.7005   60
 Side 2  free  transition at x/c =  0.6070   57

  83   rms: 0.5609E-02   max: -.7127E-01   D at   57  2
       a = -2.000      CL =  0.1106
      Cm = -0.0761     CD =  0.00821   =>   CDf =  0.00558    CDp =  0.00263

 Side 1  free  transition at x/c =  0.7005   60
 Side 2  free  transition at x/c =  0.6070   57

  84   rms: 0.5609E-02   max: -.7127E-01   D at   57  2
       a = -2.000      CL =  0.1106
      Cm = -0.0761     CD =  0.00821   =>   CDf =  0.00558    CDp =  0.00263

 Side 1  free  transition at x/c =  0.7005   60
 Side 2  free  transition at x/c =  0.6070   57

  85   rms: 0.5609E-02   max: -.7128E-01   D at   57  2
       a = -2.000      CL =  0.1106
      Cm = -0.0761     CD =  0.00821   =>   CDf =  0.00558    CDp =  0.00263

 Side 1  free  transition at x/c =  0.7005   60
 Side 2  free  transition at x/c =  0.6070   57

  86   rms: 0.5609E-02   max: -.7127E-01   D at   57  2
       a = -2.000      CL =  0.1106
      Cm = -0.0761     CD =  0.00821   =>   CDf =  0.00558    CDp =  0.00263

 Side 1  free  transition at x/c =  0.7005   60
 Side 2  free  transition at x/c =  0.6070   57

  87   rms: 0.5609E-02   max: -.7127E-01   D at   57  2
       a = -2.000      CL =  0.1106
      Cm = -0.0761     CD =  0.00821   =>   CDf =  0.00558    CDp =  0.00263

 Side 1  free  transition at x/c =  0.7005   60
 Side 2  free  transition at x/c =  0.6070   57

  88   rms: 0.5609E-02   max: -.7127E-01   D at   57  2
       a = -2.000      CL =  0.1106
      Cm = -0.0761     CD =  0.00821   =>   CDf =  0.00558    CDp =  0.00263

 Side 1  free  transition at x/c =  0.7005   60
 Side 2  free  transition at x/c =  0.6070   57

  89   rms: 0.5610E-02   max: -.7128E-01   D at   57  2
       a = -2.000      CL =  0.1106
      Cm = -0.0761     CD =  0.00821   =>   CDf =  0.00558    CDp =  0.00263

 Side 1  free  transition at x/c =  0.7005   60
 Side 2  free  transition at x/c =  0.6070   57

  90   rms: 0.5609E-02   max: -.7128E-01   D at   57  2
       a = -2.000      CL =  0.1106
      Cm = -0.0761     CD =  0.00821   =>   CDf =  0.00558    CDp =  0.00263

 Side 1  free  transition at x/c =  0.7005   60
 Side 2  free  transition at x/c =  0.6070   57

  91   rms: 0.5609E-02   max: -.7127E-01   D at   57  2
       a = -2.000      CL =  0.1106
      Cm = -0.0761     CD =  0.00821   =>   CDf =  0.00558    CDp =  0.00263

 Side 1  free  transition at x/c =  0.7005   60
 Side 2  free  transition at x/c =  0.6070   57

  92   rms: 0.5609E-02   max: -.7127E-01   D at   57  2
       a = -2.000      CL =  0.1106
      Cm = -0.0761     CD =  0.00821   =>   CDf =  0.00558    CDp =  0.00263

 Side 1  free  transition at x/c =  0.7005   60
 Side 2  free  transition at x/c =  0.6070   57

  93   rms: 0.5609E-02   max: -.7128E-01   D at   57  2
       a = -2.000      CL =  0.1106
      Cm = -0.0761     CD =  0.00821   =>   CDf =  0.00558    CDp =  0.00263

 Side 1  free  transition at x/c =  0.7005   60
 Side 2  free  transition at x/c =  0.6070   57

  94   rms: 0.5609E-02   max: -.7127E-01   D at   57  2
       a = -2.000      CL =  0.1106
      Cm = -0.0761     CD =  0.00821   =>   CDf =  0.00558    CDp =  0.00263

 Side 1  free  transition at x/c =  0.7005   60
 Side 2  free  transition at x/c =  0.6070   57

  95   rms: 0.5609E-02   max: -.7128E-01   D at   57  2
       a = -2.000      CL =  0.1106
      Cm = -0.0761     CD =  0.00821   =>   CDf =  0.00558    CDp =  0.00263

 Side 1  free  transition at x/c =  0.7005   60
 Side 2  free  transition at x/c =  0.6070   57

  96   rms: 0.5609E-02   max: -.7127E-01   D at   57  2
       a = -2.000      CL =  0.1106
      Cm = -0.0761     CD =  0.00821   =>   CDf =  0.00558    CDp =  0.00263

 Side 1  free  transition at x/c =  0.7005   60
 Side 2  free  transition at x/c =  0.6070   57

  97   rms: 0.5609E-02   max: -.7127E-01   D at   57  2
       a = -2.000      CL =  0.1106
      Cm = -0.0761     CD =  0.00821   =>   CDf =  0.00558    CDp =  0.00263

 Side 1  free  transition at x/c =  0.7005   60
 Side 2  free  transition at x/c =  0.6070   57

  98   rms: 0.5609E-02   max: -.7128E-01   D at   57  2
       a = -2.000      CL =  0.1106
      Cm = -0.0761     CD =  0.00821   =>   CDf =  0.00558    CDp =  0.00263

 Side 1  free  transition at x/c =  0.7005   60
 Side 2  free  transition at x/c =  0.6070   57

  99   rms: 0.5609E-02   max: -.7127E-01   D at   57  2
       a = -2.000      CL =  0.1106
      Cm = -0.0761     CD =  0.00821   =>   CDf =  0.00558    CDp =  0.00263

 Side 1  free  transition at x/c =  0.7005   60
 Side 2  free  transition at x/c =  0.6070   57

 100   rms: 0.5609E-02   max: -.7128E-01   D at   57  2
       a = -2.000      CL =  0.1106
      Cm = -0.0761     CD =  0.00821   =>   CDf =  0.00558    CDp =  0.00263

 Side 1  free  transition at x/c =  0.7005   60
 Side 2  free  transition at x/c =  0.6070   57

 101   rms: 0.5609E-02   max: -.7127E-01   D at   57  2
       a = -2.000      CL =  0.1106
      Cm = -0.0761     CD =  0.00821   =>   CDf =  0.00558    CDp =  0.00263

 Side 1  free  transition at x/c =  0.7005   60
 Side 2  free  transition at x/c =  0.6070   57

 102   rms: 0.5609E-02   max: -.7127E-01   D at   57  2
       a = -2.000      CL =  0.1106
      Cm = -0.0761     CD =  0.00821   =>   CDf =  0.00558    CDp =  0.00263

 Side 1  free  transition at x/c =  0.7005   60
 Side 2  free  transition at x/c =  0.6070   57

 103   rms: 0.5609E-02   max: -.7128E-01   D at   57  2
       a = -2.000      CL =  0.1106
      Cm = -0.0761     CD =  0.00821   =>   CDf =  0.00558    CDp =  0.00263

 Side 1  free  transition at x/c =  0.7005   60
 Side 2  free  transition at x/c =  0.6070   57

 104   rms: 0.5609E-02   max: -.7128E-01   D at   57  2
       a = -2.000      CL =  0.1106
      Cm = -0.0761     CD =  0.00821   =>   CDf =  0.00558    CDp =  0.00263

 Side 1  free  transition at x/c =  0.7005   60
 Side 2  free  transition at x/c =  0.6070   57

 105   rms: 0.5609E-02   max: -.7127E-01   D at   57  2
       a = -2.000      CL =  0.1106
      Cm = -0.0761     CD =  0.00821   =>   CDf =  0.00558    CDp =  0.00263

 Side 1  free  transition at x/c =  0.7005   60
 Side 2  free  transition at x/c =  0.6070   57

 106   rms: 0.5609E-02   max: -.7128E-01   D at   57  2
       a = -2.000      CL =  0.1106
      Cm = -0.0761     CD =  0.00821   =>   CDf =  0.00558    CDp =  0.00263

 Side 1  free  transition at x/c =  0.7005   60
 Side 2  free  transition at x/c =  0.6070   57

 107   rms: 0.5609E-02   max: -.7127E-01   D at   57  2
       a = -2.000      CL =  0.1106
      Cm = -0.0761     CD =  0.00821   =>   CDf =  0.00558    CDp =  0.00263

 Side 1  free  transition at x/c =  0.7005   60
 Side 2  free  transition at x/c =  0.6070   57

 108   rms: 0.5609E-02   max: -.7128E-01   D at   57  2
       a = -2.000      CL =  0.1106
      Cm = -0.0761     CD =  0.00821   =>   CDf =  0.00558    CDp =  0.00263

 Side 1  free  transition at x/c =  0.7005   60
 Side 2  free  transition at x/c =  0.6070   57

 109   rms: 0.5609E-02   max: -.7127E-01   D at   57  2
       a = -2.000      CL =  0.1106
      Cm = -0.0761     CD =  0.00821   =>   CDf =  0.00558    CDp =  0.00263

 Side 1  free  transition at x/c =  0.7005   60
 Side 2  free  transition at x/c =  0.6070   57

 110   rms: 0.5609E-02   max: -.7128E-01   D at   57  2
       a = -2.000      CL =  0.1106
      Cm = -0.0761     CD =  0.00821   =>   CDf =  0.00558    CDp =  0.00263

 Side 1  free  transition at x/c =  0.7005   60
 Side 2  free  transition at x/c =  0.6070   57

 111   rms: 0.5609E-02   max: -.7127E-01   D at   57  2
       a = -2.000      CL =  0.1106
      Cm = -0.0761     CD =  0.00821   =>   CDf =  0.00558    CDp =  0.00263

 Side 1  free  transition at x/c =  0.7005   60
 Side 2  free  transition at x/c =  0.6070   57

 112   rms: 0.5609E-02   max: -.7128E-01   D at   57  2
       a = -2.000      CL =  0.1106
      Cm = -0.0761     CD =  0.00821   =>   CDf =  0.00558    CDp =  0.00263

 Side 1  free  transition at x/c =  0.7005   60
 Side 2  free  transition at x/c =  0.6070   57

 113   rms: 0.5608E-02   max: -.7127E-01   D at   57  2
       a = -2.000      CL =  0.1106
      Cm = -0.0761     CD =  0.00821   =>   CDf =  0.00558    CDp =  0.00263

 Side 1  free  transition at x/c =  0.7005   60
 Side 2  free  transition at x/c =  0.6070   57

 114   rms: 0.5609E-02   max: -.7127E-01   D at   57  2
       a = -2.000      CL =  0.1106
      Cm = -0.0761     CD =  0.00821   =>   CDf =  0.00558    CDp =  0.00263

 Side 1  free  transition at x/c =  0.7005   60
 Side 2  free  transition at x/c =  0.6070   57

 115   rms: 0.5609E-02   max: -.7127E-01   D at   57  2
       a = -2.000      CL =  0.1106
      Cm = -0.0761     CD =  0.00821   =>   CDf =  0.00558    CDp =  0.00263

 Side 1  free  transition at x/c =  0.7005   60
 Side 2  free  transition at x/c =  0.6070   57

 116   rms: 0.5609E-02   max: -.7127E-01   D at   57  2
       a = -2.000      CL =  0.1106
      Cm = -0.0761     CD =  0.00821   =>   CDf =  0.00558    CDp =  0.00263

 Side 1  free  transition at x/c =  0.7005   60
 Side 2  free  transition at x/c =  0.6070   57

 117   rms: 0.5609E-02   max: -.7127E-01   D at   57  2
       a = -2.000      CL =  0.1106
      Cm = -0.0761     CD =  0.00821   =>   CDf =  0.00558    CDp =  0.00263

 Side 1  free  transition at x/c =  0.7005   60
 Side 2  free  transition at x/c =  0.6070   57

 118   rms: 0.5609E-02   max: -.7128E-01   D at   57  2
       a = -2.000      CL =  0.1106
      Cm = -0.0761     CD =  0.00821   =>   CDf =  0.00558    CDp =  0.00263

 Side 1  free  transition at x/c =  0.7005   60
 Side 2  free  transition at x/c =  0.6070   57

 119   rms: 0.5609E-02   max: -.7127E-01   D at   57  2
       a = -2.000      CL =  0.1106
      Cm = -0.0761     CD =  0.00821   =>   CDf =  0.00558    CDp =  0.00263

 Side 1  free  transition at x/c =  0.7005   60
 Side 2  free  transition at x/c =  0.6070   57

 120   rms: 0.5609E-02   max: -.7128E-01   D at   57  2
       a = -2.000      CL =  0.1106
      Cm = -0.0761     CD =  0.00821   =>   CDf =  0.00558    CDp =  0.00263

 Side 1  free  transition at x/c =  0.7005   60
 Side 2  free  transition at x/c =  0.6070   57

 121   rms: 0.5608E-02   max: -.7127E-01   D at   57  2
       a = -2.000      CL =  0.1106
      Cm = -0.0761     CD =  0.00821   =>   CDf =  0.00558    CDp =  0.00263

 Side 1  free  transition at x/c =  0.7005   60
 Side 2  free  transition at x/c =  0.6070   57

 122   rms: 0.5609E-02   max: -.7127E-01   D at   57  2
       a = -2.000      CL =  0.1106
      Cm = -0.0761     CD =  0.00821   =>   CDf =  0.00558    CDp =  0.00263

 Side 1  free  transition at x/c =  0.7005   60
 Side 2  free  transition at x/c =  0.6070   57

 123   rms: 0.5609E-02   max: -.7127E-01   D at   57  2
       a = -2.000      CL =  0.1106
      Cm = -0.0761     CD =  0.00821   =>   CDf =  0.00558    CDp =  0.00263

 Side 1  free  transition at x/c =  0.7005   60
 Side 2  free  transition at x/c =  0.6070   57

 124   rms: 0.5609E-02   max: -.7128E-01   D at   57  2
       a = -2.000      CL =  0.1106
      Cm = -0.0761     CD =  0.00821   =>   CDf =  0.00558    CDp =  0.00263

 Side 1  free  transition at x/c =  0.7005   60
 Side 2  free  transition at x/c =  0.6070   57

 125   rms: 0.5609E-02   max: -.7127E-01   D at   57  2
       a = -2.000      CL =  0.1106
      Cm = -0.0761     CD =  0.00821   =>   CDf =  0.00558    CDp =  0.00263

 Side 1  free  transition at x/c =  0.7005   60
 Side 2  free  transition at x/c =  0.6070   57

 126   rms: 0.5609E-02   max: -.7127E-01   D at   57  2
       a = -2.000      CL =  0.1106
      Cm = -0.0761     CD =  0.00821   =>   CDf =  0.00558    CDp =  0.00263

 Side 1  free  transition at x/c =  0.7005   60
 Side 2  free  transition at x/c =  0.6070   57

 127   rms: 0.5609E-02   max: -.7127E-01   D at   57  2
       a = -2.000      CL =  0.1106
      Cm = -0.0761     CD =  0.00821   =>   CDf =  0.00558    CDp =  0.00263

 Side 1  free  transition at x/c =  0.7005   60
 Side 2  free  transition at x/c =  0.6070   57

 128   rms: 0.5609E-02   max: -.7127E-01   D at   57  2
       a = -2.000      CL =  0.1106
      Cm = -0.0761     CD =  0.00821   =>   CDf =  0.00558    CDp =  0.00263

 Side 1  free  transition at x/c =  0.7005   60
 Side 2  free  transition at x/c =  0.6070   57

 129   rms: 0.5609E-02   max: -.7127E-01   D at   57  2
       a = -2.000      CL =  0.1106
      Cm = -0.0761     CD =  0.00821   =>   CDf =  0.00558    CDp =  0.00263

 Side 1  free  transition at x/c =  0.7005   60
 Side 2  free  transition at x/c =  0.6070   57

 130   rms: 0.5609E-02   max: -.7128E-01   D at   57  2
       a = -2.000      CL =  0.1106
      Cm = -0.0761     CD =  0.00821   =>   CDf =  0.00558    CDp =  0.00263

 Side 1  free  transition at x/c =  0.7005   60
 Side 2  free  transition at x/c =  0.6070   57

 131   rms: 0.5609E-02   max: -.7127E-01   D at   57  2
       a = -2.000      CL =  0.1106
      Cm = -0.0761     CD =  0.00821   =>   CDf =  0.00558    CDp =  0.00263

 Side 1  free  transition at x/c =  0.7005   60
 Side 2  free  transition at x/c =  0.6070   57

 132   rms: 0.5609E-02   max: -.7127E-01   D at   57  2
       a = -2.000      CL =  0.1106
      Cm = -0.0761     CD =  0.00821   =>   CDf =  0.00558    CDp =  0.00263

 Side 1  free  transition at x/c =  0.7005   60
 Side 2  free  transition at x/c =  0.6070   57

 133   rms: 0.5609E-02   max: -.7127E-01   D at   57  2
       a = -2.000      CL =  0.1106
      Cm = -0.0761     CD =  0.00821   =>   CDf =  0.00558    CDp =  0.00263

 Side 1  free  transition at x/c =  0.7005   60
 Side 2  free  transition at x/c =  0.6070   57

 134   rms: 0.5609E-02   max: -.7127E-01   D at   57  2
       a = -2.000      CL =  0.1106
      Cm = -0.0761     CD =  0.00821   =>   CDf =  0.00558    CDp =  0.00263

 Side 1  free  transition at x/c =  0.7005   60
 Side 2  free  transition at x/c =  0.6070   57

 135   rms: 0.5609E-02   max: -.7127E-01   D at   57  2
       a = -2.000      CL =  0.1106
      Cm = -0.0761     CD =  0.00821   =>   CDf =  0.00558    CDp =  0.00263

 Side 1  free  transition at x/c =  0.7005   60
 Side 2  free  transition at x/c =  0.6070   57

 136   rms: 0.5609E-02   max: -.7127E-01   D at   57  2
       a = -2.000      CL =  0.1106
      Cm = -0.0761     CD =  0.00821   =>   CDf =  0.00558    CDp =  0.00263

 Side 1  free  transition at x/c =  0.7005   60
 Side 2  free  transition at x/c =  0.6070   57

 137   rms: 0.5609E-02   max: -.7127E-01   D at   57  2
       a = -2.000      CL =  0.1106
      Cm = -0.0761     CD =  0.00821   =>   CDf =  0.00558    CDp =  0.00263

 Side 1  free  transition at x/c =  0.7005   60
 Side 2  free  transition at x/c =  0.6070   57

 138   rms: 0.5609E-02   max: -.7127E-01   D at   57  2
       a = -2.000      CL =  0.1106
      Cm = -0.0761     CD =  0.00821   =>   CDf =  0.00558    CDp =  0.00263

 Side 1  free  transition at x/c =  0.7005   60
 Side 2  free  transition at x/c =  0.6070   57

 139   rms: 0.5609E-02   max: -.7127E-01   D at   57  2
       a = -2.000      CL =  0.1106
      Cm = -0.0761     CD =  0.00821   =>   CDf =  0.00558    CDp =  0.00263

 Side 1  free  transition at x/c =  0.7005   60
 Side 2  free  transition at x/c =  0.6070   57

 140   rms: 0.5609E-02   max: -.7128E-01   D at   57  2
       a = -2.000      CL =  0.1106
      Cm = -0.0761     CD =  0.00821   =>   CDf =  0.00558    CDp =  0.00263

 Side 1  free  transition at x/c =  0.7005   60
 Side 2  free  transition at x/c =  0.6070   57

 141   rms: 0.5608E-02   max: -.7127E-01   D at   57  2
       a = -2.000      CL =  0.1106
      Cm = -0.0761     CD =  0.00821   =>   CDf =  0.00558    CDp =  0.00263

 Side 1  free  transition at x/c =  0.7005   60
 Side 2  free  transition at x/c =  0.6070   57

 142   rms: 0.5609E-02   max: -.7128E-01   D at   57  2
       a = -2.000      CL =  0.1106
      Cm = -0.0761     CD =  0.00821   =>   CDf =  0.00558    CDp =  0.00263

 Side 1  free  transition at x/c =  0.7005   60
 Side 2  free  transition at x/c =  0.6070   57

 143   rms: 0.5609E-02   max: -.7127E-01   D at   57  2
       a = -2.000      CL =  0.1106
      Cm = -0.0761     CD =  0.00821   =>   CDf =  0.00558    CDp =  0.00263

 Side 1  free  transition at x/c =  0.7005   60
 Side 2  free  transition at x/c =  0.6070   57

 144   rms: 0.5609E-02   max: -.7127E-01   D at   57  2
       a = -2.000      CL =  0.1106
      Cm = -0.0761     CD =  0.00821   =>   CDf =  0.00558    CDp =  0.00263

 Side 1  free  transition at x/c =  0.7005   60
 Side 2  free  transition at x/c =  0.6070   57

 145   rms: 0.5609E-02   max: -.7127E-01   D at   57  2
       a = -2.000      CL =  0.1106
      Cm = -0.0761     CD =  0.00821   =>   CDf =  0.00558    CDp =  0.00263

 Side 1  free  transition at x/c =  0.7005   60
 Side 2  free  transition at x/c =  0.6070   57

 146   rms: 0.5609E-02   max: -.7127E-01   D at   57  2
       a = -2.000      CL =  0.1106
      Cm = -0.0761     CD =  0.00821   =>   CDf =  0.00558    CDp =  0.00263

 Side 1  free  transition at x/c =  0.7005   60
 Side 2  free  transition at x/c =  0.6070   57

 147   rms: 0.5609E-02   max: -.7127E-01   D at   57  2
       a = -2.000      CL =  0.1106
      Cm = -0.0761     CD =  0.00821   =>   CDf =  0.00558    CDp =  0.00263

 Side 1  free  transition at x/c =  0.7005   60
 Side 2  free  transition at x/c =  0.6070   57

 148   rms: 0.5609E-02   max: -.7127E-01   D at   57  2
       a = -2.000      CL =  0.1106
      Cm = -0.0761     CD =  0.00821   =>   CDf =  0.00558    CDp =  0.00263

 Side 1  free  transition at x/c =  0.7005   60
 Side 2  free  transition at x/c =  0.6070   57

 149   rms: 0.5609E-02   max: -.7128E-01   D at   57  2
       a = -2.000      CL =  0.1106
      Cm = -0.0761     CD =  0.00821   =>   CDf =  0.00558    CDp =  0.00263

 Side 1  free  transition at x/c =  0.7005   60
 Side 2  free  transition at x/c =  0.6070   57

 150   rms: 0.5609E-02   max: -.7127E-01   D at   57  2
       a = -2.000      CL =  0.1106
      Cm = -0.0761     CD =  0.00821   =>   CDf =  0.00558    CDp =  0.00263

 Side 1  free  transition at x/c =  0.7005   60
 Side 2  free  transition at x/c =  0.6070   57

 151   rms: 0.5609E-02   max: -.7128E-01   D at   57  2
       a = -2.000      CL =  0.1106
      Cm = -0.0761     CD =  0.00821   =>   CDf =  0.00558    CDp =  0.00263

 Side 1  free  transition at x/c =  0.7005   60
 Side 2  free  transition at x/c =  0.6070   57

 152   rms: 0.5609E-02   max: -.7127E-01   D at   57  2
       a = -2.000      CL =  0.1106
      Cm = -0.0761     CD =  0.00821   =>   CDf =  0.00558    CDp =  0.00263

 Side 1  free  transition at x/c =  0.7005   60
 Side 2  free  transition at x/c =  0.6070   57

 153   rms: 0.5609E-02   max: -.7128E-01   D at   57  2
       a = -2.000      CL =  0.1106
      Cm = -0.0761     CD =  0.00821   =>   CDf =  0.00558    CDp =  0.00263

 Side 1  free  transition at x/c =  0.7005   60
 Side 2  free  transition at x/c =  0.6070   57

 154   rms: 0.5609E-02   max: -.7127E-01   D at   57  2
       a = -2.000      CL =  0.1106
      Cm = -0.0761     CD =  0.00821   =>   CDf =  0.00558    CDp =  0.00263

 Side 1  free  transition at x/c =  0.7005   60
 Side 2  free  transition at x/c =  0.6070   57

 155   rms: 0.5610E-02   max: -.7128E-01   D at   57  2
       a = -2.000      CL =  0.1106
      Cm = -0.0761     CD =  0.00821   =>   CDf =  0.00558    CDp =  0.00263
 VISCAL:  Convergence failed
 Calculating wake trajectory ...
 Calculating source influence matrix ...

 Solving BL system ...

 Side 1  free  transition at x/c =  0.7005   60
 Side 2  free  transition at x/c =  0.6070   57

   1   rms: 0.1026E+00   max: 0.8898E+00   C at   57  2   RLX: 0.710
       a = -1.500      CL =  0.1528
      Cm = -0.0766     CD =  0.00855   =>   CDf =  0.00558    CDp =  0.00297

 Side 1  free  transition at x/c =  0.6922   59
 Side 2  free  transition at x/c =  0.6126   58

   2   rms: 0.6346E-01   max: -.5293E+00   D at   57  2   RLX: 0.945
       a = -1.500      CL =  0.1670
      Cm = -0.0766     CD =  0.00798   =>   CDf =  0.00576    CDp =  0.00223

 Side 1  free  transition at x/c =  0.6888   60
 Side 2  free  transition at x/c =  0.6238   57

   3   rms: 0.1307E-01   max: -.1896E+00   C at   57  2
       a = -1.500      CL =  0.1679
      Cm = -0.0764     CD =  0.00822   =>   CDf =  0.00564    CDp =  0.00258

 Side 1  free  transition at x/c =  0.6887   60
 Side 2  free  transition at x/c =  0.6208   57

   4   rms: 0.8209E-03   max: 0.1175E-01   D at   57  2
       a = -1.500      CL =  0.1679
      Cm = -0.0764     CD =  0.00824   =>   CDf =  0.00559    CDp =  0.00265

 Side 1  free  transition at x/c =  0.6887   60
 Side 2  free  transition at x/c =  0.6207   57

   5   rms: 0.8395E-05   max: 0.9664E-04   D at   58  2
       a = -1.500      CL =  0.1679
      Cm = -0.0764     CD =  0.00824   =>   CDf =  0.00560    CDp =  0.00264
 plradd ia,ip,cpol            5           0  0.38828790    

 Point added to stored polar  1
 Point written to save file  n642415_Re500k.base.pol                         
 Dump file unspecified or not available
 Calculating wake trajectory ...
 Calculating source influence matrix ...

 Solving BL system ...

 Side 1  free  transition at x/c =  0.6887   60
 Side 2  free  transition at x/c =  0.6207   57

   1   rms: 0.8032E-01   max: -.2327E+00   T at   57  2
       a = -1.000      CL =  0.2262
      Cm = -0.0770     CD =  0.00826   =>   CDf =  0.00560    CDp =  0.00266

 Side 1  free  transition at x/c =  0.6764   59
 Side 2  free  transition at x/c =  0.6333   58

   2   rms: 0.1410E-01   max: 0.2143E+00   D at   58  2
       a = -1.000      CL =  0.2255
      Cm = -0.0768     CD =  0.00827   =>   CDf =  0.00566    CDp =  0.00261

 Side 1  free  transition at x/c =  0.6772   60
 Side 2  free  transition at x/c =  0.6315   58

   3   rms: 0.5188E-02   max: -.6850E-01   D at   59  1
       a = -1.000      CL =  0.2255
      Cm = -0.0768     CD =  0.00826   =>   CDf =  0.00570    CDp =  0.00256

 Side 1  free  transition at x/c =  0.6777   60
 Side 2  free  transition at x/c =  0.6311   58

   4   rms: 0.6235E-03   max: -.6761E-02   D at   61  1
       a = -1.000      CL =  0.2255
      Cm = -0.0768     CD =  0.00827   =>   CDf =  0.00567    CDp =  0.00260

 Side 1  free  transition at x/c =  0.6775   60
 Side 2  free  transition at x/c =  0.6311   58

   5   rms: 0.6486E-05   max: -.1161E-03   D at   61  1
       a = -1.000      CL =  0.2255
      Cm = -0.0768     CD =  0.00827   =>   CDf =  0.00567    CDp =  0.00260
 plradd ia,ip,cpol            6           0  0.38828790    

 Point added to stored polar  1
 Point written to save file  n642415_Re500k.base.pol                         
 Dump file unspecified or not available
 Calculating wake trajectory ...
 Calculating source influence matrix ...

 Solving BL system ...

 Side 1  free  transition at x/c =  0.6775   60
 Side 2  free  transition at x/c =  0.6311   58

   1   rms: 0.8183E-01   max: -.2529E+00   T at   58  2
       a = -0.500      CL =  0.2833
      Cm = -0.0772     CD =  0.00845   =>   CDf =  0.00566    CDp =  0.00280

 Side 1  free  transition at x/c =  0.6680   60
 Side 2  free  transition at x/c =  0.6385   57

   2   rms: 0.2411E-01   max: -.1856E+00   D at   60  1
       a = -0.500      CL =  0.2838
      Cm = -0.0774     CD =  0.00829   =>   CDf =  0.00575    CDp =  0.00254

 Side 1  free  transition at x/c =  0.6666   60
 Side 2  free  transition at x/c =  0.6411   57

   3   rms: 0.5570E-02   max: -.7547E-01   C at   57  2
       a = -0.500      CL =  0.2837
      Cm = -0.0774     CD =  0.00830   =>   CDf =  0.00574    CDp =  0.00257

 Side 1  free  transition at x/c =  0.6665   60
 Side 2  free  transition at x/c =  0.6412   57

   4   rms: 0.3037E-03   max: 0.3627E-02   D at   58  2
       a = -0.500      CL =  0.2837
      Cm = -0.0774     CD =  0.00830   =>   CDf =  0.00571    CDp =  0.00259

 Side 1  free  transition at x/c =  0.6665   60
 Side 2  free  transition at x/c =  0.6411   57

   5   rms: 0.1343E-05   max: -.7639E-05   C at   57  2
       a = -0.500      CL =  0.2837
      Cm = -0.0774     CD =  0.00830   =>   CDf =  0.00571    CDp =  0.00259
 plradd ia,ip,cpol            7           0  0.38828790    

 Point added to stored polar  1
 Point written to save file  n642415_Re500k.base.pol                         
 Dump file unspecified or not available
 Calculating wake trajectory ...
 Calculating source influence matrix ...

 Solving BL system ...

 Side 1  free  transition at x/c =  0.6665   60
 Side 2  free  transition at x/c =  0.6411   57

   1   rms: 0.8127E-01   max: -.2259E+00   T at   57  2
       a =  0.000      CL =  0.3422
      Cm = -0.0781     CD =  0.00841   =>   CDf =  0.00569    CDp =  0.00273

 Side 1  free  transition at x/c =  0.6575   60
 Side 2  free  transition at x/c =  0.6546   57

   2   rms: 0.2479E-01   max: 0.3665E+00   C at   57  2
       a =  0.000      CL =  0.3413
      Cm = -0.0779     CD =  0.00829   =>   CDf =  0.00566    CDp =  0.00263

 Side 1  free  transition at x/c =  0.6567   60
 Side 2  free  transition at x/c =  0.6519   57

   3   rms: 0.5012E-02   max: -.6161E-01   D at   59  2
       a =  0.000      CL =  0.3411
      Cm = -0.0778     CD =  0.00833   =>   CDf =  0.00569    CDp =  0.00263

 Side 1  free  transition at x/c =  0.6566   60
 Side 2  free  transition at x/c =  0.6501   57

   4   rms: 0.2554E-03   max: -.4962E-02   D at   59  2
       a =  0.000      CL =  0.3411
      Cm = -0.0778     CD =  0.00833   =>   CDf =  0.00571    CDp =  0.00262

 Side 1  free  transition at x/c =  0.6566   60
 Side 2  free  transition at x/c =  0.6501   57

   5   rms: 0.9269E-06   max: -.1481E-04   D at   59  2
       a =  0.000      CL =  0.3411
      Cm = -0.0778     CD =  0.00833   =>   CDf =  0.00571    CDp =  0.00262
 plradd ia,ip,cpol            8           0  0.38828790    

 Point added to stored polar  1
 Point written to save file  n642415_Re500k.base.pol                         
 Dump file unspecified or not available
 Calculating wake trajectory ...
 Calculating source influence matrix ...

 Solving BL system ...

 Side 1  free  transition at x/c =  0.6566   60
 Side 2  free  transition at x/c =  0.6501   57

   1   rms: 0.7965E-01   max: -.2130E+00   T at   57  2
       a =  0.500      CL =  0.3990
      Cm = -0.0783     CD =  0.00836   =>   CDf =  0.00568    CDp =  0.00268

 Side 1  free  transition at x/c =  0.6457   61
 Side 2  free  transition at x/c =  0.6597   57

   2   rms: 0.1290E-01   max: -.1374E+00   D at   61  1
       a =  0.500      CL =  0.3990
      Cm = -0.0783     CD =  0.00838   =>   CDf =  0.00581    CDp =  0.00257

 Side 1  free  transition at x/c =  0.6470   61
 Side 2  free  transition at x/c =  0.6608   57

   3   rms: 0.8852E-03   max: -.9053E-02   D at   58  2
       a =  0.500      CL =  0.3990
      Cm = -0.0783     CD =  0.00839   =>   CDf =  0.00574    CDp =  0.00266

 Side 1  free  transition at x/c =  0.6469   61
 Side 2  free  transition at x/c =  0.6606   57

   4   rms: 0.9056E-05   max: -.1715E-03   D at   58  2
       a =  0.500      CL =  0.3990
      Cm = -0.0783     CD =  0.00839   =>   CDf =  0.00574    CDp =  0.00265
 plradd ia,ip,cpol            9           0  0.38828790    

 Point added to stored polar  1
 Point written to save file  n642415_Re500k.base.pol                         
 Dump file unspecified or not available
 Calculating wake trajectory ...
 Calculating source influence matrix ...

 Solving BL system ...

 Side 1  free  transition at x/c =  0.6469   61
 Side 2  free  transition at x/c =  0.6606   57

   1   rms: 0.8150E-01   max: -.2518E+00   T at   57  2
       a =  1.000      CL =  0.4561
      Cm = -0.0786     CD =  0.00847   =>   CDf =  0.00575    CDp =  0.00272

 Side 1  free  transition at x/c =  0.6389   60
 Side 2  free  transition at x/c =  0.6700   57

   2   rms: 0.1467E-01   max: -.1319E+00   D at   57  2
       a =  1.000      CL =  0.4566
      Cm = -0.0788     CD =  0.00846   =>   CDf =  0.00575    CDp =  0.00271

 Side 1  free  transition at x/c =  0.6372   60
 Side 2  free  transition at x/c =  0.6719   57

   3   rms: 0.6739E-03   max: 0.5600E-02   T at   57  2
       a =  1.000      CL =  0.4566
      Cm = -0.0788     CD =  0.00847   =>   CDf =  0.00571    CDp =  0.00276

 Side 1  free  transition at x/c =  0.6373   60
 Side 2  free  transition at x/c =  0.6716   57

   4   rms: 0.4632E-05   max: -.4470E-04   D at   57  2
       a =  1.000      CL =  0.4566
      Cm = -0.0788     CD =  0.00847   =>   CDf =  0.00571    CDp =  0.00276
 plradd ia,ip,cpol           10           0  0.38828790    

 Point added to stored polar  1
 Point written to save file  n642415_Re500k.base.pol                         
 Dump file unspecified or not available
 Calculating wake trajectory ...
 Calculating source influence matrix ...

 Solving BL system ...

 Side 1  free  transition at x/c =  0.6373   60
 Side 2  free  transition at x/c =  0.6716   57

   1   rms: 0.7982E-01   max: -.2112E+00   T at   57  2
       a =  1.500      CL =  0.5146
      Cm = -0.0794     CD =  0.00856   =>   CDf =  0.00565    CDp =  0.00291

 Side 1  free  transition at x/c =  0.6284   61
 Side 2  free  transition at x/c =  0.6845   57

   2   rms: 0.9634E-02   max: 0.1418E+00   D at   57  2
       a =  1.500      CL =  0.5141
      Cm = -0.0793     CD =  0.00857   =>   CDf =  0.00570    CDp =  0.00287

 Side 1  free  transition at x/c =  0.6288   61
 Side 2  free  transition at x/c =  0.6829   57

   3   rms: 0.9839E-03   max: 0.1077E-01   C at   57  2
       a =  1.500      CL =  0.5141
      Cm = -0.0793     CD =  0.00858   =>   CDf =  0.00570    CDp =  0.00287

 Side 1  free  transition at x/c =  0.6288   61
 Side 2  free  transition at x/c =  0.6826   57

   4   rms: 0.9218E-05   max: -.1600E-03   D at   59  2
       a =  1.500      CL =  0.5141
      Cm = -0.0793     CD =  0.00858   =>   CDf =  0.00571    CDp =  0.00287
 plradd ia,ip,cpol           11           0  0.37296510    

 Point added to stored polar  1
 Point written to save file  n642415_Re500k.base.pol                         
 Dump file unspecified or not available
 Calculating wake trajectory ...
 Calculating source influence matrix ...

 Solving BL system ...

 Side 1  free  transition at x/c =  0.6288   61
 Side 2  free  transition at x/c =  0.6826   57

   1   rms: 0.8139E-01   max: -.2369E+00   T at   57  2
       a =  2.000      CL =  0.5719
      Cm = -0.0798     CD =  0.00883   =>   CDf =  0.00564    CDp =  0.00319

 Side 1  free  transition at x/c =  0.6199   61
 Side 2  free  transition at x/c =  0.6926   56

   2   rms: 0.2064E-01   max: -.1910E+00   D at   61  1
       a =  2.000      CL =  0.5720
      Cm = -0.0798     CD =  0.00869   =>   CDf =  0.00572    CDp =  0.00297

 Side 1  free  transition at x/c =  0.6196   61
 Side 2  free  transition at x/c =  0.6958   57

   3   rms: 0.3450E-02   max: 0.6211E-01   D at   57  2
       a =  2.000      CL =  0.5716
      Cm = -0.0797     CD =  0.00867   =>   CDf =  0.00564    CDp =  0.00302

 Side 1  free  transition at x/c =  0.6194   61
 Side 2  free  transition at x/c =  0.6949   57

   4   rms: 0.3067E-03   max: 0.4054E-02   D at   57  2
       a =  2.000      CL =  0.5716
      Cm = -0.0797     CD =  0.00866   =>   CDf =  0.00564    CDp =  0.00303

 Side 1  free  transition at x/c =  0.6194   61
 Side 2  free  transition at x/c =  0.6949   57

   5   rms: 0.1342E-05   max: -.1411E-04   D at   58  2
       a =  2.000      CL =  0.5716
      Cm = -0.0797     CD =  0.00866   =>   CDf =  0.00564    CDp =  0.00303
 plradd ia,ip,cpol           12           0  0.29414836    

 Point added to stored polar  1
 Point written to save file  n642415_Re500k.base.pol                         
 Dump file unspecified or not available
 Calculating wake trajectory ...
 Calculating source influence matrix ...

 Solving BL system ...

 Side 1  free  transition at x/c =  0.6194   61
 Side 2  free  transition at x/c =  0.6949   57

   1   rms: 0.8096E-01   max: -.2496E+00   T at   57  2
       a =  2.500      CL =  0.6279
      Cm = -0.0799     CD =  0.00868   =>   CDf =  0.00564    CDp =  0.00304

 Side 1  free  transition at x/c =  0.6094   60
 Side 2  free  transition at x/c =  0.7059   57

   2   rms: 0.1309E-01   max: -.1298E+00   D at   57  2
       a =  2.500      CL =  0.6287
      Cm = -0.0801     CD =  0.00881   =>   CDf =  0.00566    CDp =  0.00314

 Side 1  free  transition at x/c =  0.6098   60
 Side 2  free  transition at x/c =  0.7081   57

   3   rms: 0.7370E-03   max: 0.6575E-02   T at   57  2
       a =  2.500      CL =  0.6286
      Cm = -0.0801     CD =  0.00881   =>   CDf =  0.00562    CDp =  0.00319

 Side 1  free  transition at x/c =  0.6097   60
 Side 2  free  transition at x/c =  0.7077   57

   4   rms: 0.8390E-05   max: -.8194E-04   C at   57  2
       a =  2.500      CL =  0.6286
      Cm = -0.0801     CD =  0.00881   =>   CDf =  0.00562    CDp =  0.00319
 plradd ia,ip,cpol           13           0  0.27850696    

 Point added to stored polar  1
 Point written to save file  n642415_Re500k.base.pol                         
 Dump file unspecified or not available
 Calculating wake trajectory ...
 Calculating source influence matrix ...

 Solving BL system ...

 Side 1  free  transition at x/c =  0.6097   60
 Side 2  free  transition at x/c =  0.7077   57

   1   rms: 0.8017E-01   max: -.2302E+00   T at   57  2
       a =  3.000      CL =  0.6861
      Cm = -0.0806     CD =  0.00890   =>   CDf =  0.00553    CDp =  0.00337

 Side 1  free  transition at x/c =  0.5993   61
 Side 2  free  transition at x/c =  0.7239   57

   2   rms: 0.1569E-01   max: -.1904E+00   D at   57  2
       a =  3.000      CL =  0.6853
      Cm = -0.0804     CD =  0.00889   =>   CDf =  0.00557    CDp =  0.00332

 Side 1  free  transition at x/c =  0.6006   61
 Side 2  free  transition at x/c =  0.7214   57

   3   rms: 0.8179E-03   max: 0.8003E-02   C at   57  2
       a =  3.000      CL =  0.6853
      Cm = -0.0804     CD =  0.00889   =>   CDf =  0.00549    CDp =  0.00340

 Side 1  free  transition at x/c =  0.6005   61
 Side 2  free  transition at x/c =  0.7211   57

   4   rms: 0.3303E-05   max: -.4992E-04   D at   59  2
       a =  3.000      CL =  0.6853
      Cm = -0.0804     CD =  0.00889   =>   CDf =  0.00549    CDp =  0.00340
 plradd ia,ip,cpol           14           0  1.46608753E-02

 Point added to stored polar  1
 Point written to save file  n642415_Re500k.base.pol                         
 Dump file unspecified or not available
 Calculating wake trajectory ...
 Calculating source influence matrix ...

 Solving BL system ...

 Side 1  free  transition at x/c =  0.6005   61
 Side 2  free  transition at x/c =  0.7211   57

   1   rms: 0.8074E-01   max: -.2372E+00   T at   57  2
       a =  3.500      CL =  0.7422
      Cm = -0.0807     CD =  0.00904   =>   CDf =  0.00540    CDp =  0.00364

 Side 1  free  transition at x/c =  0.5830   61
 Side 2  free  transition at x/c =  0.7353   57

   2   rms: 0.2856E-01   max: -.3426E+00   D at   61  1
       a =  3.500      CL =  0.7409
      Cm = -0.0804     CD =  0.00896   =>   CDf =  0.00549    CDp =  0.00348

 Side 1  free  transition at x/c =  0.5874   61
 Side 2  free  transition at x/c =  0.7352   57

   3   rms: 0.2847E-02   max: 0.3001E-01   C at   61  1
       a =  3.500      CL =  0.7409
      Cm = -0.0804     CD =  0.00898   =>   CDf =  0.00540    CDp =  0.00358

 Side 1  free  transition at x/c =  0.5865   61
 Side 2  free  transition at x/c =  0.7351   57

   4   rms: 0.6669E-04   max: -.8938E-03   D at   63  1
       a =  3.500      CL =  0.7409
      Cm = -0.0804     CD =  0.00898   =>   CDf =  0.00542    CDp =  0.00356
 plradd ia,ip,cpol           15           0  1.46608753E-02

 Point added to stored polar  1
 Point written to save file  n642415_Re500k.base.pol                         
 Dump file unspecified or not available
 Calculating wake trajectory ...
 Calculating source influence matrix ...

 Solving BL system ...

 Side 1  free  transition at x/c =  0.5864   61
 Side 2  free  transition at x/c =  0.7351   57

   1   rms: 0.8475E-01   max: 0.3754E+00   T at   61  1
       a =  4.000      CL =  0.7957
      Cm = -0.0802     CD =  0.00900   =>   CDf =  0.00531    CDp =  0.00369

 Side 1  free  transition at x/c =  0.5641   61
 Side 2  free  transition at x/c =  0.7478   57

   2   rms: 0.3295E-01   max: -.3879E+00   D at   61  1
       a =  4.000      CL =  0.7952
      Cm = -0.0801     CD =  0.00900   =>   CDf =  0.00546    CDp =  0.00354

 Side 1  free  transition at x/c =  0.5683   61
 Side 2  free  transition at x/c =  0.7497   57

   3   rms: 0.4993E-02   max: 0.5830E-01   C at   61  1
       a =  4.000      CL =  0.7953
      Cm = -0.0801     CD =  0.00904   =>   CDf =  0.00533    CDp =  0.00370

 Side 1  free  transition at x/c =  0.5669   61
 Side 2  free  transition at x/c =  0.7495   57

   4   rms: 0.2440E-03   max: -.4288E-02   D at   62  1
       a =  4.000      CL =  0.7953
      Cm = -0.0801     CD =  0.00904   =>   CDf =  0.00536    CDp =  0.00367

 Side 1  free  transition at x/c =  0.5669   61
 Side 2  free  transition at x/c =  0.7495   57

   5   rms: 0.1589E-05   max: -.1690E-04   D at   61  1
       a =  4.000      CL =  0.7953
      Cm = -0.0801     CD =  0.00904   =>   CDf =  0.00537    CDp =  0.00367
 plradd ia,ip,cpol           16           0  3.78658855E-03

 Point added to stored polar  1
 Point written to save file  n642415_Re500k.base.pol                         
 Dump file unspecified or not available
 Calculating wake trajectory ...
 Calculating source influence matrix ...

 Solving BL system ...

 Side 1  free  transition at x/c =  0.5669   61
 Side 2  free  transition at x/c =  0.7495   57

   1   rms: 0.8898E-01   max: -.4219E+00   D at   61  1
       a =  4.500      CL =  0.8487
      Cm = -0.0796     CD =  0.00917   =>   CDf =  0.00537    CDp =  0.00380

 Side 1  free  transition at x/c =  0.5433   59
 Side 2  free  transition at x/c =  0.7612   57

   2   rms: 0.2529E-01   max: 0.3631E+00   D at   60  1
       a =  4.500      CL =  0.8494
      Cm = -0.0799     CD =  0.00923   =>   CDf =  0.00542    CDp =  0.00381

 Side 1  free  transition at x/c =  0.5453   59
 Side 2  free  transition at x/c =  0.7670   58

   3   rms: 0.7274E-02   max: 0.1110E+00   D at   58  2
       a =  4.500      CL =  0.8488
      Cm = -0.0797     CD =  0.00916   =>   CDf =  0.00532    CDp =  0.00385

[...]

 Side 1  free  transition at x/c =  0.0211   29
 Side 2 forced transition at x/c =  1.0000   66

   2   rms: 0.7821E-02   max: 0.2375E-01   D at   79  2
       a = 12.750      CL =  1.2571
      Cm = -0.0296     CD =  0.04149   =>   CDf =  0.00622    CDp =  0.03528

 Side 1  free  transition at x/c =  0.0210   29
 Side 2 forced transition at x/c =  1.0000   66

   3   rms: 0.5454E-03   max: 0.2975E-02   D at   79  2
       a = 12.750      CL =  1.2567
      Cm = -0.0296     CD =  0.04147   =>   CDf =  0.00620    CDp =  0.03527

 Side 1  free  transition at x/c =  0.0210   29
 Side 2 forced transition at x/c =  1.0000   66

   4   rms: 0.1548E-04   max: 0.1384E-03   D at   78  2
       a = 12.750      CL =  1.2567
      Cm = -0.0296     CD =  0.04146   =>   CDf =  0.00619    CDp =  0.03527
 plradd ia,ip,cpol           40           0  1.45705231E-03

 Point added to stored polar  1
 Point written to save file  n642415_Re500k.base.pol                         
 Dump file unspecified or not available
 Calculating wake trajectory ...
 Calculating source influence matrix ...

 Solving BL system ...

 Side 1  free  transition at x/c =  0.0210   29
 Side 2 forced transition at x/c =  1.0000   66

   1   rms: 0.3187E-01   max: 0.9934E-01   T at   29  1   RLX: 0.730
       a = 13.000      CL =  1.2646
      Cm = -0.0292     CD =  0.04276   =>   CDf =  0.00620    CDp =  0.03656

 Side 1  free  transition at x/c =  0.0207   29
 Side 2 forced transition at x/c =  1.0000   66

   2   rms: 0.8655E-02   max: 0.2931E-01   D at   74  1
       a = 13.000      CL =  1.2661
      Cm = -0.0291     CD =  0.04324   =>   CDf =  0.00614    CDp =  0.03710

 Side 1  free  transition at x/c =  0.0205   29
 Side 2 forced transition at x/c =  1.0000   66

   3   rms: 0.7091E-03   max: 0.4112E-02   D at   79  2
       a = 13.000      CL =  1.2656
      Cm = -0.0290     CD =  0.04321   =>   CDf =  0.00612    CDp =  0.03709

 Side 1  free  transition at x/c =  0.0205   29
 Side 2 forced transition at x/c =  1.0000   66

   4   rms: 0.2139E-04   max: 0.2240E-03   D at   79  2
       a = 13.000      CL =  1.2656
      Cm = -0.0290     CD =  0.04320   =>   CDf =  0.00612    CDp =  0.03708
 plradd ia,ip,cpol           41           0  1.45705231E-03

 Point added to stored polar  1
 Point written to save file  n642415_Re500k.base.pol                         
 Dump file unspecified or not available
 Calculating wake trajectory ...
 Calculating source influence matrix ...

 Solving BL system ...

 Side 1  free  transition at x/c =  0.0205   29
 Side 2 forced transition at x/c =  1.0000   66

   1   rms: 0.3167E-01   max: 0.8078E-01   T at   29  1   RLX: 0.708
       a = 13.250      CL =  1.2730
      Cm = -0.0287     CD =  0.04453   =>   CDf =  0.00612    CDp =  0.03840

 Side 1  free  transition at x/c =  0.0203   29
 Side 2 forced transition at x/c =  1.0000   66

   2   rms: 0.9073E-02   max: 0.2625E-01   D at   79  2
       a = 13.250      CL =  1.2750
      Cm = -0.0285     CD =  0.04503   =>   CDf =  0.00607    CDp =  0.03895

 Side 1  free  transition at x/c =  0.0202   29
 Side 2 forced transition at x/c =  1.0000   66

   3   rms: 0.7387E-03   max: 0.5356E-02   D at   79  2
       a = 13.250      CL =  1.2745
      Cm = -0.0285     CD =  0.04499   =>   CDf =  0.00605    CDp =  0.03894

 Side 1  free  transition at x/c =  0.0202   29
 Side 2 forced transition at x/c =  1.0000   66

   4   rms: 0.2727E-04   max: 0.3770E-03   D at   79  2
       a = 13.250      CL =  1.2745
      Cm = -0.0285     CD =  0.04499   =>   CDf =  0.00605    CDp =  0.03894
 plradd ia,ip,cpol           42           0  1.45705231E-03

 Point added to stored polar  1
 Point written to save file  n642415_Re500k.base.pol                         
 Dump file unspecified or not available
 Calculating wake trajectory ...
 Calculating source influence matrix ...

 Solving BL system ...

 Side 1  free  transition at x/c =  0.0202   29
 Side 2 forced transition at x/c =  1.0000   66

   1   rms: 0.3120E-01   max: 0.8831E-01   T at   29  1   RLX: 0.689
       a = 13.500      CL =  1.2818
      Cm = -0.0282     CD =  0.04628   =>   CDf =  0.00605    CDp =  0.04023

 Side 1  free  transition at x/c =  0.0199   29
 Side 2 forced transition at x/c =  1.0000   66

   2   rms: 0.9587E-02   max: 0.2910E-01   D at   73  1
       a = 13.500      CL =  1.2837
      Cm = -0.0281     CD =  0.04686   =>   CDf =  0.00601    CDp =  0.04085

 Side 1  free  transition at x/c =  0.0198   29
 Side 2 forced transition at x/c =  1.0000   66

   3   rms: 0.8236E-03   max: 0.4506E-02   D at   79  2
       a = 13.500      CL =  1.2832
      Cm = -0.0280     CD =  0.04682   =>   CDf =  0.00599    CDp =  0.04084

 Side 1  free  transition at x/c =  0.0198   29
 Side 2 forced transition at x/c =  1.0000   66

   4   rms: 0.2525E-04   max: 0.2595E-03   D at   79  2
       a = 13.500      CL =  1.2832
      Cm = -0.0280     CD =  0.04682   =>   CDf =  0.00599    CDp =  0.04083
 plradd ia,ip,cpol           43           0  1.45705231E-03

 Point added to stored polar  1
 Point written to save file  n642415_Re500k.base.pol                         
 Dump file unspecified or not available
 Calculating wake trajectory ...
 Calculating source influence matrix ...

 Solving BL system ...

 Side 1  free  transition at x/c =  0.0198   29
 Side 2 forced transition at x/c =  1.0000   66

   1   rms: 0.3095E-01   max: 0.7019E-01   D at   70  1   RLX: 0.670
       a = 13.750      CL =  1.2902
      Cm = -0.0278     CD =  0.04812   =>   CDf =  0.00599    CDp =  0.04213

 Side 1  free  transition at x/c =  0.0196   29
 Side 2 forced transition at x/c =  1.0000   66

   2   rms: 0.1007E-01   max: 0.2716E-01   D at   80  2
       a = 13.750      CL =  1.2926
      Cm = -0.0277     CD =  0.04872   =>   CDf =  0.00595    CDp =  0.04278

 Side 1  free  transition at x/c =  0.0195   29
 Side 2 forced transition at x/c =  1.0000   66

   3   rms: 0.8532E-03   max: 0.4481E-02   D at   80  2
       a = 13.750      CL =  1.2920
      Cm = -0.0276     CD =  0.04869   =>   CDf =  0.00592    CDp =  0.04276

 Side 1  free  transition at x/c =  0.0196   29
 Side 2 forced transition at x/c =  1.0000   66

   4   rms: 0.3163E-04   max: 0.2841E-03   D at   80  2
       a = 13.750      CL =  1.2920
      Cm = -0.0276     CD =  0.04868   =>   CDf =  0.00592    CDp =  0.04275
 plradd ia,ip,cpol           44           0  1.45705231E-03

 Point added to stored polar  1
 Point written to save file  n642415_Re500k.base.pol                         
 Dump file unspecified or not available
 Calculating wake trajectory ...
 Calculating source influence matrix ...

 Solving BL system ...

 Side 1  free  transition at x/c =  0.0196   29
 Side 2 forced transition at x/c =  1.0000   66

   1   rms: 0.3077E-01   max: 0.7738E-01   T at   29  1   RLX: 0.652
       a = 14.000      CL =  1.2988
      Cm = -0.0274     CD =  0.04997   =>   CDf =  0.00555    CDp =  0.04442

 Side 1  free  transition at x/c =  0.0194   30
 Side 2 forced transition at x/c =  1.0000   65

   2   rms: 0.1103E-01   max: 0.2976E-01   D at   73  1
       a = 14.000      CL =  1.3012
      Cm = -0.0273     CD =  0.05065   =>   CDf =  0.00588    CDp =  0.04477

 Side 1  free  transition at x/c =  0.0193   30
 Side 2 forced transition at x/c =  1.0000   65

   3   rms: 0.1025E-02   max: 0.5473E-02   D at   79  2
       a = 14.000      CL =  1.3005
      Cm = -0.0273     CD =  0.05061   =>   CDf =  0.00586    CDp =  0.04475

 Side 1  free  transition at x/c =  0.0193   30
 Side 2 forced transition at x/c =  1.0000   65

   4   rms: 0.3280E-04   max: 0.3597E-03   D at   79  2
       a = 14.000      CL =  1.3005
      Cm = -0.0273     CD =  0.05060   =>   CDf =  0.00586    CDp =  0.04474
 plradd ia,ip,cpol           45           0  1.45705231E-03

 Point added to stored polar  1
 Point written to save file  n642415_Re500k.base.pol                         
 Dump file unspecified or not available
 Calculating wake trajectory ...
 Calculating source influence matrix ...

 Solving BL system ...

 Side 1  free  transition at x/c =  0.0193   30
 Side 2 forced transition at x/c =  1.0000   65

   1   rms: 0.3049E-01   max: 0.7799E-01   T at   30  1   RLX: 0.635
       a = 14.250      CL =  1.3070
      Cm = -0.0271     CD =  0.05190   =>   CDf =  0.00586    CDp =  0.04604

 Side 1  free  transition at x/c =  0.0191   30
 Side 2 forced transition at x/c =  1.0000   65

   2   rms: 0.1094E-01   max: 0.2860E-01   D at   79  2
       a = 14.250      CL =  1.3097
      Cm = -0.0270     CD =  0.05262   =>   CDf =  0.00582    CDp =  0.04679

 Side 1  free  transition at x/c =  0.0190   30
 Side 2 forced transition at x/c =  1.0000   65

   3   rms: 0.1007E-02   max: 0.7464E-02   D at   79  2
       a = 14.250      CL =  1.3090
      Cm = -0.0270     CD =  0.05257   =>   CDf =  0.00580    CDp =  0.04677

 Side 1  free  transition at x/c =  0.0190   30
 Side 2 forced transition at x/c =  1.0000   65

   4   rms: 0.4285E-04   max: 0.6339E-03   D at   79  2
       a = 14.250      CL =  1.3089
      Cm = -0.0270     CD =  0.05256   =>   CDf =  0.00580    CDp =  0.04676
 plradd ia,ip,cpol           46           0  1.45705231E-03

 Point added to stored polar  1
 Point written to save file  n642415_Re500k.base.pol                         
 Dump file unspecified or not available
 Calculating wake trajectory ...
 Calculating source influence matrix ...

 Solving BL system ...

 Side 1  free  transition at x/c =  0.0190   30
 Side 2 forced transition at x/c =  1.0000   65

   1   rms: 0.3095E-01   max: 0.1054E+00   T at   30  1   RLX: 0.619
       a = 14.500      CL =  1.3153
      Cm = -0.0269     CD =  0.05387   =>   CDf =  0.00581    CDp =  0.04806

 Side 1  free  transition at x/c =  0.0188   30
 Side 2 forced transition at x/c =  1.0000   65

   2   rms: 0.1165E-01   max: 0.3956E-01   T at   30  1
       a = 14.500      CL =  1.3181
      Cm = -0.0267     CD =  0.05463   =>   CDf =  0.00578    CDp =  0.04885

 Side 1  free  transition at x/c =  0.0187   30
 Side 2 forced transition at x/c =  1.0000   65

   3   rms: 0.1116E-02   max: 0.5750E-02   D at   79  2
       a = 14.500      CL =  1.3173
      Cm = -0.0267     CD =  0.05459   =>   CDf =  0.00576    CDp =  0.04883

 Side 1  free  transition at x/c =  0.0187   30
 Side 2 forced transition at x/c =  1.0000   65

   4   rms: 0.4163E-04   max: 0.3979E-03   D at   79  2
       a = 14.500      CL =  1.3173
      Cm = -0.0267     CD =  0.05458   =>   CDf =  0.00576    CDp =  0.04882
 plradd ia,ip,cpol           47           0  1.45705231E-03

 Point added to stored polar  1
 Point written to save file  n642415_Re500k.base.pol                         
 Dump file unspecified or not available
 Calculating wake trajectory ...
 Calculating source influence matrix ...

 Solving BL system ...

 Side 1  free  transition at x/c =  0.0187   30
 Side 2 forced transition at x/c =  1.0000   65

   1   rms: 0.3189E-01   max: 0.9914E-01   T at   30  1   RLX: 0.604
       a = 14.750      CL =  1.3239
      Cm = -0.0265     CD =  0.05584   =>   CDf =  0.00576    CDp =  0.05008

 Side 1  free  transition at x/c =  0.0186   30
 Side 2 forced transition at x/c =  1.0000   65

   2   rms: 0.1322E-01   max: 0.4260E-01   T at   30  1
       a = 14.750      CL =  1.3275
      Cm = -0.0263     CD =  0.05663   =>   CDf =  0.00573    CDp =  0.05090

 Side 1  free  transition at x/c =  0.0185   30
 Side 2 forced transition at x/c =  1.0000   65

   3   rms: 0.1335E-02   max: 0.6149E-02   D at   80  2
       a = 14.750      CL =  1.3265
      Cm = -0.0262     CD =  0.05664   =>   CDf =  0.00571    CDp =  0.05092

 Side 1  free  transition at x/c =  0.0185   30
 Side 2 forced transition at x/c =  1.0000   65

   4   rms: 0.6635E-04   max: 0.5128E-03   D at   80  2
       a = 14.750      CL =  1.3264
      Cm = -0.0262     CD =  0.05662   =>   CDf =  0.00571    CDp =  0.05091
 plradd ia,ip,cpol           48           0  1.45705231E-03

 Point added to stored polar  1
 Point written to save file  n642415_Re500k.base.pol                         
 Dump file unspecified or not available
 Calculating wake trajectory ...
 Calculating source influence matrix ...

 Solving BL system ...

 Side 1  free  transition at x/c =  0.0185   30
 Side 2 forced transition at x/c =  1.0000   65

   1   rms: 0.3750E-01   max: 0.1269E+00   T at   30  1   RLX: 0.591
       a = 15.000      CL =  1.3343
      Cm = -0.0259     CD =  0.05778   =>   CDf =  0.00571    CDp =  0.05207

 Side 1  free  transition at x/c =  0.0183   30
 Side 2 forced transition at x/c =  1.0000   65

   2   rms: 0.2360E-01   max: 0.8077E-01   T at   30  1
       a = 15.000      CL =  1.3413
      Cm = -0.0253     CD =  0.05852   =>   CDf =  0.00567    CDp =  0.05285

 Side 1  free  transition at x/c =  0.0181   29
 Side 2 forced transition at x/c =  1.0000   65

   3   rms: 0.8061E-02   max: 0.4396E-01   D at   73  1
       a = 15.000      CL =  1.3374
      Cm = -0.0255     CD =  0.05896   =>   CDf =  0.00562    CDp =  0.05334

 Side 1  free  transition at x/c =  0.0181   29
 Side 2 forced transition at x/c =  1.0000   65

   4   rms: 0.4099E-03   max: 0.4130E-02   D at   80  2
       a = 15.000      CL =  1.3373
      Cm = -0.0255     CD =  0.05879   =>   CDf =  0.00563    CDp =  0.05317

 Side 1  free  transition at x/c =  0.0181   29
 Side 2 forced transition at x/c =  1.0000   65

   5   rms: 0.4788E-05   max: 0.6648E-04   D at   80  2
       a = 15.000      CL =  1.3373
      Cm = -0.0255     CD =  0.05879   =>   CDf =  0.00563    CDp =  0.05317
 plradd ia,ip,cpol           49           0  1.45705231E-03

 Point added to stored polar  1
 Point written to save file  n642415_Re500k.base.pol                         
 Dump file unspecified or not available
 Calculating wake trajectory ...
 Calculating source influence matrix ...

 Solving BL system ...

 Side 1  free  transition at x/c =  0.0181   29
 Side 2 forced transition at x/c =  1.0000   65

   1   rms: 0.2874E-01   max: 0.8479E-01   T at   29  1   RLX: 0.574
       a = 15.250      CL =  1.3408
      Cm = -0.0256     CD =  0.06035   =>   CDf =  0.00563    CDp =  0.05472

 Side 1  free  transition at x/c =  0.0181   29
 Side 2 forced transition at x/c =  1.0000   65

   2   rms: 0.1241E-01   max: 0.4168E-01   D at   72  1
       a = 15.250      CL =  1.3418
      Cm = -0.0257     CD =  0.06150   =>   CDf =  0.00555    CDp =  0.05595

 Side 1  free  transition at x/c =  0.0180   29
 Side 2 forced transition at x/c =  1.0000   65

   3   rms: 0.1252E-02   max: 0.1058E-01   D at   80  2
       a = 15.250      CL =  1.3409
      Cm = -0.0256     CD =  0.06139   =>   CDf =  0.00548    CDp =  0.05591

 Side 1  free  transition at x/c =  0.0180   29
 Side 2 forced transition at x/c =  1.0000   65

   4   rms: 0.4444E-04   max: 0.6721E-03   D at   80  2
       a = 15.250      CL =  1.3409
      Cm = -0.0256     CD =  0.06138   =>   CDf =  0.00548    CDp =  0.05589
 plradd ia,ip,cpol           50           0  1.45705231E-03

 Point added to stored polar  1
 Point written to save file  n642415_Re500k.base.pol                         
 Dump file unspecified or not available
 Calculating wake trajectory ...
 Calculating source influence matrix ...

 Solving BL system ...

 Side 1  free  transition at x/c =  0.0180   29
 Side 2 forced transition at x/c =  1.0000   65

   1   rms: 0.2906E-01   max: 0.8130E-01   D at   68  1   RLX: 0.558
       a = 15.500      CL =  1.3445
      Cm = -0.0257     CD =  0.06294   =>   CDf =  0.00549    CDp =  0.05745

 Side 1  free  transition at x/c =  0.0179   29
 Side 2 forced transition at x/c =  1.0000   65

   2   rms: 0.1317E-01   max: 0.4234E-01   D at   71  1
       a = 15.500      CL =  1.3458
      Cm = -0.0258     CD =  0.06418   =>   CDf =  0.00500    CDp =  0.05918

 Side 1  free  transition at x/c =  0.0178   30
 Side 2 forced transition at x/c =  1.0000   64

   3   rms: 0.3211E-02   max: -.4780E-01   T at    2  1
       a = 15.500      CL =  1.3446
      Cm = -0.0258     CD =  0.06411   =>   CDf =  0.00533    CDp =  0.05878

 Side 1  free  transition at x/c =  0.0179   30
 Side 2 forced transition at x/c =  1.0000   64

   4   rms: 0.6362E-03   max: -.7971E-02   D at    4  1
       a = 15.500      CL =  1.3445
      Cm = -0.0258     CD =  0.06409   =>   CDf =  0.00533    CDp =  0.05876

 Side 1  free  transition at x/c =  0.0179   30
 Side 2 forced transition at x/c =  1.0000   64

   5   rms: 0.1573E-05   max: -.6705E-05   C at   64  2
       a = 15.500      CL =  1.3445
      Cm = -0.0258     CD =  0.06409   =>   CDf =  0.00533    CDp =  0.05876
 plradd ia,ip,cpol           51           0  6.85678271E-04

 Point added to stored polar  1
 Point written to save file  n642415_Re500k.base.pol                         
 Dump file unspecified or not available
 Calculating wake trajectory ...
 Calculating source influence matrix ...

 Solving BL system ...

 Side 1  free  transition at x/c =  0.0179   30
 Side 2 forced transition at x/c =  1.0000   64

   1   rms: 0.2920E-01   max: 0.8775E-01   D at   68  1   RLX: 0.542
       a = 15.750      CL =  1.3472
      Cm = -0.0259     CD =  0.06577   =>   CDf =  0.00534    CDp =  0.06044

 Side 1  free  transition at x/c =  0.0177   30
 Side 2 forced transition at x/c =  1.0000   64

   2   rms: 0.1364E-01   max: 0.4268E-01   D at   71  1
       a = 15.750      CL =  1.3482
      Cm = -0.0261     CD =  0.06714   =>   CDf =  0.00525    CDp =  0.06189

 Side 1  free  transition at x/c =  0.0177   30
 Side 2 forced transition at x/c =  1.0000   64

   3   rms: 0.1876E-02   max: 0.8891E-02   D at   80  2
       a = 15.750      CL =  1.3469
      Cm = -0.0261     CD =  0.06706   =>   CDf =  0.00518    CDp =  0.06188

 Side 1  free  transition at x/c =  0.0177   30
 Side 2 forced transition at x/c =  1.0000   64

   4   rms: 0.8127E-04   max: 0.7543E-03   D at   80  2
       a = 15.750      CL =  1.3469
      Cm = -0.0261     CD =  0.06703   =>   CDf =  0.00518    CDp =  0.06185
 plradd ia,ip,cpol           52           0  6.85678271E-04

 Point added to stored polar  1
 Point written to save file  n642415_Re500k.base.pol                         
 Dump file unspecified or not available
 Calculating wake trajectory ...
 Calculating source influence matrix ...

 Solving BL system ...

 Side 1  free  transition at x/c =  0.0177   30
 Side 2 forced transition at x/c =  1.0000   64

   1   rms: 0.2872E-01   max: 0.9311E-01   D at   68  1   RLX: 0.526
       a = 16.000      CL =  1.3486
      Cm = -0.0263     CD =  0.06881   =>   CDf =  0.00519    CDp =  0.06363

 Side 1  free  transition at x/c =  0.0176   30
 Side 2 forced transition at x/c =  1.0000   64

   2   rms: 0.1408E-01   max: 0.4635E-01   D at   70  1
       a = 16.000      CL =  1.3492
      Cm = -0.0266     CD =  0.07034   =>   CDf =  0.00511    CDp =  0.06523

 Side 1  free  transition at x/c =  0.0175   30
 Side 2 forced transition at x/c =  1.0000   64

   3   rms: 0.1690E-02   max: 0.9600E-02   D at   80  2
       a = 16.000      CL =  1.3481
      Cm = -0.0265     CD =  0.07020   =>   CDf =  0.00503    CDp =  0.06516

 Side 1  free  transition at x/c =  0.0175   30
 Side 2 forced transition at x/c =  1.0000   64

   4   rms: 0.1132E-03   max: 0.8766E-03   D at   80  2
       a = 16.000      CL =  1.3480
      Cm = -0.0265     CD =  0.07018   =>   CDf =  0.00503    CDp =  0.06515

 Side 1  free  transition at x/c =  0.0175   30
 Side 2 forced transition at x/c =  1.0000   64

   5   rms: 0.5461E-05   max: -.9363E-04   C at   64  2
       a = 16.000      CL =  1.3480
      Cm = -0.0265     CD =  0.07018   =>   CDf =  0.00503    CDp =  0.06515
 plradd ia,ip,cpol           53           0  6.85678271E-04

 Point added to stored polar  1
 Point written to save file  n642415_Re500k.base.pol                         
 Dump file unspecified or not available

.OPERva   c>  
 Polar accumulation disabled

.OPERv   c>  
 XFOIL   c>  
 XFOIL   c>  