  
       XFOIL         Version 6.99
  
 Calculated polar for: NACA 16-015                                     
  
 1 1 Reynolds number fixed          Mach number fixed         
  
 xtrf =   1.000 (top)        1.000 (bottom)  
 Mach =   0.000     Re =     0.300 e 6     Ncrit =   9.000
  
   alpha    CL        CD       CDp       CM     Top_Xtr  Bot_Xtr
  ------ -------- --------- --------- -------- -------- --------
  -4.000  -0.6269   0.01621   0.01030   0.0375   0.9394   0.5172
  -3.500  -0.5857   0.01539   0.01079   0.0413   0.9360   0.7971
  -3.000  -0.5433   0.01596   0.01133   0.0445   0.9283   0.8447
  -2.500  -0.4818   0.01698   0.01225   0.0438   0.9239   0.8761
  -2.000  -0.3639   0.01983   0.01498   0.0320   0.9243   0.8926
  -1.500  -0.2042   0.02275   0.01779   0.0108   0.9288   0.8962
  -1.000  -0.1469   0.02281   0.01778   0.0095   0.9236   0.9066
  -0.500  -0.0584   0.02301   0.01793   0.0016   0.9219   0.9086
   0.000   0.0273   0.02306   0.01797  -0.0058   0.9203   0.9115
   0.500   0.0585   0.02301   0.01793  -0.0016   0.9086   0.9219
   1.000   0.1469   0.02281   0.01778  -0.0096   0.9066   0.9236
   2.000   0.3637   0.01983   0.01499  -0.0319   0.8926   0.9243
   2.500   0.4819   0.01698   0.01224  -0.0438   0.8761   0.9239
   3.000   0.5434   0.01596   0.01132  -0.0445   0.8449   0.9283
   3.500   0.5858   0.01539   0.01078  -0.0413   0.7973   0.9361
   4.000   0.6269   0.01620   0.01029  -0.0375   0.5176   0.9394
   4.500   0.6135   0.01840   0.01121  -0.0240   0.2574   0.9502
   5.000   0.6477   0.02024   0.01211  -0.0210   0.0920   0.9548
   5.500   0.6699   0.02121   0.01301  -0.0148   0.0732   0.9630
   6.000   0.7210   0.02199   0.01384  -0.0149   0.0634   0.9666
   6.500   0.7458   0.02304   0.01499  -0.0094   0.0587   0.9743
   7.000   0.8013   0.02391   0.01591  -0.0106   0.0522   0.9771
   7.500   0.8552   0.02549   0.01762  -0.0115   0.0466   0.9803
   8.000   0.8993   0.02669   0.01889  -0.0104   0.0413   0.9854
   8.500   0.9642   0.02899   0.02147  -0.0135   0.0359   0.9873
   9.000   1.0210   0.03230   0.02490  -0.0156   0.0309   0.9894
   9.500   1.0594   0.03407   0.02715  -0.0132   0.0284   0.9944
  10.000   1.1011   0.03575   0.02909  -0.0125   0.0255   0.9981
  10.000   1.1011   0.03575   0.02909  -0.0125   0.0255   0.9981
  10.250   1.1205   0.03764   0.03105  -0.0122   0.0244   0.9995
  10.500   1.1214   0.04095   0.03475  -0.0083   0.0237   1.0000
  10.750   1.1142   0.04225   0.03631  -0.0024   0.0234   1.0000
  11.000   1.0995   0.04357   0.03787   0.0049   0.0231   1.0000
  11.250   1.0819   0.04508   0.03961   0.0123   0.0229   1.0000
  11.500   1.0631   0.04676   0.04152   0.0197   0.0226   1.0000
  11.750   1.0429   0.04875   0.04374   0.0267   0.0225   1.0000
  12.000   1.0208   0.05091   0.04614   0.0336   0.0223   1.0000
  12.250   0.9971   0.05329   0.04873   0.0401   0.0222   1.0000
  12.500   0.9712   0.05595   0.05161   0.0462   0.0221   1.0000
  12.750   0.9439   0.05886   0.05472   0.0518   0.0221   1.0000
  13.000   0.9149   0.06219   0.05824   0.0567   0.0221   1.0000
  13.250   0.8849   0.06589   0.06212   0.0608   0.0222   1.0000
  13.500   0.8536   0.07015   0.06654   0.0637   0.0224   1.0000
  13.750   0.8220   0.07499   0.07152   0.0654   0.0225   1.0000
  14.000   0.7901   0.08060   0.07727   0.0655   0.0228   1.0000
  14.250   0.7588   0.08722   0.08399   0.0640   0.0231   1.0000
  14.500   0.7262   0.09555   0.09240   0.0606   0.0235   1.0000
  14.750   0.4482   0.14046   0.13773   0.0328   0.0421   1.0000
  15.000   0.4493   0.14189   0.13915   0.0334   0.0412   1.0000
  15.250   0.4527   0.14302   0.14028   0.0344   0.0404   1.0000
  15.500   0.5619   0.16127   0.15809   0.0332   0.0364   1.0000
  15.750   0.5606   0.16487   0.16167   0.0324   0.0347   1.0000
  16.000   0.5621   0.16776   0.16456   0.0321   0.0335   1.0000
