
 ===================================================
  XFOIL Version 6.99
  Copyright (C) 2000   Mark Drela, Harold Youngren

  This software comes with ABSOLUTELY NO WARRANTY,
    subject to the GNU General Public License.

  Caveat computor
 ===================================================

 File  xfoil.def  not found

   QUIT    Exit program

  .OPER    Direct operating point(s)
  .MDES    Complex mapping design routine
  .QDES    Surface speed design routine
  .GDES    Geometry design routine

   SAVE f  Write airfoil to labeled coordinate file
   PSAV f  Write airfoil to plain coordinate file
   ISAV f  Write airfoil to ISES coordinate file
   MSAV f  Write airfoil to MSES coordinate file
   REVE    Reverse written-airfoil node ordering

   LOAD f  Read buffer airfoil from coordinate file
   NACA i  Set NACA 4,5-digit airfoil and buffer airfoil
   INTE    Set buffer airfoil by interpolating two airfoils
   NORM    Buffer airfoil normalization toggle
   XYCM rr Change CM reference location, currently  0.25000 0.00000

   BEND    Display structural properties of current airfoil

   PCOP    Set current-airfoil panel nodes directly from buffer airfoil points
   PANE    Set current-airfoil panel nodes ( 160 ) based on curvature
  .PPAR    Show/change paneling

  .PLOP    Plotting options

   WDEF f  Write  current-settings file
   RDEF f  Reread current-settings file
   NAME s  Specify new airfoil name
   NINC    Increment name version number

   Z       Zoom    | (available in all menus)
   U       Unzoom  | 

 XFOIL   c>  
 Labeled airfoil file.  Name:  NACA 63(2)A-015                                 

 Number of input coordinate points:  97
 Counterclockwise ordering
 Max thickness =     0.149869  at x =   0.370
 Max camber    =     0.016262  at x =   0.146

  LE  x,y  =  -0.00002   0.00081  |   Chord =   1.00002
  TE  x,y  =   1.00000   0.00000  |

 Current airfoil nodes set from buffer airfoil nodes (  97 )

 XFOIL   c>  
 XFOIL   c>  
 Sharp trailing edge

 Paneling parameters used...
   Number of panel nodes       160
   Panel bunching parameter    1.000
   TE/LE panel density ratio   0.150
   Refined-area/LE panel density ratio    0.200
   Top    side refined area x/c limits  1.000 1.000
   Bottom side refined area x/c limits  1.000 1.000

 XFOIL   c>  
.OPERi   c>  
 Xtr/c     =  1.0000    top    side
 Xtr/c     =  1.0000    bottom side
 Ncrit     =    9.00   ( 0.070 % turb. level )
 Vacc      =  0.0100

 Klag  =  5.6000     Uxwt  =    1.00
 A     =  6.7000     B     =  0.7500       KCt = 0.01485
 CtiniK=  1.8000     CtiniX=  3.3000

..VPAR   c>  
..VPAR   c>  
.OPERi   c>  
 M  =    0.0000
 Re =    400000

.OPERv   c>  
.OPERv   c>  
.OPERv   c>  
 Polar  1 newly created for accumulation
 Airfoil archived with polar: NACA 63(2)A-015                                 

Enter  polar save filename  OR  <return> for no file   s>  
 New polar save file available

Enter  polar dump filename  OR  <return> for no file   s>  
 Polar dump file will NOT be written

 Polar accumulation enabled

.OPERva   c>   Calculating unit vorticity distributions ...
 Calculating wake trajectory ...
 Calculating source influence matrix ...

 Solving BL system ...

 Initializing BL ...
    side            1  ...
 MRCHUE: Inverse mode at  50     Hk =   4.347
 MRCHUE: Inverse mode at  51     Hk =   4.959
 MRCHUE: Inverse mode at  52     Hk =   5.560
 MRCHUE: Inverse mode at  53     Hk =   6.152
 MRCHUE: Inverse mode at  54     Hk =   6.736
 MRCHUE: Inverse mode at  55     Hk =   7.313
 MRCHUE: Inverse mode at  56     Hk =   7.887
 MRCHUE: Inverse mode at  57     Hk =   8.460
 MRCHUE: Inverse mode at  58     Hk =   9.031
 MRCHUE: Inverse mode at  59     Hk =   6.667
 MRCHUE: Inverse mode at  60     Hk =   4.923
 MRCHUE: Inverse mode at  61     Hk =   3.719
 MRCHUE: Inverse mode at  62     Hk =   2.809
    side            2  ...
 MRCHUE: Inverse mode at  17     Hk =   4.039
 MRCHUE: Inverse mode at  18     Hk =   4.799
 MRCHUE: Inverse mode at  19     Hk =   5.529
 MRCHUE: Inverse mode at  20     Hk =   6.247
 MRCHUE: Inverse mode at  21     Hk =   6.974
 MRCHUE: Inverse mode at  22     Hk =   7.733
 MRCHUE: Inverse mode at  23     Hk =   8.547
 MRCHUE: Inverse mode at  24     Hk =   9.434
 MRCHUE: Inverse mode at  25     Hk =   9.122
 MRCHUE: Inverse mode at  26     Hk =   4.509
 MRCHUE: Inverse mode at  27     Hk =   2.500
 MRCHUE: Inverse mode at  85     Hk =   2.500
 MRCHUE: Inverse mode at  86     Hk =   2.500
 MRCHUE: Convergence failed at  87  side 2    Res =  0.3664E+01

 MRCHDU: Convergence failed at  87  side 2    Res =  0.1495E+01
 Side 1  free  transition at x/c =  0.7410   59
 Side 2  free  transition at x/c =  0.0377   25

   1   rms: 0.2874E+00   max: -.2855E+01   T at   25  2   RLX: 0.175
       a = -4.000      CL = -0.3277
      Cm = -0.0101     CD =  0.01085   =>   CDf =  0.00758    CDp =  0.00328

 MRCHDU: Convergence failed at  26  side 2    Res =  0.2892E+01
 MRCHDU: Convergence failed at  27  side 2    Res =  0.2064E+02
 MRCHDU: Convergence failed at  28  side 2    Res =  0.1298E+02
 MRCHDU: Convergence failed at  29  side 2    Res =  0.6870E+02
 MRCHDU: Convergence failed at  30  side 2    Res =  0.3002E+02
 MRCHDU: Convergence failed at  31  side 2    Res =  0.2943E+02
 MRCHDU: Convergence failed at  32  side 2    Res =  0.3273E+02
 MRCHDU: Convergence failed at  33  side 2    Res =  0.3653E+02
 MRCHDU: Convergence failed at  34  side 2    Res =  0.4109E+02
 MRCHDU: Convergence failed at  35  side 2    Res =  0.4667E+02
 MRCHDU: Convergence failed at  36  side 2    Res =  0.5764E+02
 MRCHDU: Convergence failed at  37  side 2    Res =  0.8615E+02
 MRCHDU: Convergence failed at  38  side 2    Res =  0.2392E+03
 MRCHDU: Convergence failed at  39  side 2    Res =  0.3214E+03
 MRCHDU: Convergence failed at  40  side 2    Res =  0.1083E+03
 MRCHDU: Convergence failed at  41  side 2    Res =  0.7107E+02
 MRCHDU: Convergence failed at  42  side 2    Res =  0.5313E+02
 MRCHDU: Convergence failed at  43  side 2    Res =  0.4139E+02
 MRCHDU: Convergence failed at  44  side 2    Res =  0.3345E+02
 MRCHDU: Convergence failed at  45  side 2    Res =  0.2798E+02
 MRCHDU: Convergence failed at  46  side 2    Res =  0.2423E+02
 MRCHDU: Convergence failed at  47  side 2    Res =  0.2178E+02
 MRCHDU: Convergence failed at  48  side 2    Res =  0.1988E+02
 MRCHDU: Convergence failed at  49  side 2    Res =  0.1830E+02
 MRCHDU: Convergence failed at  50  side 2    Res =  0.1703E+02
 MRCHDU: Convergence failed at  51  side 2    Res =  0.1587E+02
 MRCHDU: Convergence failed at  52  side 2    Res =  0.1483E+02
 MRCHDU: Convergence failed at  53  side 2    Res =  0.1409E+02
 MRCHDU: Convergence failed at  54  side 2    Res =  0.1347E+02
 MRCHDU: Convergence failed at  55  side 2    Res =  0.9874E+01
 MRCHDU: Convergence failed at  56  side 2    Res =  0.1052E+02
 MRCHDU: Convergence failed at  57  side 2    Res =  0.1170E+02
 MRCHDU: Convergence failed at  58  side 2    Res =  0.1274E+02
 MRCHDU: Convergence failed at  59  side 2    Res =  0.1385E+02
 MRCHDU: Convergence failed at  60  side 2    Res =  0.1489E+02
 MRCHDU: Convergence failed at  61  side 2    Res =  0.1574E+02
 MRCHDU: Convergence failed at  62  side 2    Res =  0.1677E+02
 MRCHDU: Convergence failed at  63  side 2    Res =  0.1853E+02
 MRCHDU: Convergence failed at  64  side 2    Res =  0.2086E+02
 MRCHDU: Convergence failed at  65  side 2    Res =  0.2391E+02
 MRCHDU: Convergence failed at  66  side 2    Res =  0.2788E+02
 MRCHDU: Convergence failed at  67  side 2    Res =  0.3326E+02
 MRCHDU: Convergence failed at  68  side 2    Res =  0.4045E+02
 MRCHDU: Convergence failed at  69  side 2    Res =  0.3240E+02
 MRCHDU: Convergence failed at  70  side 2    Res =  0.4164E+02
 MRCHDU: Convergence failed at  71  side 2    Res =  0.1065E+03
 MRCHDU: Convergence failed at  72  side 2    Res =  0.1762E+03
 MRCHDU: Convergence failed at  73  side 2    Res =  0.4962E+03
 MRCHDU: Convergence failed at  74  side 2    Res =  0.6159E+03
 MRCHDU: Convergence failed at  75  side 2    Res =  0.1919E+03
 MRCHDU: Convergence failed at  76  side 2    Res =  0.1054E+03
 MRCHDU: Convergence failed at  77  side 2    Res =  0.7011E+02
 MRCHDU: Convergence failed at  78  side 2    Res =  0.4098E+03
 MRCHDU: Convergence failed at  79  side 2    Res =  0.4115E+02
 MRCHDU: Convergence failed at  80  side 2    Res =  0.3381E+02
 MRCHDU: Convergence failed at  81  side 2    Res =  0.2750E+02
 MRCHDU: Convergence failed at  82  side 2    Res =  0.2207E+02
 MRCHDU: Convergence failed at  83  side 2    Res =  0.2754E+02
 MRCHDU: Convergence failed at  84  side 2    Res =  0.8016E+02
 MRCHDU: Convergence failed at  85  side 2    Res =  0.1698E+03
 MRCHDU: Convergence failed at  86  side 2    Res =  0.1012E+03
 MRCHDU: Convergence failed at  87  side 2    Res =  0.7753E+02
 Side 1  free  transition at x/c =  0.7459   59
 Side 2  free  transition at x/c =  0.0426   26

   2   rms: 0.7902E+00   max: 0.7120E+00   D at   89  2   RLX: 0.192
       a = -4.000      CL = -1.0571
      Cm =  0.2472     CD =  0.00533   =>   CDf =  0.00261    CDp =  0.00272

 MRCHDU: Convergence failed at  28  side 2    Res =  0.5464E-01
 Side 1  free  transition at x/c =  0.7528   60
 Side 2  free  transition at x/c =  0.0535   26

   3   rms: 0.7004E+00   max: 0.3947E+01   T at   27  2   RLX: 0.195
       a = -4.000      CL = -0.7215
      Cm =  0.1205     CD =  0.01291   =>   CDf =  0.00829    CDp =  0.00462

 MRCHDU: Convergence failed at  27  side 2    Res =  0.4753E+01
 Side 1  free  transition at x/c =  0.7647   61
 Side 2  free  transition at x/c =  0.0589   27

   4   rms: 0.3921E+00   max: -.1958E+01   D at   56  2   RLX: 0.255
       a = -4.000      CL = -0.5544
      Cm =  0.0596     CD =  0.01211   =>   CDf =  0.00755    CDp =  0.00456

 Side 1  free  transition at x/c =  0.7710   61
 Side 2  free  transition at x/c =  0.0590   27

   5   rms: 0.3132E+00   max: -.1352E+01   D at   57  2   RLX: 0.370
       a = -4.000      CL = -0.4282
      Cm =  0.0222     CD =  0.01202   =>   CDf =  0.00752    CDp =  0.00451

 Side 1  free  transition at x/c =  0.7806   62
 Side 2  free  transition at x/c =  0.0575   27

   6   rms: 0.4037E+00   max: -.2386E+01   D at   63  2   RLX: 0.210
       a = -4.000      CL = -0.3538
      Cm =  0.0030     CD =  0.01112   =>   CDf =  0.00731    CDp =  0.00381

 MRCHDU: Convergence failed at  61  side 2    Res =  0.4847E+00
 Side 1  free  transition at x/c =  0.7839   62
 Side 2  free  transition at x/c =  0.0597   27

   7   rms: 0.7519E+00   max: -.3672E+01   D at   73  2   RLX: 0.136
       a = -4.000      CL = -0.3893
      Cm =  0.0055     CD =  0.01037   =>   CDf =  0.00760    CDp =  0.00277

 Side 1  free  transition at x/c =  0.7830   62
 Side 2  free  transition at x/c =  0.0554   27

   8   rms: 0.1840E+00   max: -.6544E+00   D at   82  2   RLX: 0.534
       a = -4.000      CL = -0.3031
      Cm = -0.0143     CD =  0.01163   =>   CDf =  0.00781    CDp =  0.00382

 Side 1  free  transition at x/c =  0.7876   62
 Side 2  free  transition at x/c =  0.0553   27

   9   rms: 0.1281E+00   max: 0.5353E+00   D at   86  2   RLX: 0.775
       a = -4.000      CL = -0.2215
      Cm = -0.0286     CD =  0.01245   =>   CDf =  0.00780    CDp =  0.00466

 Side 1  free  transition at x/c =  0.7929   63
 Side 2  free  transition at x/c =  0.0576   27

  10   rms: 0.4032E-01   max: -.4027E+00   D at   66  2
       a = -4.000      CL = -0.2294
      Cm = -0.0278     CD =  0.01244   =>   CDf =  0.00741    CDp =  0.00504

 Side 1  free  transition at x/c =  0.7927   63
 Side 2  free  transition at x/c =  0.0556   27

  11   rms: 0.5572E-02   max: -.8852E-01   D at   66  2
       a = -4.000      CL = -0.2291
      Cm = -0.0278     CD =  0.01248   =>   CDf =  0.00732    CDp =  0.00515

 Side 1  free  transition at x/c =  0.7926   63
 Side 2  free  transition at x/c =  0.0555   27

  12   rms: 0.1965E-03   max: -.3510E-02   D at   66  2
       a = -4.000      CL = -0.2290
      Cm = -0.0278     CD =  0.01248   =>   CDf =  0.00733    CDp =  0.00515

 Side 1  free  transition at x/c =  0.7926   63
 Side 2  free  transition at x/c =  0.0555   27

  13   rms: 0.7498E-06   max: -.7165E-05   D at   66  2
       a = -4.000      CL = -0.2290
      Cm = -0.0278     CD =  0.01248   =>   CDf =  0.00733    CDp =  0.00515
 plradd ia,ip,cpol            1           0  2.87467684E-03

 Point added to stored polar  1
 Point written to save file  naca632a015_Re400k.base.pol                     
 Dump file unspecified or not available
 Calculating wake trajectory ...
 Calculating source influence matrix ...

 Solving BL system ...

 Side 1  free  transition at x/c =  0.7926   63
 Side 2  free  transition at x/c =  0.0555   27

   1   rms: 0.9944E-01   max: -.6050E+00   T at   27  2   RLX: 0.826
       a = -3.500      CL = -0.1970
      Cm = -0.0253     CD =  0.01178   =>   CDf =  0.00733    CDp =  0.00445

 Side 1  free  transition at x/c =  0.7798   62
 Side 2  free  transition at x/c =  0.0632   27

   2   rms: 0.2974E-01   max: -.1644E+00   D at   62  1
       a = -3.500      CL = -0.1839
      Cm = -0.0257     CD =  0.01209   =>   CDf =  0.00741    CDp =  0.00468

 Side 1  free  transition at x/c =  0.7741   63
 Side 2  free  transition at x/c =  0.0640   27

   3   rms: 0.1014E-01   max: -.9152E-01   D at   26  2
       a = -3.500      CL = -0.1844
      Cm = -0.0257     CD =  0.01202   =>   CDf =  0.00743    CDp =  0.00459

 Side 1  free  transition at x/c =  0.7749   63
 Side 2  free  transition at x/c =  0.0645   27

   4   rms: 0.3639E-03   max: 0.3021E-02   D at    4  1
       a = -3.500      CL = -0.1842
      Cm = -0.0257     CD =  0.01202   =>   CDf =  0.00742    CDp =  0.00461

 Side 1  free  transition at x/c =  0.7749   63
 Side 2  free  transition at x/c =  0.0645   27

   5   rms: 0.1123E-04   max: -.1329E-03   D at    4  1
       a = -3.500      CL = -0.1842
      Cm = -0.0257     CD =  0.01202   =>   CDf =  0.00742    CDp =  0.00460
 plradd ia,ip,cpol            2           0  2.87467684E-03

 Point added to stored polar  1
 Point written to save file  naca632a015_Re400k.base.pol                     
 Dump file unspecified or not available
 Calculating wake trajectory ...
 Calculating source influence matrix ...

 Solving BL system ...

 Side 1  free  transition at x/c =  0.7749   63
 Side 2  free  transition at x/c =  0.0645   27

   1   rms: 0.1189E+00   max: -.5821E+00   T at   27  2   RLX: 0.859
       a = -3.000      CL = -0.1529
      Cm = -0.0227     CD =  0.01111   =>   CDf =  0.00742    CDp =  0.00369

 Side 1  free  transition at x/c =  0.7624   62
 Side 2  free  transition at x/c =  0.0774   28

   2   rms: 0.2474E-01   max: -.1754E+00   D at   62  1
       a = -3.000      CL = -0.1404
      Cm = -0.0234     CD =  0.01147   =>   CDf =  0.00743    CDp =  0.00404

 Side 1  free  transition at x/c =  0.7575   62
 Side 2  free  transition at x/c =  0.0777   28

   3   rms: 0.2596E-02   max: -.3456E-01   D at   62  1
       a = -3.000      CL = -0.1397
      Cm = -0.0235     CD =  0.01149   =>   CDf =  0.00749    CDp =  0.00400

 Side 1  free  transition at x/c =  0.7581   62
 Side 2  free  transition at x/c =  0.0778   28

   4   rms: 0.5858E-04   max: -.9730E-03   D at   63  1
       a = -3.000      CL = -0.1397
      Cm = -0.0235     CD =  0.01149   =>   CDf =  0.00747    CDp =  0.00401
 plradd ia,ip,cpol            3           0  2.87467684E-03

 Point added to stored polar  1
 Point written to save file  naca632a015_Re400k.base.pol                     
 Dump file unspecified or not available
 Calculating wake trajectory ...
 Calculating source influence matrix ...

 Solving BL system ...

 Side 1  free  transition at x/c =  0.7581   62
 Side 2  free  transition at x/c =  0.0778   28

   1   rms: 0.1135E+00   max: -.6492E+00   T at   28  2   RLX: 0.770
       a = -2.500      CL = -0.1065
      Cm = -0.0216     CD =  0.01094   =>   CDf =  0.00750    CDp =  0.00344

 Side 1  free  transition at x/c =  0.7484   62
 Side 2  free  transition at x/c =  0.1047   29

   2   rms: 0.1200E+00   max: -.1646E+01   C at   29  2   RLX: 0.304
       a = -2.500      CL = -0.1044
      Cm = -0.0212     CD =  0.01090   =>   CDf =  0.00745    CDp =  0.00345

 Side 1  free  transition at x/c =  0.7463   62
 Side 2  free  transition at x/c =  0.1391   31

   3   rms: 0.3061E+00   max: -.6937E+01   C at   31  2   RLX: 0.072
       a = -2.500      CL = -0.1035
      Cm = -0.0208     CD =  0.01077   =>   CDf =  0.00730    CDp =  0.00346

 Side 1  free  transition at x/c =  0.7459   62
 Side 2  free  transition at x/c =  0.1487   31

   4   rms: 0.6740E+00   max: -.1428E+02   C at   31  2   RLX: 0.035
       a = -2.500      CL = -0.1040
      Cm = -0.0207     CD =  0.01068   =>   CDf =  0.00723    CDp =  0.00345

 Side 1  free  transition at x/c =  0.7458   62
 Side 2  free  transition at x/c =  0.1582   32

   5   rms: 0.1166E+01   max: -.2460E+02   C at   32  2   RLX: 0.020
       a = -2.500      CL = -0.1041
      Cm = -0.0206     CD =  0.01062   =>   CDf =  0.00719    CDp =  0.00343

 Side 1  free  transition at x/c =  0.7457   62
 Side 2  free  transition at x/c =  0.1669   32

   6   rms: 0.1536E+01   max: -.2937E+02   C at   32  2   RLX: 0.017
       a = -2.500      CL = -0.1046
      Cm = -0.0205     CD =  0.01057   =>   CDf =  0.00715    CDp =  0.00342

 Side 1  free  transition at x/c =  0.7457   62
 Side 2  free  transition at x/c =  0.1748   33

   7   rms: 0.1185E+01   max: -.2451E+02   C at   33  2   RLX: 0.020
       a = -2.500      CL = -0.1051
      Cm = -0.0204     CD =  0.01053   =>   CDf =  0.00713    CDp =  0.00340

 Side 1  free  transition at x/c =  0.7456   62
 Side 2  free  transition at x/c =  0.1882   34

   8   rms: 0.1092E+01   max: -.2307E+02   C at   34  2   RLX: 0.022
       a = -2.500      CL = -0.1057
      Cm = -0.0203     CD =  0.01047   =>   CDf =  0.00710    CDp =  0.00337

 Side 1  free  transition at x/c =  0.7455   62
 Side 2  free  transition at x/c =  0.2019   35

   9   rms: 0.9052E+00   max: -.1977E+02   C at   35  2   RLX: 0.025
       a = -2.500      CL = -0.1065
      Cm = -0.0202     CD =  0.01040   =>   CDf =  0.00705    CDp =  0.00335

 Side 1  free  transition at x/c =  0.7454   62
 Side 2  free  transition at x/c =  0.2170   36

  10   rms: 0.7978E+00   max: -.1753E+02   C at   36  2   RLX: 0.029
       a = -2.500      CL = -0.1074
      Cm = -0.0200     CD =  0.01032   =>   CDf =  0.00701    CDp =  0.00331

 Side 1  free  transition at x/c =  0.7453   62
 Side 2  free  transition at x/c =  0.2325   37

  11   rms: 0.7154E+00   max: -.1574E+02   C at   37  2   RLX: 0.032
       a = -2.500      CL = -0.1084
      Cm = -0.0199     CD =  0.01024   =>   CDf =  0.00696    CDp =  0.00328

 Side 1  free  transition at x/c =  0.7452   62
 Side 2  free  transition at x/c =  0.2482   38

  12   rms: 0.6725E+00   max: -.1475E+02   C at   38  2   RLX: 0.034
       a = -2.500      CL = -0.1094
      Cm = -0.0197     CD =  0.01015   =>   CDf =  0.00690    CDp =  0.00325

 Side 1  free  transition at x/c =  0.7451   62
 Side 2  free  transition at x/c =  0.2631   39

  13   rms: 0.5970E+00   max: -.1301E+02   C at   39  2   RLX: 0.038
       a = -2.500      CL = -0.1104
      Cm = -0.0195     CD =  0.01006   =>   CDf =  0.00684    CDp =  0.00322

 Side 1  free  transition at x/c =  0.7450   62
 Side 2  free  transition at x/c =  0.2771   40

  14   rms: 0.5457E+00   max: -.1186E+02   C at   40  2   RLX: 0.042
       a = -2.500      CL = -0.1115
      Cm = -0.0193     CD =  0.00998   =>   CDf =  0.00679    CDp =  0.00319

 Side 1  free  transition at x/c =  0.7448   62
 Side 2  free  transition at x/c =  0.2910   40

  15   rms: 0.7201E+00   max: -.1462E+02   C at   40  2   RLX: 0.034
       a = -2.500      CL = -0.1122
      Cm = -0.0192     CD =  0.00992   =>   CDf =  0.00673    CDp =  0.00319

 Side 1  free  transition at x/c =  0.7447   62
 Side 2  free  transition at x/c =  0.3028   41

  16   rms: 0.5909E+00   max: -.1225E+02   C at   41  2   RLX: 0.041
       a = -2.500      CL = -0.1132
      Cm = -0.0190     CD =  0.00985   =>   CDf =  0.00668    CDp =  0.00316

 Side 1  free  transition at x/c =  0.7446   62
 Side 2  free  transition at x/c =  0.3156   42

  17   rms: 0.5080E+00   max: -.1070E+02   C at   42  2   RLX: 0.047
       a = -2.500      CL = -0.1142
      Cm = -0.0189     CD =  0.00977   =>   CDf =  0.00663    CDp =  0.00314

 Side 1  free  transition at x/c =  0.7445   62
 Side 2  free  transition at x/c =  0.3304   43

  18   rms: 0.4305E+00   max: -.9065E+01   C at   43  2   RLX: 0.055
       a = -2.500      CL = -0.1153
      Cm = -0.0187     CD =  0.00968   =>   CDf =  0.00657    CDp =  0.00311

 Side 1  free  transition at x/c =  0.7444   62
 Side 2  free  transition at x/c =  0.3459   44

  19   rms: 0.3680E+00   max: -.7744E+01   C at   44  2   RLX: 0.065
       a = -2.500      CL = -0.1165
      Cm = -0.0184     CD =  0.00959   =>   CDf =  0.00651    CDp =  0.00308

 Side 1  free  transition at x/c =  0.7442   62
 Side 2  free  transition at x/c =  0.3423   44

  20   rms: 0.3124E+00   max: -.6637E+01   C at   44  2   RLX: 0.075
       a = -2.500      CL = -0.1171
      Cm = -0.0183     CD =  0.00960   =>   CDf =  0.00653    CDp =  0.00307

 Side 1  free  transition at x/c =  0.7441   62
 Side 2  free  transition at x/c =  0.3460   44

  21   rms: 0.3004E+00   max: -.6341E+01   C at   44  2   RLX: 0.079
       a = -2.500      CL = -0.1178
      Cm = -0.0181     CD =  0.00958   =>   CDf =  0.00651    CDp =  0.00307

 Side 1  free  transition at x/c =  0.7439   62
 Side 2  free  transition at x/c =  0.3564   45

  22   rms: 0.2434E+00   max: -.5131E+01   C at   45  2   RLX: 0.097
       a = -2.500      CL = -0.1188
      Cm = -0.0179     CD =  0.00951   =>   CDf =  0.00646    CDp =  0.00305

 Side 1  free  transition at x/c =  0.7437   62
 Side 2  free  transition at x/c =  0.3621   45

  23   rms: 0.2439E+00   max: -.5114E+01   C at   45  2   RLX: 0.098
       a = -2.500      CL = -0.1194
      Cm = -0.0178     CD =  0.00948   =>   CDf =  0.00643    CDp =  0.00305

 Side 1  free  transition at x/c =  0.7436   62
 Side 2  free  transition at x/c =  0.3769   46

  24   rms: 0.2318E+00   max: -.4827E+01   C at   46  2   RLX: 0.104
       a = -2.500      CL = -0.1205
      Cm = -0.0176     CD =  0.00940   =>   CDf =  0.00636    CDp =  0.00303

 Side 1  free  transition at x/c =  0.7434   62
 Side 2  free  transition at x/c =  0.3767   46

  25   rms: 0.1786E+00   max: -.3729E+01   C at   46  2   RLX: 0.134
       a = -2.500      CL = -0.1208
      Cm = -0.0175     CD =  0.00939   =>   CDf =  0.00637    CDp =  0.00303

 Side 1  free  transition at x/c =  0.7433   62
 Side 2  free  transition at x/c =  0.3913   47

  26   rms: 0.1358E+00   max: -.2817E+01   C at   47  2   RLX: 0.177
       a = -2.500      CL = -0.1217
      Cm = -0.0173     CD =  0.00931   =>   CDf =  0.00630    CDp =  0.00301

 Side 1  free  transition at x/c =  0.7431   62
 Side 2  free  transition at x/c =  0.4039   48

  27   rms: 0.9932E-01   max: -.2046E+01   C at   48  2   RLX: 0.244
       a = -2.500      CL = -0.1226
      Cm = -0.0171     CD =  0.00924   =>   CDf =  0.00626    CDp =  0.00298

 Side 1  free  transition at x/c =  0.7429   62
 Side 2  free  transition at x/c =  0.4171   48

  28   rms: 0.8559E-01   max: -.1739E+01   C at   48  2   RLX: 0.287
       a = -2.500      CL = -0.1229
      Cm = -0.0170     CD =  0.00920   =>   CDf =  0.00620    CDp =  0.00300

 Side 1  free  transition at x/c =  0.7427   62
 Side 2  free  transition at x/c =  0.4335   49

  29   rms: 0.4475E-01   max: -.9062E+00   C at   49  2   RLX: 0.552
       a = -2.500      CL = -0.1235
      Cm = -0.0168     CD =  0.00912   =>   CDf =  0.00614    CDp =  0.00298

 Side 1  free  transition at x/c =  0.7424   62
 Side 2  free  transition at x/c =  0.4650   51

  30   rms: 0.6420E-02   max: -.9836E-01   C at   51  2
       a = -2.500      CL = -0.1246
      Cm = -0.0166     CD =  0.00905   =>   CDf =  0.00602    CDp =  0.00303

 Side 1  free  transition at x/c =  0.7422   62
 Side 2  free  transition at x/c =  0.4653   51

  31   rms: 0.1700E-02   max: -.3416E-01   C at   51  2
       a = -2.500      CL = -0.1244
      Cm = -0.0166     CD =  0.00905   =>   CDf =  0.00601    CDp =  0.00304

 Side 1  free  transition at x/c =  0.7422   62
 Side 2  free  transition at x/c =  0.4665   51

  32   rms: 0.1724E-04   max: -.3477E-03   C at   51  2
       a = -2.500      CL = -0.1244
      Cm = -0.0166     CD =  0.00905   =>   CDf =  0.00601    CDp =  0.00304
 plradd ia,ip,cpol            4           0  4.46321256E-03

 Point added to stored polar  1
 Point written to save file  naca632a015_Re400k.base.pol                     
 Dump file unspecified or not available
 Calculating wake trajectory ...
 Calculating source influence matrix ...

 Solving BL system ...

 Side 1  free  transition at x/c =  0.7422   62
 Side 2  free  transition at x/c =  0.4665   51

   1   rms: 0.6148E+00   max: -.1214E+02   C at   51  2   RLX: 0.041
       a = -2.000      CL = -0.1239
      Cm = -0.0162     CD =  0.00897   =>   CDf =  0.00601    CDp =  0.00296

 Side 1  free  transition at x/c =  0.7417   62
 Side 2  free  transition at x/c =  0.4937   53

   2   rms: 0.4217E+00   max: -.7840E+01   C at   53  2   RLX: 0.064
       a = -2.000      CL = -0.1236
      Cm = -0.0156     CD =  0.00885   =>   CDf =  0.00589    CDp =  0.00296

 Side 1  free  transition at x/c =  0.7408   62
 Side 2  free  transition at x/c =  0.5240   55

   3   rms: 0.2251E+00   max: -.3129E+01   C at   55  2   RLX: 0.160
       a = -2.000      CL = -0.1199
      Cm = -0.0146     CD =  0.00875   =>   CDf =  0.00577    CDp =  0.00298

 Side 1  free  transition at x/c =  0.7389   62
 Side 2  free  transition at x/c =  0.5764   58

   4   rms: 0.1133E+00   max: -.1156E+01   C at   58  2   RLX: 0.433
       a = -2.000      CL = -0.1088
      Cm = -0.0128     CD =  0.00862   =>   CDf =  0.00558    CDp =  0.00304

 Side 1  free  transition at x/c =  0.7349   61
 Side 2  free  transition at x/c =  0.6091   60

   5   rms: 0.3727E-01   max: 0.1295E+00   D at   56  2
       a = -2.000      CL = -0.0874
      Cm = -0.0125     CD =  0.00853   =>   CDf =  0.00549    CDp =  0.00304

 Side 1  free  transition at x/c =  0.7252   61
 Side 2  free  transition at x/c =  0.6163   60

   6   rms: 0.7856E-02   max: -.8063E-01   D at   61  1
       a = -2.000      CL = -0.0867
      Cm = -0.0126     CD =  0.00854   =>   CDf =  0.00558    CDp =  0.00296

 Side 1  free  transition at x/c =  0.7269   61
 Side 2  free  transition at x/c =  0.6125   60

   7   rms: 0.6604E-03   max: -.7988E-02   C at   60  2
       a = -2.000      CL = -0.0866
      Cm = -0.0127     CD =  0.00855   =>   CDf =  0.00554    CDp =  0.00301

 Side 1  free  transition at x/c =  0.7268   61
 Side 2  free  transition at x/c =  0.6128   60

   8   rms: 0.2564E-05   max: -.3186E-04   D at   62  2
       a = -2.000      CL = -0.0866
      Cm = -0.0127     CD =  0.00855   =>   CDf =  0.00554    CDp =  0.00301
 plradd ia,ip,cpol            5           0  4.46321256E-03

 Point added to stored polar  1
 Point written to save file  naca632a015_Re400k.base.pol                     
 Dump file unspecified or not available
 Calculating wake trajectory ...
 Calculating source influence matrix ...

 Solving BL system ...

 Side 1  free  transition at x/c =  0.7268   61
 Side 2  free  transition at x/c =  0.6128   60

   1   rms: 0.9933E-01   max: 0.4652E+00   D at   61  2
       a = -1.500      CL = -0.0378
      Cm = -0.0108     CD =  0.00858   =>   CDf =  0.00555    CDp =  0.00303

 Side 1  free  transition at x/c =  0.7142   61
 Side 2  free  transition at x/c =  0.6477   61

   2   rms: 0.1538E-01   max: 0.1379E+00   D at   62  2
       a = -1.500      CL = -0.0373
      Cm = -0.0110     CD =  0.00852   =>   CDf =  0.00556    CDp =  0.00297

 Side 1  free  transition at x/c =  0.7118   61
 Side 2  free  transition at x/c =  0.6560   62

   3   rms: 0.1558E-02   max: -.2064E-01   D at   61  2
       a = -1.500      CL = -0.0372
      Cm = -0.0110     CD =  0.00853   =>   CDf =  0.00553    CDp =  0.00299

 Side 1  free  transition at x/c =  0.7120   61
 Side 2  free  transition at x/c =  0.6561   62

   4   rms: 0.1710E-04   max: 0.2301E-03   C at   62  2
       a = -1.500      CL = -0.0372
      Cm = -0.0110     CD =  0.00853   =>   CDf =  0.00553    CDp =  0.00300
 plradd ia,ip,cpol            6           0  6.31332025E-03

 Point added to stored polar  1
 Point written to save file  naca632a015_Re400k.base.pol                     
 Dump file unspecified or not available
 Calculating wake trajectory ...
 Calculating source influence matrix ...

 Solving BL system ...

 Side 1  free  transition at x/c =  0.7120   61
 Side 2  free  transition at x/c =  0.6561   62

   1   rms: 0.8994E-01   max: 0.4347E+00   D at   63  2
       a = -1.000      CL =  0.0127
      Cm = -0.0094     CD =  0.00851   =>   CDf =  0.00552    CDp =  0.00299

 Side 1  free  transition at x/c =  0.6977   61
 Side 2  free  transition at x/c =  0.6797   62

   2   rms: 0.1782E-01   max: -.1405E+00   T at   62  2
       a = -1.000      CL =  0.0135
      Cm = -0.0097     CD =  0.00857   =>   CDf =  0.00567    CDp =  0.00291

 Side 1  free  transition at x/c =  0.6973   61
 Side 2  free  transition at x/c =  0.6907   63

   3   rms: 0.5982E-02   max: 0.7894E-01   D at   63  2
       a = -1.000      CL =  0.0136
      Cm = -0.0097     CD =  0.00855   =>   CDf =  0.00552    CDp =  0.00302

 Side 1  free  transition at x/c =  0.6971   61
 Side 2  free  transition at x/c =  0.6888   63

   4   rms: 0.5027E-03   max: -.7570E-02   D at   65  2
       a = -1.000      CL =  0.0136
      Cm = -0.0097     CD =  0.00855   =>   CDf =  0.00554    CDp =  0.00301

 Side 1  free  transition at x/c =  0.6971   61
 Side 2  free  transition at x/c =  0.6886   63

   5   rms: 0.3506E-05   max: -.7046E-04   D at   65  2
       a = -1.000      CL =  0.0136
      Cm = -0.0097     CD =  0.00855   =>   CDf =  0.00555    CDp =  0.00300
 plradd ia,ip,cpol            7           0  1.63000282E-02

 Point added to stored polar  1
 Point written to save file  naca632a015_Re400k.base.pol                     
 Dump file unspecified or not available
 Calculating wake trajectory ...
 Calculating source influence matrix ...

 Solving BL system ...

 Side 1  free  transition at x/c =  0.6971   61
 Side 2  free  transition at x/c =  0.6886   63

   1   rms: 0.8860E-01   max: 0.4385E+00   D at   64  2
       a = -0.500      CL =  0.0642
      Cm = -0.0082     CD =  0.00852   =>   CDf =  0.00555    CDp =  0.00297

 Side 1  free  transition at x/c =  0.6741   60
 Side 2  free  transition at x/c =  0.7137   64

   2   rms: 0.2558E-01   max: -.3244E+00   D at   60  1
       a = -0.500      CL =  0.0636
      Cm = -0.0080     CD =  0.00857   =>   CDf =  0.00568    CDp =  0.00289

 Side 1  free  transition at x/c =  0.6803   60
 Side 2  free  transition at x/c =  0.7188   65

   3   rms: 0.5841E-02   max: -.5647E-01   D at   64  2
       a = -0.500      CL =  0.0635
      Cm = -0.0080     CD =  0.00857   =>   CDf =  0.00559    CDp =  0.00298

 Side 1  free  transition at x/c =  0.6786   60
 Side 2  free  transition at x/c =  0.7193   65

   4   rms: 0.4113E-03   max: -.4971E-02   D at   66  2
       a = -0.500      CL =  0.0634
      Cm = -0.0080     CD =  0.00858   =>   CDf =  0.00558    CDp =  0.00300

 Side 1  free  transition at x/c =  0.6786   60
 Side 2  free  transition at x/c =  0.7192   65

   5   rms: 0.2539E-05   max: -.3847E-04   D at   66  2
       a = -0.500      CL =  0.0634
      Cm = -0.0080     CD =  0.00858   =>   CDf =  0.00558    CDp =  0.00300
 plradd ia,ip,cpol            8           0  0.13164614    

 Point added to stored polar  1
 Point written to save file  naca632a015_Re400k.base.pol                     
 Dump file unspecified or not available
 Calculating wake trajectory ...
 Calculating source influence matrix ...

 Solving BL system ...

 Side 1  free  transition at x/c =  0.6786   60
 Side 2  free  transition at x/c =  0.7192   65

   1   rms: 0.1012E+00   max: 0.5889E+00   D at   66  2
       a =  0.000      CL =  0.1136
      Cm = -0.0062     CD =  0.00840   =>   CDf =  0.00556    CDp =  0.00284

 Side 1  free  transition at x/c =  0.6554   60
 Side 2  free  transition at x/c =  0.7303   64

   2   rms: 0.6326E-01   max: -.5794E+00   D at   64  2   RLX: 0.863
       a =  0.000      CL =  0.1105
      Cm = -0.0060     CD =  0.00913   =>   CDf =  0.00581    CDp =  0.00332

 Side 1  free  transition at x/c =  0.6572   60
 Side 2  free  transition at x/c =  0.7491   65

   3   rms: 0.1503E-01   max: -.2128E+00   C at   65  2
       a =  0.000      CL =  0.1144
      Cm = -0.0066     CD =  0.00857   =>   CDf =  0.00565    CDp =  0.00292

 Side 1  free  transition at x/c =  0.6562   60
 Side 2  free  transition at x/c =  0.7433   65

   4   rms: 0.1811E-02   max: 0.1899E-01   D at   67  2
       a =  0.000      CL =  0.1135
      Cm = -0.0064     CD =  0.00858   =>   CDf =  0.00564    CDp =  0.00294

 Side 1  free  transition at x/c =  0.6562   60
 Side 2  free  transition at x/c =  0.7439   65

   5   rms: 0.2737E-04   max: -.4983E-03   D at   67  2
       a =  0.000      CL =  0.1135
      Cm = -0.0064     CD =  0.00858   =>   CDf =  0.00563    CDp =  0.00295
 plradd ia,ip,cpol            9           0  0.13164614    

 Point added to stored polar  1
 Point written to save file  naca632a015_Re400k.base.pol                     
 Dump file unspecified or not available
 Calculating wake trajectory ...
 Calculating source influence matrix ...

 Solving BL system ...

 Side 1  free  transition at x/c =  0.6562   60
 Side 2  free  transition at x/c =  0.7439   65

   1   rms: 0.8345E-01   max: -.2845E+00   T at   65  2
       a =  0.500      CL =  0.1665
      Cm = -0.0056     CD =  0.00869   =>   CDf =  0.00560    CDp =  0.00309

 Side 1  free  transition at x/c =  0.6442   60
 Side 2  free  transition at x/c =  0.7581   65

   2   rms: 0.1487E-01   max: -.1847E+00   D at   62  1
       a =  0.500      CL =  0.1663
      Cm = -0.0057     CD =  0.00853   =>   CDf =  0.00564    CDp =  0.00288

 Side 1  free  transition at x/c =  0.6389   60
 Side 2  free  transition at x/c =  0.7597   65

   3   rms: 0.2382E-02   max: 0.2761E-01   D at   61  1
       a =  0.500      CL =  0.1664
      Cm = -0.0057     CD =  0.00858   =>   CDf =  0.00569    CDp =  0.00289

 Side 1  free  transition at x/c =  0.6394   60
 Side 2  free  transition at x/c =  0.7596   65

   4   rms: 0.6594E-04   max: -.1338E-02   D at   61  1
       a =  0.500      CL =  0.1665
      Cm = -0.0057     CD =  0.00858   =>   CDf =  0.00567    CDp =  0.00290
 plradd ia,ip,cpol           10           0  0.13164614    

 Point added to stored polar  1
 Point written to save file  naca632a015_Re400k.base.pol                     
 Dump file unspecified or not available
 Calculating wake trajectory ...
 Calculating source influence matrix ...

 Solving BL system ...

 Side 1  free  transition at x/c =  0.6394   60
 Side 2  free  transition at x/c =  0.7596   65

   1   rms: 0.8178E-01   max: -.2819E+00   T at   65  2
       a =  1.000      CL =  0.2200
      Cm = -0.0051     CD =  0.00869   =>   CDf =  0.00563    CDp =  0.00305

 Side 1  free  transition at x/c =  0.6239   60
 Side 2  free  transition at x/c =  0.7742   65

   2   rms: 0.2032E-01   max: -.2541E+00   D at   60  1
       a =  1.000      CL =  0.2192
      Cm = -0.0050     CD =  0.00854   =>   CDf =  0.00572    CDp =  0.00282

 Side 1  free  transition at x/c =  0.6232   60
 Side 2  free  transition at x/c =  0.7760   65

   3   rms: 0.1753E-02   max: 0.1857E-01   C at   60  1
       a =  1.000      CL =  0.2192
      Cm = -0.0050     CD =  0.00859   =>   CDf =  0.00569    CDp =  0.00290

 Side 1  free  transition at x/c =  0.6228   60
 Side 2  free  transition at x/c =  0.7759   65

   4   rms: 0.3304E-04   max: -.5309E-03   D at   62  1
       a =  1.000      CL =  0.2192
      Cm = -0.0050     CD =  0.00859   =>   CDf =  0.00570    CDp =  0.00289
 plradd ia,ip,cpol           11           0  0.11877004    

 Point added to stored polar  1
 Point written to save file  naca632a015_Re400k.base.pol                     
 Dump file unspecified or not available
 Calculating wake trajectory ...
 Calculating source influence matrix ...

 Solving BL system ...

 Side 1  free  transition at x/c =  0.6227   60
 Side 2  free  transition at x/c =  0.7759   65

   1   rms: 0.8233E-01   max: -.2732E+00   T at   65  2
       a =  1.500      CL =  0.2725
      Cm = -0.0043     CD =  0.00870   =>   CDf =  0.00570    CDp =  0.00300

 Side 1  free  transition at x/c =  0.6082   59
 Side 2  free  transition at x/c =  0.7897   66

   2   rms: 0.1995E-01   max: -.2144E+00   D at   59  1
       a =  1.500      CL =  0.2717
      Cm = -0.0042     CD =  0.00855   =>   CDf =  0.00574    CDp =  0.00281

 Side 1  free  transition at x/c =  0.6062   59
 Side 2  free  transition at x/c =  0.7927   66

   3   rms: 0.1162E-02   max: -.1338E-01   D at   68  2
       a =  1.500      CL =  0.2718
      Cm = -0.0042     CD =  0.00861   =>   CDf =  0.00570    CDp =  0.00291

 Side 1  free  transition at x/c =  0.6060   59
 Side 2  free  transition at x/c =  0.7923   66

   4   rms: 0.1096E-04   max: -.1201E-03   D at   66  2
       a =  1.500      CL =  0.2718
      Cm = -0.0042     CD =  0.00861   =>   CDf =  0.00571    CDp =  0.00290
 plradd ia,ip,cpol           12           0  0.11877004    

 Point added to stored polar  1
 Point written to save file  naca632a015_Re400k.base.pol                     
 Dump file unspecified or not available
 Calculating wake trajectory ...
 Calculating source influence matrix ...

 Solving BL system ...

 Side 1  free  transition at x/c =  0.6060   59
 Side 2  free  transition at x/c =  0.7923   66

   1   rms: 0.8293E-01   max: -.2590E+00   T at   66  2
       a =  2.000      CL =  0.3250
      Cm = -0.0035     CD =  0.00872   =>   CDf =  0.00565    CDp =  0.00307

 Side 1  free  transition at x/c =  0.5889   59
 Side 2  free  transition at x/c =  0.8065   66

   2   rms: 0.2592E-01   max: -.2996E+00   D at   59  1
       a =  2.000      CL =  0.3238
      Cm = -0.0033     CD =  0.00857   =>   CDf =  0.00575    CDp =  0.00282

 Side 1  free  transition at x/c =  0.5893   59
 Side 2  free  transition at x/c =  0.8103   66

   3   rms: 0.3836E-02   max: 0.4209E-01   C at   59  1
       a =  2.000      CL =  0.3238
      Cm = -0.0033     CD =  0.00864   =>   CDf =  0.00568    CDp =  0.00297

 Side 1  free  transition at x/c =  0.5883   59
 Side 2  free  transition at x/c =  0.8098   66

   4   rms: 0.1509E-03   max: -.2293E-02   D at   60  1
       a =  2.000      CL =  0.3239
      Cm = -0.0033     CD =  0.00865   =>   CDf =  0.00571    CDp =  0.00294

 Side 1  free  transition at x/c =  0.5883   59
 Side 2  free  transition at x/c =  0.8098   66

   5   rms: 0.8739E-06   max: -.7082E-05   D at   67  2
       a =  2.000      CL =  0.3239
      Cm = -0.0033     CD =  0.00865   =>   CDf =  0.00571    CDp =  0.00294
 plradd ia,ip,cpol           13           0  0.11877004    

 Point added to stored polar  1
 Point written to save file  naca632a015_Re400k.base.pol                     
 Dump file unspecified or not available
 Calculating wake trajectory ...
 Calculating source influence matrix ...

 Solving BL system ...

 Side 1  free  transition at x/c =  0.5883   59
 Side 2  free  transition at x/c =  0.8098   66

   1   rms: 0.8343E-01   max: -.2496E+00   T at   66  2
       a =  2.500      CL =  0.3767
      Cm = -0.0026     CD =  0.00880   =>   CDf =  0.00564    CDp =  0.00317

 Side 1  free  transition at x/c =  0.5718   59
 Side 2  free  transition at x/c =  0.8241   66

   2   rms: 0.2643E-01   max: -.3065E+00   D at   59  1
       a =  2.500      CL =  0.3757
      Cm = -0.0024     CD =  0.00860   =>   CDf =  0.00571    CDp =  0.00288

 Side 1  free  transition at x/c =  0.5715   59
 Side 2  free  transition at x/c =  0.8284   66

   3   rms: 0.4268E-02   max: 0.4782E-01   C at   59  1
       a =  2.500      CL =  0.3758
      Cm = -0.0025     CD =  0.00870   =>   CDf =  0.00566    CDp =  0.00304

 Side 1  free  transition at x/c =  0.5705   58
 Side 2  free  transition at x/c =  0.8278   66

   4   rms: 0.9775E-03   max: 0.1483E-01   D at   59  1
       a =  2.500      CL =  0.3758
      Cm = -0.0025     CD =  0.00868   =>   CDf =  0.00568    CDp =  0.00301

 Side 1  free  transition at x/c =  0.5701   58
 Side 2  free  transition at x/c =  0.8278   66

   5   rms: 0.7734E-05   max: 0.1280E-03   D at   60  1
       a =  2.500      CL =  0.3758
      Cm = -0.0025     CD =  0.00868   =>   CDf =  0.00567    CDp =  0.00301
 plradd ia,ip,cpol           14           0  0.10645500    

 Point added to stored polar  1
 Point written to save file  naca632a015_Re400k.base.pol                     
 Dump file unspecified or not available
 Calculating wake trajectory ...
 Calculating source influence matrix ...

 Solving BL system ...

 Side 1  free  transition at x/c =  0.5701   58
 Side 2  free  transition at x/c =  0.8278   66

   1   rms: 0.7960E-01   max: -.2436E+00   T at   66  2
       a =  3.000      CL =  0.4281
      Cm = -0.0017     CD =  0.00863   =>   CDf =  0.00567    CDp =  0.00296

 Side 1  free  transition at x/c =  0.5453   57
 Side 2  free  transition at x/c =  0.8446   67

   2   rms: 0.1997E-01   max: -.1990E+00   D at   57  1
       a =  3.000      CL =  0.4267
      Cm = -0.0014     CD =  0.00869   =>   CDf =  0.00574    CDp =  0.00295

 Side 1  free  transition at x/c =  0.5515   57
 Side 2  free  transition at x/c =  0.8481   67

   3   rms: 0.2567E-02   max: -.3263E-01   D at   59  1
       a =  3.000      CL =  0.4272
      Cm = -0.0015     CD =  0.00873   =>   CDf =  0.00560    CDp =  0.00312

 Side 1  free  transition at x/c =  0.5500   57
 Side 2  free  transition at x/c =  0.8478   67

   4   rms: 0.8080E-04   max: -.9518E-03   C at   57  1
       a =  3.000      CL =  0.4272
      Cm = -0.0015     CD =  0.00873   =>   CDf =  0.00561    CDp =  0.00311
 plradd ia,ip,cpol           15           0  0.10645500    

 Point added to stored polar  1
 Point written to save file  naca632a015_Re400k.base.pol                     
 Dump file unspecified or not available
 Calculating wake trajectory ...
 Calculating source influence matrix ...

 Solving BL system ...

 Side 1  free  transition at x/c =  0.5500   57
 Side 2  free  transition at x/c =  0.8478   67

   1   rms: 0.7934E-01   max: -.2388E+00   T at   67  2
       a =  3.500      CL =  0.4780
      Cm = -0.0004     CD =  0.00876   =>   CDf =  0.00553    CDp =  0.00323

 Side 1  free  transition at x/c =  0.5241   57
 Side 2  free  transition at x/c =  0.8683   67

   2   rms: 0.1941E-01   max: -.2968E+00   D at   57  1
       a =  3.500      CL =  0.4773
      Cm = -0.0002     CD =  0.00879   =>   CDf =  0.00567    CDp =  0.00313

 Side 1  free  transition at x/c =  0.5293   57
 Side 2  free  transition at x/c =  0.8701   67

   3   rms: 0.5391E-02   max: 0.8242E-01   C at   57  1
       a =  3.500      CL =  0.4778
      Cm = -0.0004     CD =  0.00882   =>   CDf =  0.00555    CDp =  0.00327

 Side 1  free  transition at x/c =  0.5273   57
 Side 2  free  transition at x/c =  0.8702   67

   4   rms: 0.1941E-03   max: -.3436E-02   D at   59  1
       a =  3.500      CL =  0.4778
      Cm = -0.0004     CD =  0.00882   =>   CDf =  0.00558    CDp =  0.00324

 Side 1  free  transition at x/c =  0.5272   57
 Side 2  free  transition at x/c =  0.8702   67

   5   rms: 0.1273E-05   max: 0.6188E-05   D at    4  1
       a =  3.500      CL =  0.4778
      Cm = -0.0004     CD =  0.00882   =>   CDf =  0.00558    CDp =  0.00324
 plradd ia,ip,cpol           16           0  0.10645500    

 Point added to stored polar  1
 Point written to save file  naca632a015_Re400k.base.pol                     
 Dump file unspecified or not available
 Calculating wake trajectory ...
 Calculating source influence matrix ...

 Solving BL system ...

 Side 1  free  transition at x/c =  0.5272   57
 Side 2  free  transition at x/c =  0.8702   67

   1   rms: 0.8006E-01   max: -.2552E+00   T at   67  2
       a =  4.000      CL =  0.5248
      Cm =  0.0015     CD =  0.00898   =>   CDf =  0.00549    CDp =  0.00349

 Side 1  free  transition at x/c =  0.5034   56
 Side 2  free  transition at x/c =  0.8979   68

   2   rms: 0.2328E-01   max: -.3292E+00   D at   57  1
       a =  4.000      CL =  0.5286
      Cm =  0.0007     CD =  0.00894   =>   CDf =  0.00555    CDp =  0.00338

 Side 1  free  transition at x/c =  0.5045   56
 Side 2  free  transition at x/c =  0.8950   68

   3   rms: 0.3612E-02   max: 0.3589E-01   C at   56  1
       a =  4.000      CL =  0.5300
      Cm =  0.0004     CD =  0.00898   =>   CDf =  0.00553    CDp =  0.00345

 Side 1  free  transition at x/c =  0.5029   56
 Side 2  free  transition at x/c =  0.8938   68

   4   rms: 0.1049E-03   max: -.1104E-02   C at   56  1
       a =  4.000      CL =  0.5300
      Cm =  0.0004     CD =  0.00898   =>   CDf =  0.00554    CDp =  0.00343

 Side 1  free  transition at x/c =  0.5029   56
 Side 2  free  transition at x/c =  0.8938   68

   5   rms: 0.9543E-06   max: 0.5132E-05   D at    4  1
       a =  4.000      CL =  0.5300
      Cm =  0.0004     CD =  0.00898   =>   CDf =  0.00554    CDp =  0.00343
 plradd ia,ip,cpol           17           0  7.28328601E-02

 Point added to stored polar  1
 Point written to save file  naca632a015_Re400k.base.pol                     
 Dump file unspecified or not available
 Calculating wake trajectory ...
 Calculating source influence matrix ...

 Solving BL system ...

 Side 1  free  transition at x/c =  0.5029   56
 Side 2  free  transition at x/c =  0.8938   68

   1   rms: 0.8754E-01   max: -.3075E+00   C at   68  2
       a =  4.500      CL =  0.5881
      Cm = -0.0000     CD =  0.00907   =>   CDf =  0.00555    CDp =  0.00352

 Side 1  free  transition at x/c =  0.4659   54
 Side 2  free  transition at x/c =  0.9125   69

   2   rms: 0.2088E-01   max: -.1946E+00   C at   69  2
       a =  4.500      CL =  0.5819
      Cm =  0.0012     CD =  0.00919   =>   CDf =  0.00564    CDp =  0.00355

 Side 1  free  transition at x/c =  0.4725   54
 Side 2  free  transition at x/c =  0.9208   69

   3   rms: 0.4352E-02   max: -.2908E-01   D at   69  2
       a =  4.500      CL =  0.5861
      Cm =  0.0003     CD =  0.00923   =>   CDf =  0.00554    CDp =  0.00369

 Side 1  free  transition at x/c =  0.4704   54
 Side 2  free  transition at x/c =  0.9187   69

   4   rms: 0.5765E-03   max: -.5171E-02   C at   69  2
       a =  4.500      CL =  0.5857
      Cm =  0.0004     CD =  0.00922   =>   CDf =  0.00554    CDp =  0.00368

 Side 1  free  transition at x/c =  0.4705   54
 Side 2  free  transition at x/c =  0.9190   69

   5   rms: 0.3966E-05   max: -.4181E-04   C at   69  2
       a =  4.500      CL =  0.5857
      Cm =  0.0004     CD =  0.00922   =>   CDf =  0.00554    CDp =  0.00369
 plradd ia,ip,cpol           18           0  6.32516593E-02

 Point added to stored polar  1
 Point written to save file  naca632a015_Re400k.base.pol                     
 Dump file unspecified or not available
 Calculating wake trajectory ...
 Calculating source influence matrix ...

 Solving BL system ...

 Side 1  free  transition at x/c =  0.4705   54
 Side 2  free  transition at x/c =  0.9190   69

   1   rms: 0.8560E-01   max: -.2317E+00   T at   69  2
       a =  5.000      CL =  0.6405
      Cm =  0.0005     CD =  0.00939   =>   CDf =  0.00544    CDp =  0.00394

 Side 1  free  transition at x/c =  0.4242   52
 Side 2  free  transition at x/c =  0.9469   70

   2   rms: 0.2441E-01   max: -.3200E+00   D at   53  1
       a =  5.000      CL =  0.6459
      Cm = -0.0008     CD =  0.00966   =>   CDf =  0.00567    CDp =  0.00399

 Side 1  free  transition at x/c =  0.4259   53
 Side 2  free  transition at x/c =  0.9426   70

   3   rms: 0.3271E-02   max: 0.2447E-01   C at   53  1
       a =  5.000      CL =  0.6468
      Cm = -0.0010     CD =  0.00967   =>   CDf =  0.00563    CDp =  0.00404

 Side 1  free  transition at x/c =  0.4243   52
 Side 2  free  transition at x/c =  0.9418   70

   4   rms: 0.2488E-03   max: -.3519E-02   D at   54  1
       a =  5.000      CL =  0.6469
      Cm = -0.0010     CD =  0.00966   =>   CDf =  0.00563    CDp =  0.00403

 Side 1  free  transition at x/c =  0.4241   52
 Side 2  free  transition at x/c =  0.9417   70

   5   rms: 0.2021E-05   max: -.3339E-04   C at   52  1
       a =  5.000      CL =  0.6469
      Cm = -0.0010     CD =  0.00966   =>   CDf =  0.00563    CDp =  0.00403
 plradd ia,ip,cpol           19           0  2.87218783E-02

 Point added to stored polar  1
 Point written to save file  naca632a015_Re400k.base.pol                     
 Dump file unspecified or not available
 Calculating wake trajectory ...
 Calculating source influence matrix ...

 Solving BL system ...

 Side 1  free  transition at x/c =  0.4241   52
 Side 2  free  transition at x/c =  0.9417   70

   1   rms: 0.1065E+00   max: 0.5708E+00   C at   52  1
       a =  5.500      CL =  0.7250
      Cm = -0.0061     CD =  0.01008   =>   CDf =  0.00553    CDp =  0.00455

 Side 1  free  transition at x/c =  0.3436   48
 Side 2  free  transition at x/c =  0.9521   69

   2   rms: 0.3837E-01   max: -.2727E+00   C at   48  1
       a =  5.500      CL =  0.6992
      Cm = -0.0010     CD =  0.01049   =>   CDf =  0.00601    CDp =  0.00448

 Side 1  free  transition at x/c =  0.3583   49
 Side 2  free  transition at x/c =  0.9693   70

   3   rms: 0.3517E-01   max: 0.3085E+00   C at   49  1
       a =  5.500      CL =  0.7105
      Cm = -0.0034     CD =  0.01045   =>   CDf =  0.00587    CDp =  0.00458

 Side 1  free  transition at x/c =  0.3494   49
 Side 2  free  transition at x/c =  0.9589   70

   4   rms: 0.2653E-02   max: -.3912E-01   D at   70  2
       a =  5.500      CL =  0.7124
      Cm = -0.0039     CD =  0.01051   =>   CDf =  0.00593    CDp =  0.00458

 Side 1  free  transition at x/c =  0.3489   49
 Side 2  free  transition at x/c =  0.9583   70

   5   rms: 0.1763E-03   max: -.1620E-02   D at   73  2
       a =  5.500      CL =  0.7124
      Cm = -0.0038     CD =  0.01051   =>   CDf =  0.00593    CDp =  0.00458

 Side 1  free  transition at x/c =  0.3489   49
 Side 2  free  transition at x/c =  0.9584   70

   6   rms: 0.8589E-06   max: -.5530E-05   C at   49  1
       a =  5.500      CL =  0.7124
      Cm = -0.0038     CD =  0.01051   =>   CDf =  0.00593    CDp =  0.00458
 plradd ia,ip,cpol           20           0  2.87218783E-02

 Point added to stored polar  1
 Point written to save file  naca632a015_Re400k.base.pol                     
 Dump file unspecified or not available
 Calculating wake trajectory ...
 Calculating source influence matrix ...

 Solving BL system ...

 Side 1  free  transition at x/c =  0.3489   49
 Side 2  free  transition at x/c =  0.9584   70

   1   rms: 0.1535E+00   max: 0.2092E+01   C at   49  1   RLX: 0.531
       a =  6.000      CL =  0.7489
      Cm = -0.0060     CD =  0.01120   =>   CDf =  0.00593    CDp =  0.00526

 Side 1  free  transition at x/c =  0.3137   46
 Side 2  free  transition at x/c =  0.9639   70

   2   rms: 0.4705E-01   max: -.1820E+00   D at   46  1
       a =  6.000      CL =  0.7824
      Cm = -0.0077     CD =  0.01138   =>   CDf =  0.00614    CDp =  0.00524

 Side 1  free  transition at x/c =  0.2888   45
 Side 2  free  transition at x/c =  0.9701   70

   3   rms: 0.2192E-01   max: -.1963E+00   C at   45  1
       a =  6.000      CL =  0.7672
      Cm = -0.0045     CD =  0.01149   =>   CDf =  0.00626    CDp =  0.00522

 Side 1  free  transition at x/c =  0.2951   45
 Side 2  free  transition at x/c =  0.9826   71

   4   rms: 0.3348E-01   max: 0.3505E+00   D at   73  2
       a =  6.000      CL =  0.7887
      Cm = -0.0093     CD =  0.01153   =>   CDf =  0.00622    CDp =  0.00531

 Side 1  free  transition at x/c =  0.2895   45
 Side 2  free  transition at x/c =  0.9640   70

   5   rms: 0.2206E-01   max: -.1794E+00   D at   73  2
       a =  6.000      CL =  0.7755
      Cm = -0.0064     CD =  0.01150   =>   CDf =  0.00624    CDp =  0.00526

 Side 1  free  transition at x/c =  0.2930   45
 Side 2  free  transition at x/c =  0.9754   71

   6   rms: 0.1274E-01   max: 0.1330E+00   D at   73  2
       a =  6.000      CL =  0.7794
      Cm = -0.0072     CD =  0.01152   =>   CDf =  0.00622    CDp =  0.00530

 Side 1  free  transition at x/c =  0.2921   45
 Side 2  free  transition at x/c =  0.9714   71

   7   rms: 0.1245E-02   max: -.1371E-01   D at   71  2
       a =  6.000      CL =  0.7792
      Cm = -0.0072     CD =  0.01153   =>   CDf =  0.00623    CDp =  0.00531

 Side 1  free  transition at x/c =  0.2922   45
 Side 2  free  transition at x/c =  0.9717   71

   8   rms: 0.8442E-05   max: 0.7090E-04   T at   71  2
       a =  6.000      CL =  0.7793
      Cm = -0.0072     CD =  0.01153   =>   CDf =  0.00623    CDp =  0.00531
 plradd ia,ip,cpol           21           0  2.87218783E-02

 Point added to stored polar  1
 Point written to save file  naca632a015_Re400k.base.pol                     
 Dump file unspecified or not available
 Calculating wake trajectory ...
 Calculating source influence matrix ...

 Solving BL system ...

 Side 1  free  transition at x/c =  0.2922   45
 Side 2  free  transition at x/c =  0.9717   71

   1   rms: 0.1123E+00   max: 0.1002E+01   C at   45  1
       a =  6.500      CL =  0.8553
      Cm = -0.0125     CD =  0.01242   =>   CDf =  0.00611    CDp =  0.00631

 Side 1  free  transition at x/c =  0.2578   44
 Side 2  free  transition at x/c =  0.9782   70

   2   rms: 0.2258E-01   max: 0.2771E+00   D at   45  1
       a =  6.500      CL =  0.8490
      Cm = -0.0112     CD =  0.01241   =>   CDf =  0.00641    CDp =  0.00600

 Side 1  free  transition at x/c =  0.2608   44
 Side 2  free  transition at x/c =  0.9829   70

   3   rms: 0.3089E-02   max: -.3333E-01   D at   45  1
       a =  6.500      CL =  0.8476
      Cm = -0.0108     CD =  0.01240   =>   CDf =  0.00635    CDp =  0.00605

 Side 1  free  transition at x/c =  0.2602   44
 Side 2  free  transition at x/c =  0.9844   71

   4   rms: 0.6524E-02   max: 0.6409E-01   D at   72  2
       a =  6.500      CL =  0.8487
      Cm = -0.0111     CD =  0.01239   =>   CDf =  0.00636    CDp =  0.00603

 Side 1  free  transition at x/c =  0.2600   44
 Side 2  free  transition at x/c =  0.9832   71

   5   rms: 0.2507E-03   max: -.3853E-02   D at   71  2
       a =  6.500      CL =  0.8487
      Cm = -0.0111     CD =  0.01240   =>   CDf =  0.00636    CDp =  0.00604

 Side 1  free  transition at x/c =  0.2600   44
 Side 2  free  transition at x/c =  0.9833   71

   6   rms: 0.9952E-06   max: 0.8524E-05   T at   71  2
       a =  6.500      CL =  0.8487
      Cm = -0.0111     CD =  0.01240   =>   CDf =  0.00636    CDp =  0.00604
 plradd ia,ip,cpol           22           0  2.87218783E-02

 Point added to stored polar  1
 Point written to save file  naca632a015_Re400k.base.pol                     
 Dump file unspecified or not available
 Calculating wake trajectory ...
 Calculating source influence matrix ...

 Solving BL system ...

 Side 1  free  transition at x/c =  0.2600   44
 Side 2  free  transition at x/c =  0.9833   71

   1   rms: 0.1031E+00   max: 0.5382E+00   C at   44  1
       a =  7.000      CL =  0.9271
      Cm = -0.0169     CD =  0.01314   =>   CDf =  0.00623    CDp =  0.00691

 Side 1  free  transition at x/c =  0.2336   43
 Side 2  free  transition at x/c =  0.9899   70

   2   rms: 0.1686E-01   max: 0.2778E+00   D at   44  1
       a =  7.000      CL =  0.9219
      Cm = -0.0160     CD =  0.01329   =>   CDf =  0.00653    CDp =  0.00676

 Side 1  free  transition at x/c =  0.2353   44
 Side 2  free  transition at x/c =  0.9927   70

   3   rms: 0.7112E-02   max: -.8501E-01   D at   43  1
       a =  7.000      CL =  0.9225
      Cm = -0.0160     CD =  0.01322   =>   CDf =  0.00650    CDp =  0.00671

 Side 1  free  transition at x/c =  0.2359   44
 Side 2  free  transition at x/c =  0.9926   70

   4   rms: 0.8140E-03   max: -.8754E-02   D at   45  1
       a =  7.000      CL =  0.9225
      Cm = -0.0160     CD =  0.01323   =>   CDf =  0.00646    CDp =  0.00677

 Side 1  free  transition at x/c =  0.2356   44
 Side 2  free  transition at x/c =  0.9926   70

   5   rms: 0.1227E-04   max: -.1212E-03   D at   45  1
       a =  7.000      CL =  0.9225
      Cm = -0.0160     CD =  0.01323   =>   CDf =  0.00647    CDp =  0.00676
 plradd ia,ip,cpol           23           0  1.12566687E-02

 Point added to stored polar  1
 Point written to save file  naca632a015_Re400k.base.pol                     
 Dump file unspecified or not available
 Calculating wake trajectory ...
 Calculating source influence matrix ...

 Solving BL system ...

 Side 1  free  transition at x/c =  0.2356   44
 Side 2  free  transition at x/c =  0.9926   70

   1   rms: 0.1029E+00   max: -.4723E+00   D at   44  1
       a =  7.500      CL =  0.9896
      Cm = -0.0198     CD =  0.01441   =>   CDf =  0.00633    CDp =  0.00808

 Side 1  free  transition at x/c =  0.2175   43
 Side 2 forced transition at x/c =  1.0000   70

   2   rms: 0.2284E-01   max: 0.3383E+00   D at   44  1
       a =  7.500      CL =  0.9931
      Cm = -0.0204     CD =  0.01399   =>   CDf =  0.00652    CDp =  0.00747

 Side 1  free  transition at x/c =  0.2182   43
 Side 2 forced transition at x/c =  1.0000   70

   3   rms: 0.1934E-02   max: -.1989E-01   D at   44  1
       a =  7.500      CL =  0.9939
      Cm = -0.0205     CD =  0.01394   =>   CDf =  0.00648    CDp =  0.00746

 Side 1  free  transition at x/c =  0.2176   43
 Side 2 forced transition at x/c =  1.0000   70

   4   rms: 0.3528E-04   max: -.3072E-03   C at   43  1
       a =  7.500      CL =  0.9938
      Cm = -0.0205     CD =  0.01394   =>   CDf =  0.00648    CDp =  0.00746
 plradd ia,ip,cpol           24           0  1.12566687E-02

 Point added to stored polar  1
 Point written to save file  naca632a015_Re400k.base.pol                     
 Dump file unspecified or not available
 Calculating wake trajectory ...
 Calculating source influence matrix ...

 Solving BL system ...

 Side 1  free  transition at x/c =  0.2176   43
 Side 2 forced transition at x/c =  1.0000   70

   1   rms: 0.7516E-01   max: -.3294E+00   D at   65  2
       a =  8.000      CL =  1.0150
      Cm = -0.0146     CD =  0.01417   =>   CDf =  0.00648    CDp =  0.00769

 Side 1  free  transition at x/c =  0.2040   43
 Side 2 forced transition at x/c =  1.0000   70

   2   rms: 0.1637E-01   max: 0.1032E+00   D at   64  2
       a =  8.000      CL =  1.0121
      Cm = -0.0140     CD =  0.01434   =>   CDf =  0.00657    CDp =  0.00778

 Side 1  free  transition at x/c =  0.2063   43
 Side 2 forced transition at x/c =  1.0000   70

   3   rms: 0.3707E-02   max: 0.2519E-01   D at   64  2
       a =  8.000      CL =  1.0129
      Cm = -0.0142     CD =  0.01438   =>   CDf =  0.00648    CDp =  0.00791

 Side 1  free  transition at x/c =  0.2057   43
 Side 2 forced transition at x/c =  1.0000   70

   4   rms: 0.1296E-03   max: 0.1050E-02   D at   64  2
       a =  8.000      CL =  1.0129
      Cm = -0.0142     CD =  0.01439   =>   CDf =  0.00648    CDp =  0.00791

 Side 1  free  transition at x/c =  0.2057   43
 Side 2 forced transition at x/c =  1.0000   70

   5   rms: 0.6527E-06   max: -.2905E-05   D at   72  2
       a =  8.000      CL =  1.0129
      Cm = -0.0142     CD =  0.01439   =>   CDf =  0.00648    CDp =  0.00791
 plradd ia,ip,cpol           25           0  1.12566687E-02

 Point added to stored polar  1
 Point written to save file  naca632a015_Re400k.base.pol                     
 Dump file unspecified or not available
 Calculating wake trajectory ...
 Calculating source influence matrix ...

 Solving BL system ...

 Side 1  free  transition at x/c =  0.2057   43
 Side 2 forced transition at x/c =  1.0000   70

   1   rms: 0.7467E-01   max: -.3201E+00   D at   43  1
       a =  8.500      CL =  1.0291
      Cm = -0.0074     CD =  0.01517   =>   CDf =  0.00632    CDp =  0.00885

 Side 1  free  transition at x/c =  0.1951   43
 Side 2 forced transition at x/c =  1.0000   69

   2   rms: 0.2795E-01   max: -.2682E+00   D at   43  1
       a =  8.500      CL =  1.0372
      Cm = -0.0087     CD =  0.01477   =>   CDf =  0.00647    CDp =  0.00830

 Side 1  free  transition at x/c =  0.1946   43
 Side 2 forced transition at x/c =  1.0000   69

   3   rms: 0.3417E-02   max: 0.3256E-01   C at   43  1
       a =  8.500      CL =  1.0378
      Cm = -0.0089     CD =  0.01489   =>   CDf =  0.00643    CDp =  0.00845

 Side 1  free  transition at x/c =  0.1939   43
 Side 2 forced transition at x/c =  1.0000   69

   4   rms: 0.7390E-04   max: -.7813E-03   D at   44  1
       a =  8.500      CL =  1.0378
      Cm = -0.0089     CD =  0.01489   =>   CDf =  0.00644    CDp =  0.00845
 plradd ia,ip,cpol           26           0  9.00296308E-03

 Point added to stored polar  1
 Point written to save file  naca632a015_Re400k.base.pol                     
 Dump file unspecified or not available
 Calculating wake trajectory ...
 Calculating source influence matrix ...

 Solving BL system ...

 Side 1  free  transition at x/c =  0.1939   43
 Side 2 forced transition at x/c =  1.0000   69

   1   rms: 0.7018E-01   max: -.3028E+00   D at   43  1
       a =  9.000      CL =  1.0613
      Cm = -0.0034     CD =  0.01555   =>   CDf =  0.00644    CDp =  0.00911

 Side 1  free  transition at x/c =  0.1809   42
 Side 2 forced transition at x/c =  1.0000   69

   2   rms: 0.2015E-01   max: -.2297E+00   D at   42  1
       a =  9.000      CL =  1.0626
      Cm = -0.0036     CD =  0.01543   =>   CDf =  0.00645    CDp =  0.00897

 Side 1  free  transition at x/c =  0.1814   42
 Side 2 forced transition at x/c =  1.0000   69

   3   rms: 0.2149E-02   max: 0.2836E-01   C at   42  1
       a =  9.000      CL =  1.0631
      Cm = -0.0037     CD =  0.01549   =>   CDf =  0.00642    CDp =  0.00907

 Side 1  free  transition at x/c =  0.1808   42
 Side 2 forced transition at x/c =  1.0000   69

   4   rms: 0.5709E-04   max: -.3640E-03   D at   43  1
       a =  9.000      CL =  1.0631
      Cm = -0.0037     CD =  0.01549   =>   CDf =  0.00642    CDp =  0.00906
 plradd ia,ip,cpol           27           0  9.00296308E-03

 Point added to stored polar  1
 Point written to save file  naca632a015_Re400k.base.pol                     
 Dump file unspecified or not available
 Calculating wake trajectory ...
 Calculating source influence matrix ...

 Solving BL system ...

 Side 1  free  transition at x/c =  0.1808   42
 Side 2 forced transition at x/c =  1.0000   69

   1   rms: 0.6928E-01   max: -.3131E+00   D at   42  1
       a =  9.500      CL =  1.0891
      Cm =  0.0013     CD =  0.01611   =>   CDf =  0.00624    CDp =  0.00987

 Side 1  free  transition at x/c =  0.1665   42
 Side 2 forced transition at x/c =  1.0000   68

   2   rms: 0.1531E-01   max: -.1754E+00   D at   42  1
       a =  9.500      CL =  1.0845
      Cm =  0.0022     CD =  0.01608   =>   CDf =  0.00642    CDp =  0.00966

 Side 1  free  transition at x/c =  0.1674   42
 Side 2 forced transition at x/c =  1.0000   68

   3   rms: 0.1154E-02   max: 0.1649E-01   C at   42  1
       a =  9.500      CL =  1.0845
      Cm =  0.0021     CD =  0.01611   =>   CDf =  0.00640    CDp =  0.00971

 Side 1  free  transition at x/c =  0.1670   42
 Side 2 forced transition at x/c =  1.0000   68

   4   rms: 0.2919E-04   max: 0.1307E-03   D at   94  1
       a =  9.500      CL =  1.0845
      Cm =  0.0022     CD =  0.01611   =>   CDf =  0.00641    CDp =  0.00971
 plradd ia,ip,cpol           28           0  9.00296308E-03

 Point added to stored polar  1
 Point written to save file  naca632a015_Re400k.base.pol                     
 Dump file unspecified or not available
 Calculating wake trajectory ...
 Calculating source influence matrix ...

 Solving BL system ...

 Side 1  free  transition at x/c =  0.1670   42
 Side 2 forced transition at x/c =  1.0000   68

   1   rms: 0.6503E-01   max: -.2680E+00   D at   42  1
       a = 10.000      CL =  1.1057
      Cm =  0.0080     CD =  0.01670   =>   CDf =  0.00641    CDp =  0.01029

 Side 1  free  transition at x/c =  0.1522   41
 Side 2 forced transition at x/c =  1.0000   68

   2   rms: 0.1264E-01   max: -.1633E+00   D at   41  1
       a = 10.000      CL =  1.1040
      Cm =  0.0081     CD =  0.01680   =>   CDf =  0.00641    CDp =  0.01039

 Side 1  free  transition at x/c =  0.1529   41
 Side 2 forced transition at x/c =  1.0000   68

   3   rms: 0.9192E-03   max: 0.1259E-01   C at   41  1
       a = 10.000      CL =  1.1044
      Cm =  0.0080     CD =  0.01682   =>   CDf =  0.00639    CDp =  0.01043

 Side 1  free  transition at x/c =  0.1526   41
 Side 2 forced transition at x/c =  1.0000   68

   4   rms: 0.1965E-04   max: 0.8787E-04   D at   92  1
       a = 10.000      CL =  1.1044
      Cm =  0.0080     CD =  0.01682   =>   CDf =  0.00639    CDp =  0.01043
 plradd ia,ip,cpol           29           0  9.00296308E-03

 Point added to stored polar  1
 Point written to save file  naca632a015_Re400k.base.pol                     
 Dump file unspecified or not available

.OPERva   c>  
 Solving BL system ...

 Side 1  free  transition at x/c =  0.1526   41
 Side 2 forced transition at x/c =  1.0000   68

   1   rms: 0.7805E-06   max: -.8122E-05   D at   41  1
       a = 10.000      CL =  1.1044
      Cm =  0.0080     CD =  0.01682   =>   CDf =  0.00639    CDp =  0.01043
 plradd ia,ip,cpol           30         182  9.00296308E-03

 Point added to stored polar  1
 Point written to save file  naca632a015_Re400k.base.pol                     
 Dump file unspecified or not available
 Calculating wake trajectory ...
 Calculating source influence matrix ...

 Solving BL system ...

 Side 1  free  transition at x/c =  0.1526   41
 Side 2 forced transition at x/c =  1.0000   68

   1   rms: 0.3490E-01   max: -.1673E+00   D at   41  1
       a = 10.250      CL =  1.1162
      Cm =  0.0105     CD =  0.01721   =>   CDf =  0.00618    CDp =  0.01102

 Side 1  free  transition at x/c =  0.1439   41
 Side 2 forced transition at x/c =  1.0000   67

   2   rms: 0.5065E-02   max: -.4496E-01   C at   41  1
       a = 10.250      CL =  1.1132
      Cm =  0.0109     CD =  0.01731   =>   CDf =  0.00643    CDp =  0.01088

 Side 1  free  transition at x/c =  0.1445   41
 Side 2 forced transition at x/c =  1.0000   67

   3   rms: 0.1414E-02   max: -.1760E-01   D at    4  1
       a = 10.250      CL =  1.1133
      Cm =  0.0109     CD =  0.01731   =>   CDf =  0.00642    CDp =  0.01089

 Side 1  free  transition at x/c =  0.1444   41
 Side 2 forced transition at x/c =  1.0000   67

   4   rms: 0.3043E-05   max: 0.2968E-04   D at    8  1
       a = 10.250      CL =  1.1133
      Cm =  0.0109     CD =  0.01731   =>   CDf =  0.00642    CDp =  0.01089
 plradd ia,ip,cpol           31           0  7.07870955E-03

 Point added to stored polar  1
 Point written to save file  naca632a015_Re400k.base.pol                     
 Dump file unspecified or not available
 Calculating wake trajectory ...
 Calculating source influence matrix ...

 Solving BL system ...

 Side 1  free  transition at x/c =  0.1444   41
 Side 2 forced transition at x/c =  1.0000   67

   1   rms: 0.3461E-01   max: -.1399E+00   C at   41  1
       a = 10.500      CL =  1.1300
      Cm =  0.0125     CD =  0.01759   =>   CDf =  0.00642    CDp =  0.01117

 Side 1  free  transition at x/c =  0.1337   41
 Side 2 forced transition at x/c =  1.0000   67

   2   rms: 0.7027E-02   max: 0.6769E-01   D at   42  1
       a = 10.500      CL =  1.1255
      Cm =  0.0131     CD =  0.01774   =>   CDf =  0.00643    CDp =  0.01132

 Side 1  free  transition at x/c =  0.1353   41
 Side 2 forced transition at x/c =  1.0000   67

   3   rms: 0.2441E-03   max: -.4694E-02   D at   42  1
       a = 10.500      CL =  1.1254
      Cm =  0.0131     CD =  0.01776   =>   CDf =  0.00640    CDp =  0.01136

 Side 1  free  transition at x/c =  0.1353   41
 Side 2 forced transition at x/c =  1.0000   67

   4   rms: 0.1317E-05   max: -.1541E-04   D at   42  1
       a = 10.500      CL =  1.1254
      Cm =  0.0131     CD =  0.01776   =>   CDf =  0.00640    CDp =  0.01136
 plradd ia,ip,cpol           32           0  9.00296308E-03

 Point added to stored polar  1
 Point written to save file  naca632a015_Re400k.base.pol                     
 Dump file unspecified or not available
 Calculating wake trajectory ...
 Calculating source influence matrix ...

 Solving BL system ...

 Side 1  free  transition at x/c =  0.1353   41
 Side 2 forced transition at x/c =  1.0000   67

   1   rms: 0.3784E-01   max: -.2280E+00   D at   41  1
       a = 10.750      CL =  1.1347
      Cm =  0.0156     CD =  0.01838   =>   CDf =  0.00640    CDp =  0.01198

 Side 1  free  transition at x/c =  0.1269   40
 Side 2 forced transition at x/c =  1.0000   67

   2   rms: 0.4935E-02   max: -.5862E-01   D at   40  1
       a = 10.750      CL =  1.1361
      Cm =  0.0154     CD =  0.01831   =>   CDf =  0.00640    CDp =  0.01191

 Side 1  free  transition at x/c =  0.1258   40
 Side 2 forced transition at x/c =  1.0000   67

   3   rms: 0.1543E-03   max: 0.5362E-03   D at   90  1
       a = 10.750      CL =  1.1359
      Cm =  0.0154     CD =  0.01832   =>   CDf =  0.00640    CDp =  0.01192

 Side 1  free  transition at x/c =  0.1258   40
 Side 2 forced transition at x/c =  1.0000   67

   4   rms: 0.1738E-05   max: 0.1060E-04   C at   40  1
       a = 10.750      CL =  1.1359
      Cm =  0.0154     CD =  0.01832   =>   CDf =  0.00640    CDp =  0.01192
 plradd ia,ip,cpol           33           0  7.07870955E-03

 Point added to stored polar  1
 Point written to save file  naca632a015_Re400k.base.pol                     
 Dump file unspecified or not available
 Calculating wake trajectory ...
 Calculating source influence matrix ...

 Solving BL system ...

 Side 1  free  transition at x/c =  0.1258   40
 Side 2 forced transition at x/c =  1.0000   67

   1   rms: 0.3756E-01   max: 0.2373E+00   C at   40  1
       a = 11.000      CL =  1.1468
      Cm =  0.0176     CD =  0.01895   =>   CDf =  0.00640    CDp =  0.01255

 Side 1  free  transition at x/c =  0.1155   39
 Side 2 forced transition at x/c =  1.0000   67

   2   rms: 0.4913E-02   max: -.7225E-01   C at   39  1
       a = 11.000      CL =  1.1446
      Cm =  0.0178     CD =  0.01903   =>   CDf =  0.00644    CDp =  0.01259

 Side 1  free  transition at x/c =  0.1159   39
 Side 2 forced transition at x/c =  1.0000   67

   3   rms: 0.1723E-03   max: 0.2804E-02   C at   39  1
       a = 11.000      CL =  1.1446
      Cm =  0.0178     CD =  0.01903   =>   CDf =  0.00643    CDp =  0.01260

 Side 1  free  transition at x/c =  0.1158   39
 Side 2 forced transition at x/c =  1.0000   67

   4   rms: 0.2743E-05   max: -.1414E-04   C at   39  1
       a = 11.000      CL =  1.1446
      Cm =  0.0178     CD =  0.01903   =>   CDf =  0.00643    CDp =  0.01260
 plradd ia,ip,cpol           34           0  7.07870955E-03

 Point added to stored polar  1
 Point written to save file  naca632a015_Re400k.base.pol                     
 Dump file unspecified or not available
 Calculating wake trajectory ...
 Calculating source influence matrix ...

 Solving BL system ...

 Side 1  free  transition at x/c =  0.1158   39
 Side 2 forced transition at x/c =  1.0000   67

   1   rms: 0.3708E-01   max: 0.1842E+00   C at   39  1
       a = 11.250      CL =  1.1567
      Cm =  0.0197     CD =  0.01968   =>   CDf =  0.00619    CDp =  0.01348

 Side 1  free  transition at x/c =  0.1049   39
 Side 2 forced transition at x/c =  1.0000   66

   2   rms: 0.7136E-02   max: -.8681E-01   C at   39  1
       a = 11.250      CL =  1.1517
      Cm =  0.0202     CD =  0.01989   =>   CDf =  0.00649    CDp =  0.01341

 Side 1  free  transition at x/c =  0.1061   39
 Side 2 forced transition at x/c =  1.0000   66

   3   rms: 0.6674E-03   max: -.7917E-02   D at    4  1
       a = 11.250      CL =  1.1518
      Cm =  0.0202     CD =  0.01989   =>   CDf =  0.00647    CDp =  0.01342

 Side 1  free  transition at x/c =  0.1060   39
 Side 2 forced transition at x/c =  1.0000   66

   4   rms: 0.2334E-05   max: 0.1051E-04   C at   66  2
       a = 11.250      CL =  1.1518
      Cm =  0.0202     CD =  0.01989   =>   CDf =  0.00647    CDp =  0.01342
 plradd ia,ip,cpol           35           0  7.07870955E-03

 Point added to stored polar  1
 Point written to save file  naca632a015_Re400k.base.pol                     
 Dump file unspecified or not available
 Calculating wake trajectory ...
 Calculating source influence matrix ...

 Solving BL system ...

 Side 1  free  transition at x/c =  0.1060   39
 Side 2 forced transition at x/c =  1.0000   66

   1   rms: 0.3542E-01   max: 0.1308E+00   T at   39  1
       a = 11.500      CL =  1.1648
      Cm =  0.0218     CD =  0.02056   =>   CDf =  0.00647    CDp =  0.01409

 Side 1  free  transition at x/c =  0.0957   39
 Side 2 forced transition at x/c =  1.0000   66

   2   rms: 0.7451E-02   max: 0.5518E-01   D at   40  1
       a = 11.500      CL =  1.1600
      Cm =  0.0222     CD =  0.02077   =>   CDf =  0.00652    CDp =  0.01425

 Side 1  free  transition at x/c =  0.0974   39
 Side 2 forced transition at x/c =  1.0000   66

   3   rms: 0.7189E-03   max: 0.8220E-02   C at   39  1
       a = 11.500      CL =  1.1598
      Cm =  0.0222     CD =  0.02079   =>   CDf =  0.00648    CDp =  0.01431

 Side 1  free  transition at x/c =  0.0972   39
 Side 2 forced transition at x/c =  1.0000   66

   4   rms: 0.2864E-04   max: 0.1279E-03   D at   87  1
       a = 11.500      CL =  1.1598
      Cm =  0.0222     CD =  0.02079   =>   CDf =  0.00648    CDp =  0.01431
 plradd ia,ip,cpol           36           0  7.07870955E-03

 Point added to stored polar  1
 Point written to save file  naca632a015_Re400k.base.pol                     
 Dump file unspecified or not available
 Calculating wake trajectory ...
 Calculating source influence matrix ...

 Solving BL system ...

 Side 1  free  transition at x/c =  0.0972   39
 Side 2 forced transition at x/c =  1.0000   66

   1   rms: 0.4336E-01   max: -.2541E+00   D at   39  1
       a = 11.750      CL =  1.1647
      Cm =  0.0245     CD =  0.02199   =>   CDf =  0.00648    CDp =  0.01551

 Side 1  free  transition at x/c =  0.0908   38
 Side 2 forced transition at x/c =  1.0000   66

   2   rms: 0.8531E-02   max: -.9899E-01   D at   38  1
       a = 11.750      CL =  1.1675
      Cm =  0.0242     CD =  0.02176   =>   CDf =  0.00646    CDp =  0.01529

 Side 1  free  transition at x/c =  0.0899   38
 Side 2 forced transition at x/c =  1.0000   66

   3   rms: 0.4828E-03   max: 0.3341E-02   C at   38  1
       a = 11.750      CL =  1.1671
      Cm =  0.0242     CD =  0.02180   =>   CDf =  0.00647    CDp =  0.01532

 Side 1  free  transition at x/c =  0.0899   38
 Side 2 forced transition at x/c =  1.0000   66

   4   rms: 0.6613E-05   max: 0.2779E-04   D at   85  1
       a = 11.750      CL =  1.1671
      Cm =  0.0242     CD =  0.02180   =>   CDf =  0.00648    CDp =  0.01532
 plradd ia,ip,cpol           37           0  7.07870955E-03

 Point added to stored polar  1
 Point written to save file  naca632a015_Re400k.base.pol                     
 Dump file unspecified or not available
 Calculating wake trajectory ...
 Calculating source influence matrix ...

 Solving BL system ...

 Side 1  free  transition at x/c =  0.0899   38
 Side 2 forced transition at x/c =  1.0000   66

   1   rms: 0.3875E-01   max: 0.2031E+00   C at   38  1
       a = 12.000      CL =  1.1754
      Cm =  0.0259     CD =  0.02288   =>   CDf =  0.00648    CDp =  0.01640

 Side 1  free  transition at x/c =  0.0829   37
 Side 2 forced transition at x/c =  1.0000   66

   2   rms: 0.6693E-02   max: 0.3833E-01   D at   85  1
       a = 12.000      CL =  1.1704
      Cm =  0.0263     CD =  0.02314   =>   CDf =  0.00653    CDp =  0.01661

 Side 1  free  transition at x/c =  0.0831   37
 Side 2 forced transition at x/c =  1.0000   66

   3   rms: 0.4429E-02   max: -.7732E-01   C at   37  1
       a = 12.000      CL =  1.1702
      Cm =  0.0263     CD =  0.02313   =>   CDf =  0.00653    CDp =  0.01660

 Side 1  free  transition at x/c =  0.0832   37
 Side 2 forced transition at x/c =  1.0000   66

   4   rms: 0.4341E-02   max: -.7627E-01   C at   37  1
       a = 12.000      CL =  1.1702
      Cm =  0.0263     CD =  0.02313   =>   CDf =  0.00653    CDp =  0.01660

 Side 1  free  transition at x/c =  0.0832   37
 Side 2 forced transition at x/c =  1.0000   66

   5   rms: 0.4344E-02   max: -.7632E-01   C at   37  1
       a = 12.000      CL =  1.1702
      Cm =  0.0263     CD =  0.02313   =>   CDf =  0.00653    CDp =  0.01660

 Side 1  free  transition at x/c =  0.0832   37
 Side 2 forced transition at x/c =  1.0000   66

   6   rms: 0.4344E-02   max: -.7632E-01   C at   37  1
       a = 12.000      CL =  1.1702
      Cm =  0.0263     CD =  0.02313   =>   CDf =  0.00653    CDp =  0.01660

 Side 1  free  transition at x/c =  0.0832   37
 Side 2 forced transition at x/c =  1.0000   66

   7   rms: 0.4344E-02   max: -.7632E-01   C at   37  1
       a = 12.000      CL =  1.1702
      Cm =  0.0263     CD =  0.02313   =>   CDf =  0.00653    CDp =  0.01660

 Side 1  free  transition at x/c =  0.0832   37
 Side 2 forced transition at x/c =  1.0000   66

   8   rms: 0.4344E-02   max: -.7632E-01   C at   37  1
       a = 12.000      CL =  1.1702
      Cm =  0.0263     CD =  0.02313   =>   CDf =  0.00653    CDp =  0.01660

 Side 1  free  transition at x/c =  0.0832   37
 Side 2 forced transition at x/c =  1.0000   66

   9   rms: 0.4345E-02   max: -.7632E-01   C at   37  1
       a = 12.000      CL =  1.1702
      Cm =  0.0263     CD =  0.02313   =>   CDf =  0.00653    CDp =  0.01660

 Side 1  free  transition at x/c =  0.0832   37
 Side 2 forced transition at x/c =  1.0000   66

  10   rms: 0.4344E-02   max: -.7632E-01   C at   37  1
       a = 12.000      CL =  1.1702
      Cm =  0.0263     CD =  0.02313   =>   CDf =  0.00653    CDp =  0.01660

 Side 1  free  transition at x/c =  0.0832   37
 Side 2 forced transition at x/c =  1.0000   66

  11   rms: 0.4344E-02   max: -.7632E-01   C at   37  1
       a = 12.000      CL =  1.1702
      Cm =  0.0263     CD =  0.02313   =>   CDf =  0.00653    CDp =  0.01660

 Side 1  free  transition at x/c =  0.0832   37
 Side 2 forced transition at x/c =  1.0000   66

  12   rms: 0.4344E-02   max: -.7632E-01   C at   37  1
       a = 12.000      CL =  1.1702
      Cm =  0.0263     CD =  0.02313   =>   CDf =  0.00653    CDp =  0.01660

 Side 1  free  transition at x/c =  0.0832   37
 Side 2 forced transition at x/c =  1.0000   66

  13   rms: 0.4344E-02   max: -.7632E-01   C at   37  1
       a = 12.000      CL =  1.1702
      Cm =  0.0263     CD =  0.02313   =>   CDf =  0.00653    CDp =  0.01660

 Side 1  free  transition at x/c =  0.0832   37
 Side 2 forced transition at x/c =  1.0000   66

  14   rms: 0.4344E-02   max: -.7632E-01   C at   37  1
       a = 12.000      CL =  1.1702
      Cm =  0.0263     CD =  0.02313   =>   CDf =  0.00653    CDp =  0.01660

 Side 1  free  transition at x/c =  0.0832   37
 Side 2 forced transition at x/c =  1.0000   66

  15   rms: 0.4344E-02   max: -.7632E-01   C at   37  1
       a = 12.000      CL =  1.1702
      Cm =  0.0263     CD =  0.02313   =>   CDf =  0.00653    CDp =  0.01660

 Side 1  free  transition at x/c =  0.0832   37
 Side 2 forced transition at x/c =  1.0000   66

  16   rms: 0.4344E-02   max: -.7632E-01   C at   37  1
       a = 12.000      CL =  1.1702
[...]

 Side 1  free  transition at x/c =  0.0726   36
 Side 2 forced transition at x/c =  1.0000   66

   6   rms: 0.1297E+01   max: 0.2306E+02   T at    2  2   RLX: 0.053
       a = 12.750      CL =  1.1845
      Cm =  0.0296     CD =  0.02594   =>   CDf =  0.00618    CDp =  0.01976

 Side 1  free  transition at x/c =  0.0725   37
 Side 2 forced transition at x/c =  1.0000   65

   7   rms: 0.3034E+01   max: 0.5338E+02   D at    2  1   RLX: 0.021
       a = 12.750      CL =  1.1847
      Cm =  0.0296     CD =  0.02595   =>   CDf =  0.00646    CDp =  0.01949

 Side 1  free  transition at x/c =  0.0724   37
 Side 2 forced transition at x/c =  1.0000   65

   8   rms: 0.3123E-01   max: 0.1741E+00   D at    3  2
       a = 12.750      CL =  1.1952
      Cm =  0.0303     CD =  0.02670   =>   CDf =  0.00646    CDp =  0.02024

 Side 1  free  transition at x/c =  0.0695   37
 Side 2 forced transition at x/c =  1.0000   65

   9   rms: 0.3338E-02   max: 0.1541E-01   D at   81  1
       a = 12.750      CL =  1.1929
      Cm =  0.0304     CD =  0.02681   =>   CDf =  0.00639    CDp =  0.02041

 Side 1  free  transition at x/c =  0.0697   37
 Side 2 forced transition at x/c =  1.0000   65

  10   rms: 0.3603E-04   max: 0.6114E-03   D at   81  1
       a = 12.750      CL =  1.1929
      Cm =  0.0304     CD =  0.02680   =>   CDf =  0.00639    CDp =  0.02041
 plradd ia,ip,cpol           39           0  7.07870955E-03

 Point added to stored polar  1
 Point written to save file  naca632a015_Re400k.base.pol                     
 Dump file unspecified or not available
 Calculating wake trajectory ...
 Calculating source influence matrix ...

 Solving BL system ...

 Side 1  free  transition at x/c =  0.0697   37
 Side 2 forced transition at x/c =  1.0000   65

   1   rms: 0.3554E-01   max: 0.1317E+00   T at   37  1   RLX: 0.978
       a = 13.000      CL =  1.2022
      Cm =  0.0313     CD =  0.02810   =>   CDf =  0.00639    CDp =  0.02171

 Side 1  free  transition at x/c =  0.0657   37
 Side 2 forced transition at x/c =  1.0000   65

   2   rms: 0.5274E-02   max: -.3098E-01   T at   37  1
       a = 13.000      CL =  1.1989
      Cm =  0.0315     CD =  0.02827   =>   CDf =  0.00638    CDp =  0.02189

 Side 1  free  transition at x/c =  0.0661   37
 Side 2 forced transition at x/c =  1.0000   65

   3   rms: 0.9339E-04   max: 0.1422E-02   D at   80  1
       a = 13.000      CL =  1.1989
      Cm =  0.0315     CD =  0.02826   =>   CDf =  0.00636    CDp =  0.02189
 plradd ia,ip,cpol           40           0  7.07870955E-03

 Point added to stored polar  1
 Point written to save file  naca632a015_Re400k.base.pol                     
 Dump file unspecified or not available
 Calculating wake trajectory ...
 Calculating source influence matrix ...

 Solving BL system ...

 Side 1  free  transition at x/c =  0.0661   37
 Side 2 forced transition at x/c =  1.0000   65

   1   rms: 0.3872E-01   max: -.1530E+00   D at   37  1   RLX: 0.927
       a = 13.250      CL =  1.2035
      Cm =  0.0325     CD =  0.02989   =>   CDf =  0.00636    CDp =  0.02352

 Side 1  free  transition at x/c =  0.0633   37
 Side 2 forced transition at x/c =  1.0000   65

   2   rms: 0.8739E-02   max: 0.4987E-01   D at   79  1
       a = 13.250      CL =  1.1987
      Cm =  0.0328     CD =  0.03031   =>   CDf =  0.00636    CDp =  0.02395

 Side 1  free  transition at x/c =  0.0629   36
 Side 2 forced transition at x/c =  1.0000   65

   3   rms: 0.3062E-02   max: -.2997E-01   C at   36  1
       a = 13.250      CL =  1.2000
      Cm =  0.0327     CD =  0.03013   =>   CDf =  0.00636    CDp =  0.02377

 Side 1  free  transition at x/c =  0.0630   36
 Side 2 forced transition at x/c =  1.0000   65

   4   rms: 0.2039E-03   max: -.7310E-03   D at   79  1
       a = 13.250      CL =  1.2002
      Cm =  0.0327     CD =  0.03013   =>   CDf =  0.00635    CDp =  0.02378

 Side 1  free  transition at x/c =  0.0630   36
 Side 2 forced transition at x/c =  1.0000   65

   5   rms: 0.5424E-05   max: 0.2605E-04   C at   65  2
       a = 13.250      CL =  1.2002
      Cm =  0.0327     CD =  0.03014   =>   CDf =  0.00635    CDp =  0.02378
 plradd ia,ip,cpol           41           0  7.07870955E-03

 Point added to stored polar  1
 Point written to save file  naca632a015_Re400k.base.pol                     
 Dump file unspecified or not available
 Calculating wake trajectory ...
 Calculating source influence matrix ...

 Solving BL system ...

 Side 1  free  transition at x/c =  0.0630   36
 Side 2 forced transition at x/c =  1.0000   65

   1   rms: 0.3461E-01   max: -.1769E+00   C at   36  1   RLX: 0.893
       a = 13.500      CL =  1.2115
      Cm =  0.0332     CD =  0.03119   =>   CDf =  0.00636    CDp =  0.02483

 Side 1  free  transition at x/c =  0.0603   36
 Side 2 forced transition at x/c =  1.0000   65

   2   rms: 0.5772E-02   max: 0.3477E-01   D at   78  1
       a = 13.500      CL =  1.2093
      Cm =  0.0334     CD =  0.03152   =>   CDf =  0.00627    CDp =  0.02525

 Side 1  free  transition at x/c =  0.0601   36
 Side 2 forced transition at x/c =  1.0000   65

   3   rms: 0.2875E-03   max: 0.1695E-02   D at   75  2
       a = 13.500      CL =  1.2091
      Cm =  0.0334     CD =  0.03149   =>   CDf =  0.00626    CDp =  0.02524

 Side 1  free  transition at x/c =  0.0601   36
 Side 2 forced transition at x/c =  1.0000   65

   4   rms: 0.4167E-05   max: -.2943E-04   C at   65  2
       a = 13.500      CL =  1.2091
      Cm =  0.0334     CD =  0.03149   =>   CDf =  0.00626    CDp =  0.02524
 plradd ia,ip,cpol           42           0  5.43992314E-03

 Point added to stored polar  1
 Point written to save file  naca632a015_Re400k.base.pol                     
 Dump file unspecified or not available
 Calculating wake trajectory ...
 Calculating source influence matrix ...

 Solving BL system ...

 Side 1  free  transition at x/c =  0.0601   36
 Side 2 forced transition at x/c =  1.0000   65

   1   rms: 0.3526E-01   max: 0.1379E+00   T at   36  1   RLX: 0.854
       a = 13.750      CL =  1.2159
      Cm =  0.0340     CD =  0.03290   =>   CDf =  0.00626    CDp =  0.02665

 Side 1  free  transition at x/c =  0.0577   36
 Side 2 forced transition at x/c =  1.0000   65

   2   rms: 0.7453E-02   max: 0.4489E-01   D at   77  1
       a = 13.750      CL =  1.2133
      Cm =  0.0342     CD =  0.03333   =>   CDf =  0.00622    CDp =  0.02710

 Side 1  free  transition at x/c =  0.0575   36
 Side 2 forced transition at x/c =  1.0000   65

   3   rms: 0.3220E-03   max: 0.2652E-02   D at   75  2
       a = 13.750      CL =  1.2130
      Cm =  0.0342     CD =  0.03329   =>   CDf =  0.00621    CDp =  0.02708

 Side 1  free  transition at x/c =  0.0575   36
 Side 2 forced transition at x/c =  1.0000   65

   4   rms: 0.3692E-05   max: -.2217E-04   C at   65  2
       a = 13.750      CL =  1.2130
      Cm =  0.0342     CD =  0.03329   =>   CDf =  0.00621    CDp =  0.02707
 plradd ia,ip,cpol           43           0  4.05095285E-03

 Point added to stored polar  1
 Point written to save file  naca632a015_Re400k.base.pol                     
 Dump file unspecified or not available
 Calculating wake trajectory ...
 Calculating source influence matrix ...

 Solving BL system ...

 Side 1  free  transition at x/c =  0.0575   36
 Side 2 forced transition at x/c =  1.0000   65

   1   rms: 0.3832E-01   max: 0.1211E+00   D at   74  1   RLX: 0.812
       a = 14.000      CL =  1.2161
      Cm =  0.0347     CD =  0.03502   =>   CDf =  0.00587    CDp =  0.02915

 Side 1  free  transition at x/c =  0.0553   37
 Side 2 forced transition at x/c =  1.0000   64

   2   rms: 0.1191E-01   max: 0.6183E-01   D at   77  1
       a = 14.000      CL =  1.2110
      Cm =  0.0349     CD =  0.03578   =>   CDf =  0.00621    CDp =  0.02957

 Side 1  free  transition at x/c =  0.0548   37
 Side 2 forced transition at x/c =  1.0000   64

   3   rms: 0.1155E-02   max: 0.9446E-02   D at   76  1
       a = 14.000      CL =  1.2103
      Cm =  0.0350     CD =  0.03573   =>   CDf =  0.00620    CDp =  0.02953

 Side 1  free  transition at x/c =  0.0548   37
 Side 2 forced transition at x/c =  1.0000   64

   4   rms: 0.2257E-04   max: -.1728E-03   C at   64  2
       a = 14.000      CL =  1.2103
      Cm =  0.0350     CD =  0.03572   =>   CDf =  0.00620    CDp =  0.02952
 plradd ia,ip,cpol           44           0  5.43992314E-03

 Point added to stored polar  1
 Point written to save file  naca632a015_Re400k.base.pol                     
 Dump file unspecified or not available
 Calculating wake trajectory ...
 Calculating source influence matrix ...

 Solving BL system ...

 Side 1  free  transition at x/c =  0.0548   37
 Side 2 forced transition at x/c =  1.0000   64

   1   rms: 0.4518E-01   max: 0.1681E+00   D at   73  1   RLX: 0.762
       a = 14.250      CL =  1.2063
      Cm =  0.0355     CD =  0.03812   =>   CDf =  0.00620    CDp =  0.03192

 Side 1  free  transition at x/c =  0.0534   36
 Side 2 forced transition at x/c =  1.0000   64

   2   rms: 0.1551E-01   max: -.1568E+00   D at   36  1
       a = 14.250      CL =  1.2141
      Cm =  0.0355     CD =  0.03764   =>   CDf =  0.00613    CDp =  0.03151

 Side 1  free  transition at x/c =  0.0532   36
 Side 2 forced transition at x/c =  1.0000   64

   3   rms: 0.1625E-02   max: 0.8547E-02   T at   36  1
       a = 14.250      CL =  1.2150
      Cm =  0.0355     CD =  0.03758   =>   CDf =  0.00609    CDp =  0.03148

 Side 1  free  transition at x/c =  0.0531   36
 Side 2 forced transition at x/c =  1.0000   64

   4   rms: 0.4286E-04   max: 0.4229E-03   C at   64  2
       a = 14.250      CL =  1.2150
      Cm =  0.0355     CD =  0.03759   =>   CDf =  0.00610    CDp =  0.03149
 plradd ia,ip,cpol           45           0  4.05095285E-03

 Point added to stored polar  1
 Point written to save file  naca632a015_Re400k.base.pol                     
 Dump file unspecified or not available
 Calculating wake trajectory ...
 Calculating source influence matrix ...

 Solving BL system ...

 Side 1  free  transition at x/c =  0.0531   36
 Side 2 forced transition at x/c =  1.0000   64

   1   rms: 0.3561E-01   max: 0.1491E+00   T at   36  1   RLX: 0.747
       a = 14.500      CL =  1.2198
      Cm =  0.0357     CD =  0.03912   =>   CDf =  0.00610    CDp =  0.03302

 Side 1  free  transition at x/c =  0.0513   36
 Side 2 forced transition at x/c =  1.0000   64

   2   rms: 0.9494E-02   max: 0.4063E-01   D at   74  1
       a = 14.500      CL =  1.2188
      Cm =  0.0358     CD =  0.03968   =>   CDf =  0.00604    CDp =  0.03364

 Side 1  free  transition at x/c =  0.0509   36
 Side 2 forced transition at x/c =  1.0000   64

   3   rms: 0.8595E-03   max: 0.5614E-02   D at   74  1
       a = 14.500      CL =  1.2182
      Cm =  0.0359     CD =  0.03964   =>   CDf =  0.00601    CDp =  0.03363

 Side 1  free  transition at x/c =  0.0510   36
 Side 2 forced transition at x/c =  1.0000   64

   4   rms: 0.2038E-04   max: 0.1496E-03   D at   75  2
       a = 14.500      CL =  1.2182
      Cm =  0.0359     CD =  0.03964   =>   CDf =  0.00601    CDp =  0.03362
 plradd ia,ip,cpol           46           0  4.05095285E-03

 Point added to stored polar  1
 Point written to save file  naca632a015_Re400k.base.pol                     
 Dump file unspecified or not available
 Calculating wake trajectory ...
 Calculating source influence matrix ...

 Solving BL system ...

 Side 1  free  transition at x/c =  0.0510   36
 Side 2 forced transition at x/c =  1.0000   64

   1   rms: 0.3511E-01   max: 0.1355E+00   T at   36  1   RLX: 0.716
       a = 14.750      CL =  1.2214
      Cm =  0.0359     CD =  0.04130   =>   CDf =  0.00602    CDp =  0.03529

 Side 1  free  transition at x/c =  0.0496   36
 Side 2 forced transition at x/c =  1.0000   64

   2   rms: 0.1102E-01   max: 0.4983E-01   D at   73  1
       a = 14.750      CL =  1.2197
      Cm =  0.0360     CD =  0.04205   =>   CDf =  0.00598    CDp =  0.03606

 Side 1  free  transition at x/c =  0.0493   36
 Side 2 forced transition at x/c =  1.0000   64

   3   rms: 0.1141E-02   max: 0.6575E-02   D at   73  1
       a = 14.750      CL =  1.2189
      Cm =  0.0361     CD =  0.04199   =>   CDf =  0.00596    CDp =  0.03602

 Side 1  free  transition at x/c =  0.0493   36
 Side 2 forced transition at x/c =  1.0000   64

   4   rms: 0.3591E-04   max: 0.2569E-03   D at   76  2
       a = 14.750      CL =  1.2189
      Cm =  0.0361     CD =  0.04198   =>   CDf =  0.00596    CDp =  0.03602
 plradd ia,ip,cpol           47           0  4.05095285E-03

 Point added to stored polar  1
 Point written to save file  naca632a015_Re400k.base.pol                     
 Dump file unspecified or not available
 Calculating wake trajectory ...
 Calculating source influence matrix ...

 Solving BL system ...

 Side 1  free  transition at x/c =  0.0493   36
 Side 2 forced transition at x/c =  1.0000   64

   1   rms: 0.3814E-01   max: 0.1332E+00   D at   71  1   RLX: 0.684
       a = 15.000      CL =  1.2193
      Cm =  0.0361     CD =  0.04395   =>   CDf =  0.00596    CDp =  0.03798

 Side 1  free  transition at x/c =  0.0481   36
 Side 2 forced transition at x/c =  1.0000   64

   2   rms: 0.1494E-01   max: 0.6792E-01   D at   72  1
       a = 15.000      CL =  1.2152
      Cm =  0.0362     CD =  0.04504   =>   CDf =  0.00595    CDp =  0.03909

 Side 1  free  transition at x/c =  0.0476   36
 Side 2 forced transition at x/c =  1.0000   64

   3   rms: 0.1720E-02   max: 0.1186E-01   D at   76  2
       a = 15.000      CL =  1.2139
      Cm =  0.0363     CD =  0.04494   =>   CDf =  0.00594    CDp =  0.03900

 Side 1  free  transition at x/c =  0.0476   36
 Side 2 forced transition at x/c =  1.0000   64

   4   rms: 0.5559E-04   max: 0.6602E-03   D at   76  2
       a = 15.000      CL =  1.2138
      Cm =  0.0363     CD =  0.04493   =>   CDf =  0.00594    CDp =  0.03899
 plradd ia,ip,cpol           48           0  2.88581313E-03

 Point added to stored polar  1
 Point written to save file  naca632a015_Re400k.base.pol                     
 Dump file unspecified or not available
 Calculating wake trajectory ...
 Calculating source influence matrix ...

 Solving BL system ...

 Side 1  free  transition at x/c =  0.0476   36
 Side 2 forced transition at x/c =  1.0000   64

   1   rms: 0.4213E-01   max: 0.1594E+00   D at   69  1   RLX: 0.648
       a = 15.250      CL =  1.2102
      Cm =  0.0363     CD =  0.04729   =>   CDf =  0.00594    CDp =  0.04135

 Side 1  free  transition at x/c =  0.0466   35
 Side 2 forced transition at x/c =  1.0000   64

   2   rms: 0.1189E-01   max: -.7650E-01   C at   35  1
       a = 15.250      CL =  1.2126
      Cm =  0.0363     CD =  0.04773   =>   CDf =  0.00591    CDp =  0.04182

 Side 1  free  transition at x/c =  0.0463   35
 Side 2 forced transition at x/c =  1.0000   64

   3   rms: 0.6946E-03   max: 0.4103E-02   D at   35  1
       a = 15.250      CL =  1.2120
      Cm =  0.0364     CD =  0.04764   =>   CDf =  0.00586    CDp =  0.04179

 Side 1  free  transition at x/c =  0.0463   35
 Side 2 forced transition at x/c =  1.0000   64

   4   rms: 0.1795E-04   max: 0.6841E-04   D at   70  1
       a = 15.250      CL =  1.2120
      Cm =  0.0364     CD =  0.04764   =>   CDf =  0.00586    CDp =  0.04179
 plradd ia,ip,cpol           49           0  4.05095285E-03

 Point added to stored polar  1
 Point written to save file  naca632a015_Re400k.base.pol                     
 Dump file unspecified or not available
 Calculating wake trajectory ...
 Calculating source influence matrix ...

 Solving BL system ...

 Side 1  free  transition at x/c =  0.0463   35
 Side 2 forced transition at x/c =  1.0000   64

   1   rms: 0.3195E-01   max: 0.1007E+00   D at   68  1   RLX: 0.632
       a = 15.500      CL =  1.2154
      Cm =  0.0363     CD =  0.04924   =>   CDf =  0.00586    CDp =  0.04338

 Side 1  free  transition at x/c =  0.0457   35
 Side 2 forced transition at x/c =  1.0000   64

   2   rms: 0.1271E-01   max: 0.5469E-01   D at   70  1
       a = 15.500      CL =  1.2150
      Cm =  0.0362     CD =  0.05021   =>   CDf =  0.00579    CDp =  0.04442

 Side 1  free  transition at x/c =  0.0454   35
 Side 2 forced transition at x/c =  1.0000   64

   3   rms: 0.1350E-02   max: 0.6594E-02   D at   77  2
       a = 15.500      CL =  1.2139
      Cm =  0.0363     CD =  0.05010   =>   CDf =  0.00575    CDp =  0.04435

 Side 1  free  transition at x/c =  0.0454   35
 Side 2 forced transition at x/c =  1.0000   64

   4   rms: 0.5301E-04   max: -.4301E-03   C at   64  2
       a = 15.500      CL =  1.2139
      Cm =  0.0363     CD =  0.05009   =>   CDf =  0.00575    CDp =  0.04434
 plradd ia,ip,cpol           50           0  2.88581313E-03

 Point added to stored polar  1
 Point written to save file  naca632a015_Re400k.base.pol                     
 Dump file unspecified or not available
 Calculating wake trajectory ...
 Calculating source influence matrix ...

 Solving BL system ...

 Side 1  free  transition at x/c =  0.0454   35
 Side 2 forced transition at x/c =  1.0000   64

   1   rms: 0.3365E-01   max: 0.1230E+00   T at   35  1   RLX: 0.610
       a = 15.750      CL =  1.2165
      Cm =  0.0361     CD =  0.05178   =>   CDf =  0.00575    CDp =  0.04603

 Side 1  free  transition at x/c =  0.0446   35
 Side 2 forced transition at x/c =  1.0000   64

   2   rms: 0.1403E-01   max: 0.5790E-01   D at   69  1
       a = 15.750      CL =  1.2158
      Cm =  0.0360     CD =  0.05289   =>   CDf =  0.00531    CDp =  0.04759

 Side 1  free  transition at x/c =  0.0441   36
 Side 2 forced transition at x/c =  1.0000   63

   3   rms: 0.1655E-02   max: 0.9094E-02   D at   76  2
       a = 15.750      CL =  1.2145
      Cm =  0.0361     CD =  0.05278   =>   CDf =  0.00565    CDp =  0.04713

 Side 1  free  transition at x/c =  0.0442   36
 Side 2 forced transition at x/c =  1.0000   63

   4   rms: 0.1554E-03   max: -.1790E-02   D at    4  1
       a = 15.750      CL =  1.2145
      Cm =  0.0361     CD =  0.05276   =>   CDf =  0.00565    CDp =  0.04711

 Side 1  free  transition at x/c =  0.0442   36
 Side 2 forced transition at x/c =  1.0000   63

   5   rms: 0.2486E-05   max: -.7467E-05   D at   69  1
       a = 15.750      CL =  1.2145
      Cm =  0.0361     CD =  0.05276   =>   CDf =  0.00565    CDp =  0.04711
 plradd ia,ip,cpol           51           0  1.92920887E-03

 Point added to stored polar  1
 Point written to save file  naca632a015_Re400k.base.pol                     
 Dump file unspecified or not available
 Calculating wake trajectory ...
 Calculating source influence matrix ...

 Solving BL system ...

 Side 1  free  transition at x/c =  0.0442   36
 Side 2 forced transition at x/c =  1.0000   63

   1   rms: 0.3303E-01   max: 0.1105E+00   D at   68  1   RLX: 0.588
       a = 16.000      CL =  1.2163
      Cm =  0.0358     CD =  0.05451   =>   CDf =  0.00565    CDp =  0.04886

 Side 1  free  transition at x/c =  0.0435   36
 Side 2 forced transition at x/c =  1.0000   63

   2   rms: 0.1428E-01   max: 0.5875E-01   D at   69  1
       a = 16.000      CL =  1.2155
      Cm =  0.0356     CD =  0.05571   =>   CDf =  0.00560    CDp =  0.05010

 Side 1  free  transition at x/c =  0.0432   36
 Side 2 forced transition at x/c =  1.0000   63

   3   rms: 0.1777E-02   max: 0.7809E-02   D at   76  2
       a = 16.000      CL =  1.2141
      Cm =  0.0357     CD =  0.05558   =>   CDf =  0.00557    CDp =  0.05001

 Side 1  free  transition at x/c =  0.0432   36
 Side 2 forced transition at x/c =  1.0000   63

   4   rms: 0.6363E-04   max: -.6071E-03   C at   63  2
       a = 16.000      CL =  1.2141
      Cm =  0.0357     CD =  0.05556   =>   CDf =  0.00557    CDp =  0.04999
 plradd ia,ip,cpol           52           0  4.05095285E-03

 Point added to stored polar  1
 Point written to save file  naca632a015_Re400k.base.pol                     
 Dump file unspecified or not available

.OPERva   c>  
 Polar accumulation disabled

.OPERv   c>  
 XFOIL   c>  
 XFOIL   c>  