
 ===================================================
  XFOIL Version 6.99
  Copyright (C) 2000   Mark Drela, Harold Youngren

  This software comes with ABSOLUTELY NO WARRANTY,
    subject to the GNU General Public License.

  Caveat computor
 ===================================================

 File  xfoil.def  not found

   QUIT    Exit program

  .OPER    Direct operating point(s)
  .MDES    Complex mapping design routine
  .QDES    Surface speed design routine
  .GDES    Geometry design routine

   SAVE f  Write airfoil to labeled coordinate file
   PSAV f  Write airfoil to plain coordinate file
   ISAV f  Write airfoil to ISES coordinate file
   MSAV f  Write airfoil to MSES coordinate file
   REVE    Reverse written-airfoil node ordering

   LOAD f  Read buffer airfoil from coordinate file
   NACA i  Set NACA 4,5-digit airfoil and buffer airfoil
   INTE    Set buffer airfoil by interpolating two airfoils
   NORM    Buffer airfoil normalization toggle
   XYCM rr Change CM reference location, currently  0.25000 0.00000

   BEND    Display structural properties of current airfoil

   PCOP    Set current-airfoil panel nodes directly from buffer airfoil points
   PANE    Set current-airfoil panel nodes ( 160 ) based on curvature
  .PPAR    Show/change paneling

  .PLOP    Plotting options

   WDEF f  Write  current-settings file
   RDEF f  Reread current-settings file
   NAME s  Specify new airfoil name
   NINC    Increment name version number

   Z       Zoom    | (available in all menus)
   U       Unzoom  | 

 XFOIL   c>  
 Labeled airfoil file.  Name:  NACA 63(3)-218                                  

 Number of input coordinate points:  51
 Counterclockwise ordering
 Max thickness =     0.180042  at x =   0.351
 Max camber    =     0.010161  at x =   0.550

  LE  x,y  =  -0.00008   0.00179  |   Chord =   1.00008
  TE  x,y  =   1.00000   0.00000  |

 Current airfoil nodes set from buffer airfoil nodes (  51 )

 XFOIL   c>  
 XFOIL   c>  
 Sharp trailing edge

 Paneling parameters used...
   Number of panel nodes       160
   Panel bunching parameter    1.000
   TE/LE panel density ratio   0.150
   Refined-area/LE panel density ratio    0.200
   Top    side refined area x/c limits  1.000 1.000
   Bottom side refined area x/c limits  1.000 1.000

 XFOIL   c>  
.OPERi   c>  
 Xtr/c     =  1.0000    top    side
 Xtr/c     =  1.0000    bottom side
 Ncrit     =    9.00   ( 0.070 % turb. level )
 Vacc      =  0.0100

 Klag  =  5.6000     Uxwt  =    1.00
 A     =  6.7000     B     =  0.7500       KCt = 0.01485
 CtiniK=  1.8000     CtiniX=  3.3000

..VPAR   c>  
..VPAR   c>  
.OPERi   c>  
 M  =    0.0000
 Re =    500000

.OPERv   c>  
.OPERv   c>  
.OPERv   c>  
 Polar  1 newly created for accumulation
 Airfoil archived with polar: NACA 63(3)-218                                  

Enter  polar save filename  OR  <return> for no file   s>  
 New polar save file available

Enter  polar dump filename  OR  <return> for no file   s>  
 Polar dump file will NOT be written

 Polar accumulation enabled

.OPERva   c>   Calculating unit vorticity distributions ...
 Calculating wake trajectory ...
 Calculating source influence matrix ...

 Solving BL system ...

 Initializing BL ...
    side            1  ...
 MRCHUE: Inverse mode at  30     Hk =   4.054
 MRCHUE: Inverse mode at  31     Hk =   5.043
 MRCHUE: Inverse mode at  32     Hk =   6.017
 MRCHUE: Inverse mode at  33     Hk =   6.995
 MRCHUE: Inverse mode at  34     Hk =   7.997
 MRCHUE: Inverse mode at  35     Hk =   9.042
 MRCHUE: Inverse mode at  36     Hk =   9.572
 MRCHUE: Inverse mode at  37     Hk =   4.055
 MRCHUE: Inverse mode at  38     Hk =   2.500
 MRCHUE: Inverse mode at  83     Hk =   2.500
 MRCHUE: Inverse mode at  84     Hk =   2.500
 MRCHUE: Inverse mode at  85     Hk =   2.500
 MRCHUE: Inverse mode at  86     Hk =   2.500
 MRCHUE: Inverse mode at  87     Hk =   2.500
 MRCHUE: Inverse mode at  88     Hk =   2.500
 MRCHUE: Inverse mode at  89     Hk =   2.500
 MRCHUE: Inverse mode at  90     Hk =   2.500
 MRCHUE: Inverse mode at  91     Hk =   2.500
 MRCHUE: Inverse mode at  92     Hk =   2.500
 MRCHUE: Inverse mode at  93     Hk =   2.500
 MRCHUE: Inverse mode at  94     Hk =   2.500
 MRCHUE: Inverse mode at  95     Hk =   2.500
 MRCHUE: Inverse mode at  96     Hk =   2.500
 MRCHUE: Convergence failed at  97  side 1    Res =  0.5219E+01
 MRCHUE: Inverse mode at  98     Hk =   2.500
 MRCHUE: Inverse mode at  99     Hk =   2.500
 MRCHUE: Inverse mode at 100     Hk =   2.500
 MRCHUE: Inverse mode at 101     Hk =   2.500
 MRCHUE: Inverse mode at 102     Hk =   2.500
 MRCHUE: Inverse mode at 103     Hk =   2.500
 MRCHUE: Convergence failed at 104  side 1    Res =  0.5043E+01
 MRCHUE: Inverse mode at 105     Hk =   2.500
 MRCHUE: Inverse mode at 106     Hk =   2.500
    side            2  ...
 MRCHUE: Inverse mode at  46     Hk =   4.337
 MRCHUE: Inverse mode at  47     Hk =   4.915
 MRCHUE: Inverse mode at  48     Hk =   5.471
 MRCHUE: Inverse mode at  49     Hk =   6.003
 MRCHUE: Inverse mode at  50     Hk =   6.505
 MRCHUE: Inverse mode at  51     Hk =   6.975
 MRCHUE: Inverse mode at  52     Hk =   7.410
 MRCHUE: Inverse mode at  53     Hk =   7.811
 MRCHUE: Inverse mode at  54     Hk =   8.181
 MRCHUE: Inverse mode at  55     Hk =   8.522
 MRCHUE: Inverse mode at  56     Hk =   8.736

 MRCHDU: Convergence failed at  97  side 1    Res =  0.1361E+01
 MRCHDU: Convergence failed at  98  side 1    Res =  0.1422E+01
 MRCHDU: Convergence failed at  99  side 1    Res =  0.1483E+01
 MRCHDU: Convergence failed at 100  side 1    Res =  0.1608E+01
 MRCHDU: Convergence failed at 101  side 1    Res =  0.1666E+01
 MRCHDU: Convergence failed at 102  side 1    Res =  0.1725E+01
 MRCHDU: Convergence failed at 103  side 1    Res =  0.1785E+01
 MRCHDU: Convergence failed at 104  side 1    Res =  0.3621E+01
 MRCHDU: Convergence failed at 105  side 1    Res =  0.3585E+01
 MRCHDU: Convergence failed at 106  side 1    Res =  0.3537E+01
 Side 1  free  transition at x/c =  0.0211   36
 Side 2 forced transition at x/c =  1.0000   56

   1   rms: 0.1216E+01   max: -.6838E+01   D at   55  2   RLX: 0.073
       a = 16.250      CL =  2.2978
      Cm = -0.1695     CD =  0.01325   =>   CDf =  0.00611    CDp =  0.00715

 Side 1  free  transition at x/c =  0.0215   37
 Side 2 forced transition at x/c =  1.0000   56
 idif Ue xi dudx           1  8.66255090E-02  1.19227171E-02   7.2655845    
 Uenew xinew           2  5.31194545E-03  7.31110573E-04

   2   rms: 0.8221E+00   max: -.9092E+01   C at   56  2   RLX: 0.055
       a = 16.250      CL =  2.2541
      Cm = -0.1579     CD =  0.01300   =>   CDf =  0.00661    CDp =  0.00639

 Side 1  free  transition at x/c =  0.0216   36
 Side 2 forced transition at x/c =  1.0000   57

   3   rms: 0.6624E+00   max: -.6016E+01   C at   57  2   RLX: 0.083
       a = 16.250      CL =  2.2061
      Cm = -0.1481     CD =  0.01428   =>   CDf =  0.00618    CDp =  0.00810

 Side 1  free  transition at x/c =  0.0217   36
 Side 2 forced transition at x/c =  1.0000   57

   4   rms: 0.6536E+00   max: -.4418E+01   C at   57  2   RLX: 0.113
       a = 16.250      CL =  2.1400
      Cm = -0.1366     CD =  0.01632   =>   CDf =  0.00614    CDp =  0.01018

 Side 1  free  transition at x/c =  0.0218   36
 Side 2 forced transition at x/c =  1.0000   57

   5   rms: 0.8201E+00   max: -.2867E+01   C at   57  2   RLX: 0.174
       a = 16.250      CL =  2.0249
      Cm = -0.1241     CD =  0.02060   =>   CDf =  0.00608    CDp =  0.01453

 Side 1  free  transition at x/c =  0.0222   36
 Side 2 forced transition at x/c =  1.0000   57
 idif Ue xi dudx           1  0.12233835      1.45651102E-02   8.3994112    
 Uenew xinew           2  3.84434462E-02  4.57692146E-03

   6   rms: 0.8475E+00   max: 0.2469E+01   D at   65  2   RLX: 0.239
       a = 16.250      CL =  1.8137
      Cm = -0.0947     CD =  0.02736   =>   CDf =  0.00635    CDp =  0.02101

 Side 1  free  transition at x/c =  0.0233   35
 Side 2 forced transition at x/c =  1.0000   58
 idif Ue xi dudx           1  0.15089492      1.65926218E-02   9.0940981    
 Uenew xinew           2  7.00220838E-02  7.69972801E-03

   7   rms: 0.5340E+00   max: 0.1823E+01   D at   62  2   RLX: 0.628
       a = 16.250      CL =  1.4358
      Cm = -0.0379     CD =  0.04681   =>   CDf =  0.00623    CDp =  0.04058

 Side 1  free  transition at x/c =  0.0264   35
 Side 2 forced transition at x/c =  1.0000   59
 idif Ue xi dudx           1  0.11283942      1.11614466E-02   10.109749    
 Uenew xinew           2  3.25240828E-02  3.21710110E-03

   8   rms: 0.2407E+00   max: 0.1073E+01   D at   69  2   RLX: 0.522
       a = 16.250      CL =  1.3085
      Cm = -0.0193     CD =  0.06189   =>   CDf =  0.00607    CDp =  0.05581

 Side 1  free  transition at x/c =  0.0281   34
 Side 2 forced transition at x/c =  1.0000   60

   9   rms: 0.1127E+00   max: -.5168E+00   C at   60  2   RLX: 0.967
       a = 16.250      CL =  1.2005
      Cm = -0.0070     CD =  0.07326   =>   CDf =  0.00554    CDp =  0.06772

 Side 1  free  transition at x/c =  0.0300   35
 Side 2 forced transition at x/c =  1.0000   60

  10   rms: 0.8502E-02   max: 0.7709E-01   D at   74  2
       a = 16.250      CL =  1.2010
      Cm = -0.0068     CD =  0.07226   =>   CDf =  0.00543    CDp =  0.06682

 Side 1  free  transition at x/c =  0.0303   35
 Side 2 forced transition at x/c =  1.0000   60

  11   rms: 0.1418E-02   max: -.8585E-02   D at   71  1
       a = 16.250      CL =  1.2014
      Cm = -0.0067     CD =  0.07206   =>   CDf =  0.00540    CDp =  0.06666

 Side 1  free  transition at x/c =  0.0302   35
 Side 2 forced transition at x/c =  1.0000   60

  12   rms: 0.1105E-03   max: -.7059E-03   D at   74  2
       a = 16.250      CL =  1.2015
      Cm = -0.0067     CD =  0.07209   =>   CDf =  0.00541    CDp =  0.06668

 Side 1  free  transition at x/c =  0.0302   35
 Side 2 forced transition at x/c =  1.0000   60

  13   rms: 0.5021E-05   max: 0.6092E-04   C at   60  2
       a = 16.250      CL =  1.2015
      Cm = -0.0067     CD =  0.07209   =>   CDf =  0.00541    CDp =  0.06668
 plradd ia,ip,cpol            1           0  2.81642447E-03

 Point added to stored polar  1
 Point written to save file  naca633218_Re500k.ext.pol                       
 Dump file unspecified or not available
 Calculating wake trajectory ...
 Calculating source influence matrix ...

 Solving BL system ...

 Side 1  free  transition at x/c =  0.0302   35
 Side 2 forced transition at x/c =  1.0000   60

   1   rms: 0.3097E-01   max: 0.1318E+00   T at   35  1   RLX: 0.496
       a = 16.500      CL =  1.2031
      Cm = -0.0070     CD =  0.07371   =>   CDf =  0.00542    CDp =  0.06830

 Side 1  free  transition at x/c =  0.0298   35
 Side 2 forced transition at x/c =  1.0000   60

   2   rms: 0.2094E-01   max: 0.9372E-01   T at   35  1
       a = 16.500      CL =  1.2027
      Cm = -0.0068     CD =  0.07508   =>   CDf =  0.00542    CDp =  0.06966

 Side 1  free  transition at x/c =  0.0293   34
 Side 2 forced transition at x/c =  1.0000   60

   3   rms: 0.1110E-01   max: -.1312E+00   D at   34  1
       a = 16.500      CL =  1.2037
      Cm = -0.0073     CD =  0.07511   =>   CDf =  0.00539    CDp =  0.06973

 Side 1  free  transition at x/c =  0.0295   34
 Side 2 forced transition at x/c =  1.0000   60

   4   rms: 0.1535E-02   max: -.9030E-02   D at   71  1
       a = 16.500      CL =  1.2047
      Cm = -0.0072     CD =  0.07481   =>   CDf =  0.00537    CDp =  0.06944

 Side 1  free  transition at x/c =  0.0295   34
 Side 2 forced transition at x/c =  1.0000   60

   5   rms: 0.1432E-03   max: -.7912E-03   D at   75  2
       a = 16.500      CL =  1.2048
      Cm = -0.0072     CD =  0.07484   =>   CDf =  0.00538    CDp =  0.06946

 Side 1  free  transition at x/c =  0.0294   34
 Side 2 forced transition at x/c =  1.0000   60

   6   rms: 0.6423E-05   max: 0.1213E-03   C at   60  2
       a = 16.500      CL =  1.2048
      Cm = -0.0072     CD =  0.07484   =>   CDf =  0.00537    CDp =  0.06947
 plradd ia,ip,cpol            2           0  1.75640278E-03

 Point added to stored polar  1
 Point written to save file  naca633218_Re500k.ext.pol                       
 Dump file unspecified or not available
 Calculating wake trajectory ...
 Calculating source influence matrix ...

 Solving BL system ...

 Side 1  free  transition at x/c =  0.0294   34
 Side 2 forced transition at x/c =  1.0000   60

   1   rms: 0.2766E-01   max: 0.1433E+00   T at   34  1   RLX: 0.486
       a = 16.750      CL =  1.2089
      Cm = -0.0077     CD =  0.07628   =>   CDf =  0.00538    CDp =  0.07090

 Side 1  free  transition at x/c =  0.0291   34
 Side 2 forced transition at x/c =  1.0000   60

   2   rms: 0.1446E-01   max: 0.6735E-01   T at   34  1
       a = 16.750      CL =  1.2117
      Cm = -0.0082     CD =  0.07784   =>   CDf =  0.00533    CDp =  0.07252

 Side 1  free  transition at x/c =  0.0287   34
 Side 2 forced transition at x/c =  1.0000   60

   3   rms: 0.1628E-02   max: 0.8941E-02   D at   75  2
       a = 16.750      CL =  1.2106
      Cm = -0.0082     CD =  0.07764   =>   CDf =  0.00527    CDp =  0.07236

 Side 1  free  transition at x/c =  0.0287   34
 Side 2 forced transition at x/c =  1.0000   60

   4   rms: 0.7465E-04   max: 0.7330E-03   D at   75  2
       a = 16.750      CL =  1.2105
      Cm = -0.0082     CD =  0.07760   =>   CDf =  0.00527    CDp =  0.07233
 plradd ia,ip,cpol            3           0  2.81642447E-03

 Point added to stored polar  1
 Point written to save file  naca633218_Re500k.ext.pol                       
 Dump file unspecified or not available
 Calculating wake trajectory ...
 Calculating source influence matrix ...

 Solving BL system ...

 Side 1  free  transition at x/c =  0.0287   34
 Side 2 forced transition at x/c =  1.0000   60

   1   rms: 0.2750E-01   max: 0.1408E+00   T at   34  1   RLX: 0.474
       a = 17.000      CL =  1.2139
      Cm = -0.0087     CD =  0.07910   =>   CDf =  0.00528    CDp =  0.07382

 Side 1  free  transition at x/c =  0.0283   34
 Side 2 forced transition at x/c =  1.0000   60

   2   rms: 0.1436E-01   max: 0.6706E-01   T at   34  1
       a = 17.000      CL =  1.2171
      Cm = -0.0091     CD =  0.08059   =>   CDf =  0.00524    CDp =  0.07535

 Side 1  free  transition at x/c =  0.0279   34
 Side 2 forced transition at x/c =  1.0000   60

   3   rms: 0.1696E-02   max: 0.9899E-02   D at   75  2
       a = 17.000      CL =  1.2159
      Cm = -0.0091     CD =  0.08041   =>   CDf =  0.00520    CDp =  0.07521

 Side 1  free  transition at x/c =  0.0279   34
 Side 2 forced transition at x/c =  1.0000   60

   4   rms: 0.1369E-03   max: 0.1419E-02   D at   75  2
       a = 17.000      CL =  1.2158
      Cm = -0.0091     CD =  0.08038   =>   CDf =  0.00520    CDp =  0.07518

 Side 1  free  transition at x/c =  0.0279   34
 Side 2 forced transition at x/c =  1.0000   60

   5   rms: 0.7015E-05   max: -.1117E-03   C at   60  2
       a = 17.000      CL =  1.2158
      Cm = -0.0091     CD =  0.08038   =>   CDf =  0.00520    CDp =  0.07518
 plradd ia,ip,cpol            4           0  1.75640278E-03

 Point added to stored polar  1
 Point written to save file  naca633218_Re500k.ext.pol                       
 Dump file unspecified or not available
 Calculating wake trajectory ...
 Calculating source influence matrix ...

 Solving BL system ...

 Side 1  free  transition at x/c =  0.0279   34
 Side 2 forced transition at x/c =  1.0000   60

   1   rms: 0.2697E-01   max: 0.1121E+00   T at   34  1   RLX: 0.463
       a = 17.250      CL =  1.2190
      Cm = -0.0096     CD =  0.08185   =>   CDf =  0.00520    CDp =  0.07665

 Side 1  free  transition at x/c =  0.0275   34
 Side 2 forced transition at x/c =  1.0000   60

   2   rms: 0.1467E-01   max: 0.5481E-01   T at   34  1
       a = 17.250      CL =  1.2214
      Cm = -0.0101     CD =  0.08353   =>   CDf =  0.00517    CDp =  0.07835

 Side 1  free  transition at x/c =  0.0272   34
 Side 2 forced transition at x/c =  1.0000   60

   3   rms: 0.1844E-02   max: 0.9603E-02   D at   75  2
       a = 17.250      CL =  1.2202
      Cm = -0.0101     CD =  0.08333   =>   CDf =  0.00515    CDp =  0.07818

 Side 1  free  transition at x/c =  0.0272   34
 Side 2 forced transition at x/c =  1.0000   60

   4   rms: 0.8387E-04   max: 0.7431E-03   D at   75  2
       a = 17.250      CL =  1.2202
      Cm = -0.0101     CD =  0.08329   =>   CDf =  0.00514    CDp =  0.07814
 plradd ia,ip,cpol            5           0  2.81642447E-03

 Point added to stored polar  1
 Point written to save file  naca633218_Re500k.ext.pol                       
 Dump file unspecified or not available
 Calculating wake trajectory ...
 Calculating source influence matrix ...

 Solving BL system ...

 Side 1  free  transition at x/c =  0.0272   34
 Side 2 forced transition at x/c =  1.0000   60

   1   rms: 0.2683E-01   max: 0.1179E+00   T at   34  1   RLX: 0.453
       a = 17.500      CL =  1.2230
      Cm = -0.0106     CD =  0.08479   =>   CDf =  0.00515    CDp =  0.07964

 Side 1  free  transition at x/c =  0.0269   34
 Side 2 forced transition at x/c =  1.0000   60

   2   rms: 0.1465E-01   max: 0.6225E-01   T at   34  1
       a = 17.500      CL =  1.2259
      Cm = -0.0111     CD =  0.08644   =>   CDf =  0.00513    CDp =  0.08132

 Side 1  free  transition at x/c =  0.0265   34
 Side 2 forced transition at x/c =  1.0000   60

   3   rms: 0.1813E-02   max: 0.8324E-02   D at   76  2
       a = 17.500      CL =  1.2247
      Cm = -0.0111     CD =  0.08622   =>   CDf =  0.00511    CDp =  0.08111

 Side 1  free  transition at x/c =  0.0265   34
 Side 2 forced transition at x/c =  1.0000   60

   4   rms: 0.7760E-04   max: 0.5316E-03   D at   75  2
       a = 17.500      CL =  1.2247
      Cm = -0.0111     CD =  0.08618   =>   CDf =  0.00511    CDp =  0.08107
 plradd ia,ip,cpol            6           0  1.75640278E-03

 Point added to stored polar  1
 Point written to save file  naca633218_Re500k.ext.pol                       
 Dump file unspecified or not available
 Calculating wake trajectory ...
 Calculating source influence matrix ...

 Solving BL system ...

 Side 1  free  transition at x/c =  0.0265   34
 Side 2 forced transition at x/c =  1.0000   60

   1   rms: 0.2697E-01   max: 0.1256E+00   T at   34  1   RLX: 0.443
       a = 17.750      CL =  1.2275
      Cm = -0.0116     CD =  0.08764   =>   CDf =  0.00511    CDp =  0.08253

 Side 1  free  transition at x/c =  0.0262   34
 Side 2 forced transition at x/c =  1.0000   60

   2   rms: 0.1521E-01   max: 0.6843E-01   T at   34  1
       a = 17.750      CL =  1.2298
      Cm = -0.0122     CD =  0.08944   =>   CDf =  0.00510    CDp =  0.08434

 Side 1  free  transition at x/c =  0.0259   34
 Side 2 forced transition at x/c =  1.0000   60

   3   rms: 0.1933E-02   max: 0.9799E-02   D at   76  2
       a = 17.750      CL =  1.2284
      Cm = -0.0121     CD =  0.08920   =>   CDf =  0.00509    CDp =  0.08412

 Side 1  free  transition at x/c =  0.0259   34
 Side 2 forced transition at x/c =  1.0000   60

   4   rms: 0.1061E-03   max: 0.8578E-03   D at   76  2
       a = 17.750      CL =  1.2283
      Cm = -0.0121     CD =  0.08917   =>   CDf =  0.00508    CDp =  0.08408

 Side 1  free  transition at x/c =  0.0259   34
 Side 2 forced transition at x/c =  1.0000   60

   5   rms: 0.4816E-05   max: -.9044E-04   C at   60  2
       a = 17.750      CL =  1.2283
      Cm = -0.0121     CD =  0.08916   =>   CDf =  0.00508    CDp =  0.08408
 plradd ia,ip,cpol            7           0  1.75640278E-03

 Point added to stored polar  1
 Point written to save file  naca633218_Re500k.ext.pol                       
 Dump file unspecified or not available
 Calculating wake trajectory ...
 Calculating source influence matrix ...

 Solving BL system ...

 Side 1  free  transition at x/c =  0.0259   34
 Side 2 forced transition at x/c =  1.0000   60

   1   rms: 0.2780E-01   max: 0.1434E+00   T at   34  1   RLX: 0.433
       a = 18.000      CL =  1.2308
      Cm = -0.0125     CD =  0.09058   =>   CDf =  0.00509    CDp =  0.08550

 Side 1  free  transition at x/c =  0.0256   34
 Side 2 forced transition at x/c =  1.0000   60

   2   rms: 0.1775E-01   max: 0.9755E-01   T at   34  1
       a = 18.000      CL =  1.2337
      Cm = -0.0127     CD =  0.09199   =>   CDf =  0.00474    CDp =  0.08725

 Side 1  free  transition at x/c =  0.0252   34
 Side 2 forced transition at x/c =  1.0000   59

   3   rms: 0.2700E-02   max: -.2068E-01   D at    2  1
       a = 18.000      CL =  1.2323
      Cm = -0.0127     CD =  0.09180   =>   CDf =  0.00509    CDp =  0.08671

 Side 1  free  transition at x/c =  0.0251   34
 Side 2 forced transition at x/c =  1.0000   59

   4   rms: 0.5187E-03   max: -.6131E-02   D at    4  1
       a = 18.000      CL =  1.2324
      Cm = -0.0127     CD =  0.09177   =>   CDf =  0.00509    CDp =  0.08668

 Side 1  free  transition at x/c =  0.0251   34
 Side 2 forced transition at x/c =  1.0000   59

   5   rms: 0.1581E-04   max: 0.1696E-03   C at   59  2
       a = 18.000      CL =  1.2324
      Cm = -0.0127     CD =  0.09177   =>   CDf =  0.00509    CDp =  0.08669
 plradd ia,ip,cpol            8           0  1.75640278E-03

 Point added to stored polar  1
 Point written to save file  naca633218_Re500k.ext.pol                       
 Dump file unspecified or not available

.OPERva   c>   Calculating wake trajectory ...
 Calculating source influence matrix ...

 Solving BL system ...

 Side 1  free  transition at x/c =  0.0251   34
 Side 2 forced transition at x/c =  1.0000   59

   1   rms: 0.2631E-01   max: 0.1158E+00   T at   34  1   RLX: 0.424
       a = 18.250      CL =  1.2349
      Cm = -0.0133     CD =  0.09333   =>   CDf =  0.00509    CDp =  0.08824

 Side 1  free  transition at x/c =  0.0250   34
 Side 2 forced transition at x/c =  1.0000   59

   2   rms: 0.1506E-01   max: 0.6278E-01   T at   34  1
       a = 18.250      CL =  1.2381
      Cm = -0.0140     CD =  0.09521   =>   CDf =  0.00504    CDp =  0.09017

 Side 1  free  transition at x/c =  0.0247   34
 Side 2 forced transition at x/c =  1.0000   59

   3   rms: 0.1914E-02   max: 0.1273E-01   D at   75  2
       a = 18.250      CL =  1.2368
      Cm = -0.0140     CD =  0.09493   =>   CDf =  0.00498    CDp =  0.08995

 Side 1  free  transition at x/c =  0.0248   34
 Side 2 forced transition at x/c =  1.0000   59

   4   rms: 0.1274E-03   max: 0.1585E-02   D at   75  2
       a = 18.250      CL =  1.2367
      Cm = -0.0139     CD =  0.09488   =>   CDf =  0.00498    CDp =  0.08990

 Side 1  free  transition at x/c =  0.0248   34
 Side 2 forced transition at x/c =  1.0000   59

   5   rms: 0.3236E-05   max: -.5775E-04   C at   59  2
       a = 18.250      CL =  1.2367
      Cm = -0.0139     CD =  0.09488   =>   CDf =  0.00498    CDp =  0.08990
 plradd ia,ip,cpol            9           0  1.75640278E-03

 Point added to stored polar  1
 Point written to save file  naca633218_Re500k.ext.pol                       
 Dump file unspecified or not available
 Calculating wake trajectory ...
 Calculating source influence matrix ...

 Solving BL system ...

 Side 1  free  transition at x/c =  0.0248   34
 Side 2 forced transition at x/c =  1.0000   59

   1   rms: 0.5105E-01   max: 0.2088E+00   T at   34  1   RLX: 0.408
       a = 18.750      CL =  1.2419
      Cm = -0.0150     CD =  0.09772   =>   CDf =  0.00499    CDp =  0.09274

 Side 1  free  transition at x/c =  0.0244   34
 Side 2 forced transition at x/c =  1.0000   59

   2   rms: 0.3098E-01   max: 0.1170E+00   D at   68  1
       a = 18.750      CL =  1.2469
      Cm = -0.0166     CD =  0.10199   =>   CDf =  0.00491    CDp =  0.09708

 Side 1  free  transition at x/c =  0.0238   34
 Side 2 forced transition at x/c =  1.0000   59

   3   rms: 0.4194E-02   max: 0.1925E-01   D at   76  2
       a = 18.750      CL =  1.2440
      Cm = -0.0166     CD =  0.10137   =>   CDf =  0.00479    CDp =  0.09658

 Side 1  free  transition at x/c =  0.0239   34
 Side 2 forced transition at x/c =  1.0000   59

   4   rms: 0.2054E-03   max: 0.1653E-02   D at   76  2
       a = 18.750      CL =  1.2440
      Cm = -0.0166     CD =  0.10123   =>   CDf =  0.00479    CDp =  0.09644

 Side 1  free  transition at x/c =  0.0239   34
 Side 2 forced transition at x/c =  1.0000   59

   5   rms: 0.9597E-05   max: -.4492E-04   C at   59  2
       a = 18.750      CL =  1.2440
      Cm = -0.0166     CD =  0.10123   =>   CDf =  0.00479    CDp =  0.09644
 plradd ia,ip,cpol           10           0  1.75640278E-03

 Point added to stored polar  1
 Point written to save file  naca633218_Re500k.ext.pol                       
 Dump file unspecified or not available
 Calculating wake trajectory ...
 Calculating source influence matrix ...

 Solving BL system ...

 Side 1  free  transition at x/c =  0.0239   34
 Side 2 forced transition at x/c =  1.0000   59

   1   rms: 0.5066E-01   max: 0.1837E+00   T at   34  1   RLX: 0.391
       a = 19.250      CL =  1.2483
      Cm = -0.0176     CD =  0.10407   =>   CDf =  0.00480    CDp =  0.09927

 Side 1  free  transition at x/c =  0.0234   34
 Side 2 forced transition at x/c =  1.0000   59

   2   rms: 0.3112E-01   max: 0.1121E+00   D at   67  1
       a = 19.250      CL =  1.2537
      Cm = -0.0194     CD =  0.10848   =>   CDf =  0.00474    CDp =  0.10375

 Side 1  free  transition at x/c =  0.0229   34
 Side 2 forced transition at x/c =  1.0000   59

   3   rms: 0.4649E-02   max: 0.2142E-01   D at   76  2
       a = 19.250      CL =  1.2507
      Cm = -0.0195     CD =  0.10789   =>   CDf =  0.00465    CDp =  0.10324

 Side 1  free  transition at x/c =  0.0230   34
 Side 2 forced transition at x/c =  1.0000   59

   4   rms: 0.2754E-03   max: 0.2358E-02   D at   76  2
       a = 19.250      CL =  1.2506
      Cm = -0.0194     CD =  0.10772   =>   CDf =  0.00464    CDp =  0.10307

 Side 1  free  transition at x/c =  0.0230   34
 Side 2 forced transition at x/c =  1.0000   59

   5   rms: 0.2349E-04   max: -.1068E-03   D at   78  2
       a = 19.250      CL =  1.2506
      Cm = -0.0194     CD =  0.10772   =>   CDf =  0.00464    CDp =  0.10307
 plradd ia,ip,cpol           11           0  1.75640278E-03

 Point added to stored polar  1
 Point written to save file  naca633218_Re500k.ext.pol                       
 Dump file unspecified or not available
 Calculating wake trajectory ...
 Calculating source influence matrix ...

 Solving BL system ...

 Side 1  free  transition at x/c =  0.0230   34
 Side 2 forced transition at x/c =  1.0000   59

   1   rms: 0.4972E-01   max: 0.1733E+00   T at   34  1   RLX: 0.376
       a = 19.750      CL =  1.2546
      Cm = -0.0206     CD =  0.11055   =>   CDf =  0.00465    CDp =  0.10589

 Side 1  free  transition at x/c =  0.0226   34
 Side 2 forced transition at x/c =  1.0000   59

   2   rms: 0.3120E-01   max: 0.1095E+00   D at   66  1
       a = 19.750      CL =  1.2604
      Cm = -0.0226     CD =  0.11511   =>   CDf =  0.00461    CDp =  0.11050

 Side 1  free  transition at x/c =  0.0222   34
 Side 2 forced transition at x/c =  1.0000   59

   3   rms: 0.4755E-02   max: 0.2641E-01   D at   76  2
       a = 19.750      CL =  1.2574
      Cm = -0.0226     CD =  0.11437   =>   CDf =  0.00455    CDp =  0.10982

 Side 1  free  transition at x/c =  0.0222   34
 Side 2 forced transition at x/c =  1.0000   59

   4   rms: 0.3409E-03   max: 0.3459E-02   D at   76  2
       a = 19.750      CL =  1.2574
      Cm = -0.0225     CD =  0.11420   =>   CDf =  0.00454    CDp =  0.10965

 Side 1  free  transition at x/c =  0.0222   34
 Side 2 forced transition at x/c =  1.0000   59

   5   rms: 0.4031E-04   max: -.1909E-03   D at   78  2
       a = 19.750      CL =  1.2574
      Cm = -0.0225     CD =  0.11420   =>   CDf =  0.00454    CDp =  0.10966
 plradd ia,ip,cpol           12           0  1.75640278E-03

 Point added to stored polar  1
 Point written to save file  naca633218_Re500k.ext.pol                       
 Dump file unspecified or not available
 Calculating wake trajectory ...
 Calculating source influence matrix ...

 Solving BL system ...

 Side 1  free  transition at x/c =  0.0222   34
 Side 2 forced transition at x/c =  1.0000   59

   1   rms: 0.4929E-01   max: 0.1870E+00   T at   34  1   RLX: 0.362
       a = 20.250      CL =  1.2613
      Cm = -0.0236     CD =  0.11693   =>   CDf =  0.00418    CDp =  0.11275

 Side 1  free  transition at x/c =  0.0220   35
 Side 2 forced transition at x/c =  1.0000   58

   2   rms: 0.3344E-01   max: 0.1878E+00   T at    2  1
       a = 20.250      CL =  1.2679
      Cm = -0.0255     CD =  0.12134   =>   CDf =  0.00452    CDp =  0.11681

 Side 1  free  transition at x/c =  0.0215   35
 Side 2 forced transition at x/c =  1.0000   58

   3   rms: 0.4320E-02   max: -.1937E-01   C at   58  2
       a = 20.250      CL =  1.2652
      Cm = -0.0253     CD =  0.12033   =>   CDf =  0.00447    CDp =  0.11586

 Side 1  free  transition at x/c =  0.0215   35
 Side 2 forced transition at x/c =  1.0000   58

   4   rms: 0.1424E-03   max: 0.7211E-03   D at   74  2
       a = 20.250      CL =  1.2652
      Cm = -0.0253     CD =  0.12026   =>   CDf =  0.00448    CDp =  0.11578

 Side 1  free  transition at x/c =  0.0215   35
 Side 2 forced transition at x/c =  1.0000   58

   5   rms: 0.1102E-04   max: 0.6506E-04   C at   58  2
       a = 20.250      CL =  1.2652
      Cm = -0.0253     CD =  0.12026   =>   CDf =  0.00448    CDp =  0.11578
 plradd ia,ip,cpol           13           0  9.48358444E-04

 Point added to stored polar  1
 Point written to save file  naca633218_Re500k.ext.pol                       
 Dump file unspecified or not available
 Calculating wake trajectory ...
 Calculating source influence matrix ...

 Solving BL system ...

 Side 1  free  transition at x/c =  0.0215   35
 Side 2 forced transition at x/c =  1.0000   58

   1   rms: 0.5639E-01   max: 0.2431E+00   T at   35  1   RLX: 0.350
       a = 20.750      CL =  1.2701
      Cm = -0.0259     CD =  0.12226   =>   CDf =  0.00449    CDp =  0.11777

 Side 1  free  transition at x/c =  0.0212   34
 Side 2 forced transition at x/c =  1.0000   58

   2   rms: 0.3581E-01   max: 0.1471E+00   D at   65  1
       a = 20.750      CL =  1.2696
      Cm = -0.0293     CD =  0.12927   =>   CDf =  0.00445    CDp =  0.12481

 Side 1  free  transition at x/c =  0.0209   34
 Side 2 forced transition at x/c =  1.0000   58

   3   rms: 0.6802E-02   max: 0.4337E-01   D at   65  1
       a = 20.750      CL =  1.2654
      Cm = -0.0294     CD =  0.12823   =>   CDf =  0.00427    CDp =  0.12395

 Side 1  free  transition at x/c =  0.0209   34
 Side 2 forced transition at x/c =  1.0000   58

   4   rms: 0.4095E-03   max: 0.3293E-02   D at   76  2
       a = 20.750      CL =  1.2654
      Cm = -0.0293     CD =  0.12790   =>   CDf =  0.00427    CDp =  0.12363

 Side 1  free  transition at x/c =  0.0209   34
 Side 2 forced transition at x/c =  1.0000   58

   5   rms: 0.2112E-04   max: -.7935E-04   D at   77  2
       a = 20.750      CL =  1.2654
      Cm = -0.0293     CD =  0.12790   =>   CDf =  0.00427    CDp =  0.12363
 plradd ia,ip,cpol           14           0  9.48358444E-04

 Point added to stored polar  1
 Point written to save file  naca633218_Re500k.ext.pol                       
 Dump file unspecified or not available
 Calculating wake trajectory ...
 Calculating source influence matrix ...

 Solving BL system ...

 Side 1  free  transition at x/c =  0.0209   34
 Side 2 forced transition at x/c =  1.0000   58

   1   rms: 0.5455E-01   max: 0.2323E+00   D at   59  1   RLX: 0.334
       a = 21.250      CL =  1.2655
      Cm = -0.0310     CD =  0.13153   =>   CDf =  0.00428    CDp =  0.12725

 Side 1  free  transition at x/c =  0.0208   34
 Side 2 forced transition at x/c =  1.0000   58

   2   rms: 0.3644E-01   max: 0.1565E+00   D at   59  1
       a = 21.250      CL =  1.2658
      Cm = -0.0343     CD =  0.13826   =>   CDf =  0.00419    CDp =  0.13406

 Side 1  free  transition at x/c =  0.0204   34
 Side 2 forced transition at x/c =  1.0000   58

   3   rms: 0.7473E-02   max: 0.4387E-01   D at   63  1
       a = 21.250      CL =  1.2611
      Cm = -0.0345     CD =  0.13712   =>   CDf =  0.00402    CDp =  0.13309

 Side 1  free  transition at x/c =  0.0204   34
 Side 2 forced transition at x/c =  1.0000   58

   4   rms: 0.6658E-03   max: 0.6777E-02   D at   76  2
       a = 21.250      CL =  1.2609
      Cm = -0.0344     CD =  0.13672   =>   CDf =  0.00402    CDp =  0.13270

 Side 1  free  transition at x/c =  0.0204   34
 Side 2 forced transition at x/c =  1.0000   58

   5   rms: 0.2564E-04   max: 0.2987E-03   D at   76  2
       a = 21.250      CL =  1.2609
      Cm = -0.0344     CD =  0.13670   =>   CDf =  0.00402    CDp =  0.13268
 plradd ia,ip,cpol           15           0  9.48358444E-04

 Point added to stored polar  1
 Point written to save file  naca633218_Re500k.ext.pol                       
 Dump file unspecified or not available
 Calculating wake trajectory ...
 Calculating source influence matrix ...

 Solving BL system ...

 Side 1  free  transition at x/c =  0.0204   34
 Side 2 forced transition at x/c =  1.0000   58

   1   rms: 0.5302E-01   max: 0.2471E+00   D at   58  1   RLX: 0.321
       a = 21.750      CL =  1.2608
      Cm = -0.0361     CD =  0.14022   =>   CDf =  0.00403    CDp =  0.13619

 Side 1  free  transition at x/c =  0.0203   34
 Side 2 forced transition at x/c =  1.0000   58

   2   rms: 0.3864E-01   max: 0.1847E+00   D at   58  1
       a = 21.750      CL =  1.2592
      Cm = -0.0399     CD =  0.14791   =>   CDf =  0.00395    CDp =  0.14396

 Side 1  free  transition at x/c =  0.0199   34
 Side 2 forced transition at x/c =  1.0000   58

   3   rms: 0.7130E-02   max: 0.3449E-01   D at   61  1
       a = 21.750      CL =  1.2549
      Cm = -0.0400     CD =  0.14626   =>   CDf =  0.00379    CDp =  0.14247

 Side 1  free  transition at x/c =  0.0200   34
 Side 2 forced transition at x/c =  1.0000   58

   4   rms: 0.8219E-03   max: 0.5035E-02   D at   61  1
       a = 21.750      CL =  1.2545
      Cm = -0.0400     CD =  0.14588   =>   CDf =  0.00379    CDp =  0.14209

 Side 1  free  transition at x/c =  0.0200   34
 Side 2 forced transition at x/c =  1.0000   58

   5   rms: 0.6428E-04   max: 0.4469E-03   D at   75  2
       a = 21.750      CL =  1.2545
      Cm = -0.0400     CD =  0.14584   =>   CDf =  0.00379    CDp =  0.14205
 plradd ia,ip,cpol           16           0  9.48358444E-04

 Point added to stored polar  1
 Point written to save file  naca633218_Re500k.ext.pol                       
 Dump file unspecified or not available
 Calculating wake trajectory ...
 Calculating source influence matrix ...

 Solving BL system ...

 Side 1  free  transition at x/c =  0.0200   34
 Side 2 forced transition at x/c =  1.0000   58

   1   rms: 0.5654E-01   max: 0.2914E+00   D at   57  1   RLX: 0.307
       a = 22.250      CL =  1.2529
      Cm = -0.0418     CD =  0.14985   =>   CDf =  0.00380    CDp =  0.14606

 Side 1  free  transition at x/c =  0.0198   34
 Side 2 forced transition at x/c =  1.0000   58

   2   rms: 0.3984E-01   max: 0.2031E+00   D at   57  1
       a = 22.250      CL =  1.2501
      Cm = -0.0461     CD =  0.15833   =>   CDf =  0.00372    CDp =  0.15460

 Side 1  free  transition at x/c =  0.0195   34
 Side 2 forced transition at x/c =  1.0000   58

   3   rms: 0.9631E-02   max: 0.6250E-01   D at   60  1
       a = 22.250      CL =  1.2445
      Cm = -0.0464     CD =  0.15663   =>   CDf =  0.00356    CDp =  0.15307

 Side 1  free  transition at x/c =  0.0196   34
 Side 2 forced transition at x/c =  1.0000   58

   4   rms: 0.8162E-03   max: 0.5794E-02   D at   75  2
       a = 22.250      CL =  1.2443
      Cm = -0.0464     CD =  0.15587   =>   CDf =  0.00355    CDp =  0.15232

 Side 1  free  transition at x/c =  0.0196   34
 Side 2 forced transition at x/c =  1.0000   58

   5   rms: 0.4942E-04   max: 0.3091E-03   D at   75  2
       a = 22.250      CL =  1.2443
      Cm = -0.0464     CD =  0.15582   =>   CDf =  0.00355    CDp =  0.15227
 plradd ia,ip,cpol           17           0  9.48358444E-04

 Point added to stored polar  1
 Point written to save file  naca633218_Re500k.ext.pol                       
 Dump file unspecified or not available

.OPERva   c>  
 Polar accumulation disabled

.OPERv   c>  
 XFOIL   c>  
 XFOIL   c>  