
 ===================================================
  XFOIL Version 6.99
  Copyright (C) 2000   Mark Drela, Harold Youngren

  This software comes with ABSOLUTELY NO WARRANTY,
    subject to the GNU General Public License.

  Caveat computor
 ===================================================

 File  xfoil.def  not found

   QUIT    Exit program

  .OPER    Direct operating point(s)
  .MDES    Complex mapping design routine
  .QDES    Surface speed design routine
  .GDES    Geometry design routine

   SAVE f  Write airfoil to labeled coordinate file
   PSAV f  Write airfoil to plain coordinate file
   ISAV f  Write airfoil to ISES coordinate file
   MSAV f  Write airfoil to MSES coordinate file
   REVE    Reverse written-airfoil node ordering

   LOAD f  Read buffer airfoil from coordinate file
   NACA i  Set NACA 4,5-digit airfoil and buffer airfoil
   INTE    Set buffer airfoil by interpolating two airfoils
   NORM    Buffer airfoil normalization toggle
   XYCM rr Change CM reference location, currently  0.25000 0.00000

   BEND    Display structural properties of current airfoil

   PCOP    Set current-airfoil panel nodes directly from buffer airfoil points
   PANE    Set current-airfoil panel nodes ( 160 ) based on curvature
  .PPAR    Show/change paneling

  .PLOP    Plotting options

   WDEF f  Write  current-settings file
   RDEF f  Reread current-settings file
   NAME s  Specify new airfoil name
   NINC    Increment name version number

   Z       Zoom    | (available in all menus)
   U       Unzoom  | 

 XFOIL   c>  
 Labeled airfoil file.  Name:  NACA 4415                                       

 Number of input coordinate points:  97
 Counterclockwise ordering
 Max thickness =     0.149946  at x =   0.309
 Max camber    =     0.039618  at x =   0.403

  LE  x,y  =  -0.00000   0.00079  |   Chord =   1.00000
  TE  x,y  =   1.00000   0.00000  |

 Current airfoil nodes set from buffer airfoil nodes (  97 )

 XFOIL   c>  
 XFOIL   c>  
 Sharp trailing edge

 Paneling parameters used...
   Number of panel nodes       160
   Panel bunching parameter    1.000
   TE/LE panel density ratio   0.150
   Refined-area/LE panel density ratio    0.200
   Top    side refined area x/c limits  1.000 1.000
   Bottom side refined area x/c limits  1.000 1.000

 XFOIL   c>  
.OPERi   c>  
 Xtr/c     =  1.0000    top    side
 Xtr/c     =  1.0000    bottom side
 Ncrit     =    9.00   ( 0.070 % turb. level )
 Vacc      =  0.0100

 Klag  =  5.6000     Uxwt  =    1.00
 A     =  6.7000     B     =  0.7500       KCt = 0.01485
 CtiniK=  1.8000     CtiniX=  3.3000

..VPAR   c>  
..VPAR   c>  
.OPERi   c>  
 M  =    0.0000
 Re =    500000

.OPERv   c>  
.OPERv   c>  
.OPERv   c>  
 Polar  1 newly created for accumulation
 Airfoil archived with polar: NACA 4415                                       

Enter  polar save filename  OR  <return> for no file   s>  
 New polar save file available

Enter  polar dump filename  OR  <return> for no file   s>  
 Polar dump file will NOT be written

 Polar accumulation enabled

.OPERva   c>   Calculating unit vorticity distributions ...
 Calculating wake trajectory ...
 Calculating source influence matrix ...

 Solving BL system ...

 Initializing BL ...
    side            1  ...
 MRCHUE: Inverse mode at  56     Hk =   4.378
 MRCHUE: Inverse mode at  57     Hk =   5.078
 MRCHUE: Inverse mode at  58     Hk =   5.766
 MRCHUE: Inverse mode at  59     Hk =   6.444
 MRCHUE: Inverse mode at  60     Hk =   7.116
 MRCHUE: Inverse mode at  61     Hk =   7.782
 MRCHUE: Inverse mode at  62     Hk =   5.095
 MRCHUE: Inverse mode at  63     Hk =   3.025
 MRCHUE: Convergence failed at  77  side 1    Res =  0.1109E+01
    side            2  ...
 MRCHUE: Inverse mode at  32     Hk =   4.314
 MRCHUE: Inverse mode at  33     Hk =   5.374
 MRCHUE: Inverse mode at  34     Hk =   6.476
 MRCHUE: Inverse mode at  35     Hk =   7.628
 MRCHUE: Inverse mode at  36     Hk =   8.832
 MRCHUE: Inverse mode at  37     Hk =   6.320
 MRCHUE: Inverse mode at  38     Hk =   2.500
 MRCHUE: Inverse mode at  85     Hk =   2.500

 MRCHDU: Convergence failed at  77  side 1    Res =  0.1273E+01
 Side 1  free  transition at x/c =  0.7595   62
 Side 2  free  transition at x/c =  0.1328   37

   1   rms: 0.2061E+00   max: -.1137E+01   T at   62  1   RLX: 0.440
       a = -4.000      CL =  0.0285
      Cm = -0.1015     CD =  0.00754   =>   CDf =  0.00693    CDp =  0.00061

 Side 1  free  transition at x/c =  0.7718   62
 Side 2  free  transition at x/c =  0.1392   38

   2   rms: 0.1835E+00   max: -.8302E+00   T at   38  2   RLX: 0.602
       a = -4.000      CL =  0.0429
      Cm = -0.1044     CD =  0.00877   =>   CDf =  0.00695    CDp =  0.00183

 Side 1  free  transition at x/c =  0.7982   64
 Side 2  free  transition at x/c =  0.1754   40

   3   rms: 0.6941E-01   max: 0.4778E+00   D at   64  1
       a = -4.000      CL =  0.0364
      Cm = -0.1024     CD =  0.00972   =>   CDf =  0.00637    CDp =  0.00335

 Side 1  free  transition at x/c =  0.8091   64
 Side 2  free  transition at x/c =  0.1633   39

   4   rms: 0.2477E-01   max: -.1756E+00   D at   39  2
       a = -4.000      CL =  0.0555
      Cm = -0.1066     CD =  0.00980   =>   CDf =  0.00634    CDp =  0.00347

 Side 1  free  transition at x/c =  0.8128   65
 Side 2  free  transition at x/c =  0.1658   39

   5   rms: 0.3997E-02   max: -.3755E-01   D at   64  1
       a = -4.000      CL =  0.0518
      Cm = -0.1058     CD =  0.00981   =>   CDf =  0.00629    CDp =  0.00351

 Side 1  free  transition at x/c =  0.8118   65
 Side 2  free  transition at x/c =  0.1649   39

   6   rms: 0.1957E-03   max: 0.2389E-02   C at   65  1
       a = -4.000      CL =  0.0518
      Cm = -0.1058     CD =  0.00981   =>   CDf =  0.00629    CDp =  0.00351

 Side 1  free  transition at x/c =  0.8117   65
 Side 2  free  transition at x/c =  0.1649   39

   7   rms: 0.1078E-05   max: -.6932E-05   D at    4  2
       a = -4.000      CL =  0.0518
      Cm = -0.1058     CD =  0.00981   =>   CDf =  0.00629    CDp =  0.00351
 plradd ia,ip,cpol            1           0  6.66514225E-03

 Point added to stored polar  1
 Point written to save file  naca4415_Re500k.base.pol                        
 Dump file unspecified or not available
 Calculating wake trajectory ...
 Calculating source influence matrix ...

 Solving BL system ...

 Side 1  free  transition at x/c =  0.8117   65
 Side 2  free  transition at x/c =  0.1649   39

   1   rms: 0.8824E-01   max: -.4323E+00   T at   39  2
       a = -3.500      CL =  0.1110
      Cm = -0.1063     CD =  0.00967   =>   CDf =  0.00632    CDp =  0.00335

 Side 1  free  transition at x/c =  0.7947   65
 Side 2  free  transition at x/c =  0.1837   39

   2   rms: 0.2013E-01   max: -.2559E+00   D at   65  1
       a = -3.500      CL =  0.0998
      Cm = -0.1038     CD =  0.00955   =>   CDf =  0.00631    CDp =  0.00324

 Side 1  free  transition at x/c =  0.7927   65
 Side 2  free  transition at x/c =  0.1853   39

   3   rms: 0.2756E-02   max: 0.3167E-01   C at   39  2
       a = -3.500      CL =  0.1020
      Cm = -0.1043     CD =  0.00960   =>   CDf =  0.00635    CDp =  0.00325

 Side 1  free  transition at x/c =  0.7923   65
 Side 2  free  transition at x/c =  0.1852   39

   4   rms: 0.2539E-04   max: 0.2630E-03   C at   39  2
       a = -3.500      CL =  0.1020
      Cm = -0.1043     CD =  0.00960   =>   CDf =  0.00636    CDp =  0.00324
 plradd ia,ip,cpol            2           0  1.61000900E-02

 Point added to stored polar  1
 Point written to save file  naca4415_Re500k.base.pol                        
 Dump file unspecified or not available
 Calculating wake trajectory ...
 Calculating source influence matrix ...

 Solving BL system ...

 Side 1  free  transition at x/c =  0.7923   65
 Side 2  free  transition at x/c =  0.1852   39

   1   rms: 0.8727E-01   max: -.4176E+00   T at   39  2
       a = -3.000      CL =  0.1624
      Cm = -0.1049     CD =  0.00961   =>   CDf =  0.00637    CDp =  0.00324

 MRCHDU: Convergence failed at  40  side 2    Res =  0.4318E+01
 Side 1  free  transition at x/c =  0.7743   65
 Side 2  free  transition at x/c =  0.2104   40

   2   rms: 0.3212E-01   max: 0.3559E+00   C at   40  2
       a = -3.000      CL =  0.1487
      Cm = -0.1021     CD =  0.00930   =>   CDf =  0.00625    CDp =  0.00305

 Side 1  free  transition at x/c =  0.7742   64
 Side 2  free  transition at x/c =  0.2092   40

   3   rms: 0.3337E-02   max: 0.3879E-01   C at   64  1
       a = -3.000      CL =  0.1490
      Cm = -0.1022     CD =  0.00937   =>   CDf =  0.00634    CDp =  0.00303

 Side 1  free  transition at x/c =  0.7719   64
 Side 2  free  transition at x/c =  0.2089   40

   4   rms: 0.1622E-03   max: -.2635E-02   C at   64  1
       a = -3.000      CL =  0.1491
      Cm = -0.1022     CD =  0.00937   =>   CDf =  0.00635    CDp =  0.00302

 Side 1  free  transition at x/c =  0.7719   64
 Side 2  free  transition at x/c =  0.2089   40

   5   rms: 0.1564E-05   max: 0.1255E-04   D at   40  2
       a = -3.000      CL =  0.1491
      Cm = -0.1022     CD =  0.00937   =>   CDf =  0.00635    CDp =  0.00302
 plradd ia,ip,cpol            3           0  1.90517940E-02

 Point added to stored polar  1
 Point written to save file  naca4415_Re500k.base.pol                        
 Dump file unspecified or not available
 Calculating wake trajectory ...
 Calculating source influence matrix ...

 Solving BL system ...

 Side 1  free  transition at x/c =  0.7719   64
 Side 2  free  transition at x/c =  0.2089   40

   1   rms: 0.8331E-01   max: 0.5576E+00   D at   40  2
       a = -2.500      CL =  0.1905
      Cm = -0.0990     CD =  0.00909   =>   CDf =  0.00635    CDp =  0.00274

 Side 1  free  transition at x/c =  0.7467   63
 Side 2  free  transition at x/c =  0.2298   41

   2   rms: 0.2061E-01   max: -.1911E+00   C at   41  2
       a = -2.500      CL =  0.1962
      Cm = -0.1001     CD =  0.00917   =>   CDf =  0.00644    CDp =  0.00273

 Side 1  free  transition at x/c =  0.7519   64
 Side 2  free  transition at x/c =  0.2364   40

   3   rms: 0.3469E-02   max: -.5254E-01   C at   40  2
       a = -2.500      CL =  0.1962
      Cm = -0.1001     CD =  0.00920   =>   CDf =  0.00634    CDp =  0.00286

 Side 1  free  transition at x/c =  0.7506   64
 Side 2  free  transition at x/c =  0.2369   40

   4   rms: 0.1340E-03   max: 0.1478E-02   D at    4  1
       a = -2.500      CL =  0.1962
      Cm = -0.1001     CD =  0.00920   =>   CDf =  0.00635    CDp =  0.00286

 Side 1  free  transition at x/c =  0.7506   64
 Side 2  free  transition at x/c =  0.2369   40

   5   rms: 0.1666E-05   max: -.2017E-04   D at    4  1
       a = -2.500      CL =  0.1962
      Cm = -0.1001     CD =  0.00920   =>   CDf =  0.00635    CDp =  0.00286
 plradd ia,ip,cpol            4           0  2.22825520E-02

 Point added to stored polar  1
 Point written to save file  naca4415_Re500k.base.pol                        
 Dump file unspecified or not available
 Calculating wake trajectory ...
 Calculating source influence matrix ...

 Solving BL system ...

 Side 1  free  transition at x/c =  0.7506   64
 Side 2  free  transition at x/c =  0.2369   40

   1   rms: 0.7621E-01   max: -.3048E+00   T at   40  2
       a = -2.000      CL =  0.2430
      Cm = -0.0978     CD =  0.00915   =>   CDf =  0.00635    CDp =  0.00280

 MRCHDU: Convergence failed at  42  side 2    Res =  0.5362E+01
 Side 1  free  transition at x/c =  0.7272   63
 Side 2  free  transition at x/c =  0.2691   42

   2   rms: 0.1606E-01   max: -.1898E+00   D at   63  1
       a = -2.000      CL =  0.2427
      Cm = -0.0979     CD =  0.00904   =>   CDf =  0.00635    CDp =  0.00269

 Side 1  free  transition at x/c =  0.7298   63
 Side 2  free  transition at x/c =  0.2711   42

   3   rms: 0.2474E-02   max: 0.3492E-01   C at   63  1
       a = -2.000      CL =  0.2427
      Cm = -0.0979     CD =  0.00905   =>   CDf =  0.00631    CDp =  0.00274

 Side 1  free  transition at x/c =  0.7288   63
 Side 2  free  transition at x/c =  0.2702   42

   4   rms: 0.3628E-04   max: -.5056E-03   D at   65  1
       a = -2.000      CL =  0.2428
      Cm = -0.0979     CD =  0.00905   =>   CDf =  0.00633    CDp =  0.00272
 plradd ia,ip,cpol            5           0  4.37454507E-02

 Point added to stored polar  1
 Point written to save file  naca4415_Re500k.base.pol                        
 Dump file unspecified or not available
 Calculating wake trajectory ...
 Calculating source influence matrix ...

 Solving BL system ...

 Side 1  free  transition at x/c =  0.7288   63
 Side 2  free  transition at x/c =  0.2702   42

   1   rms: 0.8261E-01   max: -.4806E+00   C at   42  2
       a = -1.500      CL =  0.2902
      Cm = -0.0958     CD =  0.00898   =>   CDf =  0.00632    CDp =  0.00267

 Side 1  free  transition at x/c =  0.7065   63
 Side 2  free  transition at x/c =  0.3023   43

   2   rms: 0.1932E-01   max: -.2227E+00   D at   63  1
       a = -1.500      CL =  0.2887
      Cm = -0.0956     CD =  0.00890   =>   CDf =  0.00638    CDp =  0.00252

 Side 1  free  transition at x/c =  0.7076   63
 Side 2  free  transition at x/c =  0.3089   43

   3   rms: 0.1794E-02   max: 0.2692E-01   C at   63  1
       a = -1.500      CL =  0.2890
      Cm = -0.0956     CD =  0.00894   =>   CDf =  0.00631    CDp =  0.00263

 Side 1  free  transition at x/c =  0.7068   63
 Side 2  free  transition at x/c =  0.3085   43

   4   rms: 0.2282E-04   max: -.3077E-03   D at   64  1
       a = -1.500      CL =  0.2890
      Cm = -0.0956     CD =  0.00894   =>   CDf =  0.00632    CDp =  0.00262
 plradd ia,ip,cpol            6           0  0.28912398    

 Point added to stored polar  1
 Point written to save file  naca4415_Re500k.base.pol                        
 Dump file unspecified or not available
 Calculating wake trajectory ...
 Calculating source influence matrix ...

 Solving BL system ...

 Side 1  free  transition at x/c =  0.7068   63
 Side 2  free  transition at x/c =  0.3085   43

   1   rms: 0.8703E-01   max: -.6572E+00   C at   43  2   RLX: 0.761
       a = -1.000      CL =  0.3259
      Cm = -0.0942     CD =  0.00894   =>   CDf =  0.00630    CDp =  0.00263

 Side 1  free  transition at x/c =  0.6917   63
 Side 2  free  transition at x/c =  0.3352   44

   2   rms: 0.5061E-01   max: -.6210E+00   T at    2  1   RLX: 0.805
       a = -1.000      CL =  0.3317
      Cm = -0.0932     CD =  0.00879   =>   CDf =  0.00634    CDp =  0.00245

 Side 1  free  transition at x/c =  0.6862   63
 Side 2  free  transition at x/c =  0.3494   44

   3   rms: 0.9410E-02   max: -.1606E+00   C at   44  2
       a = -1.000      CL =  0.3347
      Cm = -0.0933     CD =  0.00884   =>   CDf =  0.00632    CDp =  0.00253

 Side 1  free  transition at x/c =  0.6853   62
 Side 2  free  transition at x/c =  0.3540   45

   4   rms: 0.6593E-02   max: -.1062E+00   C at   45  2
       a = -1.000      CL =  0.3342
      Cm = -0.0932     CD =  0.00882   =>   CDf =  0.00631    CDp =  0.00251

 Side 1  free  transition at x/c =  0.6852   62
 Side 2  free  transition at x/c =  0.3562   45

   5   rms: 0.7261E-03   max: 0.1344E-01   C at   45  2
       a = -1.000      CL =  0.3343
      Cm = -0.0932     CD =  0.00882   =>   CDf =  0.00628    CDp =  0.00254

 Side 1  free  transition at x/c =  0.6852   62
 Side 2  free  transition at x/c =  0.3558   45

   6   rms: 0.2628E-05   max: -.4158E-04   D at   46  2
       a = -1.000      CL =  0.3343
      Cm = -0.0932     CD =  0.00882   =>   CDf =  0.00628    CDp =  0.00254
 plradd ia,ip,cpol            7           0  0.27309740    

 Point added to stored polar  1
 Point written to save file  naca4415_Re500k.base.pol                        
 Dump file unspecified or not available
 Calculating wake trajectory ...
 Calculating source influence matrix ...

 Solving BL system ...

 Side 1  free  transition at x/c =  0.6852   62
 Side 2  free  transition at x/c =  0.3558   45

   1   rms: 0.1043E+00   max: -.1346E+01   C at   45  2   RLX: 0.371
       a = -0.500      CL =  0.3496
      Cm = -0.0920     CD =  0.00870   =>   CDf =  0.00628    CDp =  0.00242

 Side 1  free  transition at x/c =  0.6754   62
 Side 2  free  transition at x/c =  0.3704   45

   2   rms: 0.5071E-01   max: -.2422E+00   T at   45  2
       a = -0.500      CL =  0.3811
      Cm = -0.0910     CD =  0.00886   =>   CDf =  0.00630    CDp =  0.00256

 Side 1  free  transition at x/c =  0.6630   61
 Side 2  free  transition at x/c =  0.4456   49

   3   rms: 0.2630E-01   max: -.4568E+00   C at   49  2
       a = -0.500      CL =  0.3755
      Cm = -0.0900     CD =  0.00854   =>   CDf =  0.00614    CDp =  0.00240

 Side 1  free  transition at x/c =  0.6633   61
 Side 2  free  transition at x/c =  0.4455   49

   4   rms: 0.1277E-01   max: 0.2683E+00   C at   49  2
       a = -0.500      CL =  0.3761
      Cm = -0.0901     CD =  0.00859   =>   CDf =  0.00605    CDp =  0.00254

 Side 1  free  transition at x/c =  0.6632   61
 Side 2  free  transition at x/c =  0.4318   49

   5   rms: 0.2254E-02   max: -.4502E-01   C at   49  2
       a = -0.500      CL =  0.3763
      Cm = -0.0901     CD =  0.00860   =>   CDf =  0.00609    CDp =  0.00250

 Side 1  free  transition at x/c =  0.6632   61
 Side 2  free  transition at x/c =  0.4331   49

   6   rms: 0.1076E-04   max: -.2000E-03   D at   50  2
       a = -0.500      CL =  0.3763
      Cm = -0.0901     CD =  0.00860   =>   CDf =  0.00609    CDp =  0.00251
 plradd ia,ip,cpol            8           0  0.25721282    

 Point added to stored polar  1
 Point written to save file  naca4415_Re500k.base.pol                        
 Dump file unspecified or not available
 Calculating wake trajectory ...
 Calculating source influence matrix ...

 Solving BL system ...

 Side 1  free  transition at x/c =  0.6632   61
 Side 2  free  transition at x/c =  0.4331   49

   1   rms: 0.1555E+00   max: -.2818E+01   C at   49  2   RLX: 0.177
       a =  0.000      CL =  0.3832
      Cm = -0.0895     CD =  0.00853   =>   CDf =  0.00609    CDp =  0.00244

 Side 1  free  transition at x/c =  0.6590   61
 Side 2  free  transition at x/c =  0.4475   50

   2   rms: 0.1265E+00   max: -.2080E+01   C at   50  2   RLX: 0.240
       a =  0.000      CL =  0.3911
      Cm = -0.0888     CD =  0.00849   =>   CDf =  0.00603    CDp =  0.00246

 Side 1  free  transition at x/c =  0.6546   62
 Side 2  free  transition at x/c =  0.4665   49

   3   rms: 0.1151E+00   max: -.2235E+01   C at   49  2   RLX: 0.224
       a =  0.000      CL =  0.3973
      Cm = -0.0884     CD =  0.00851   =>   CDf =  0.00603    CDp =  0.00248

 Side 1  free  transition at x/c =  0.6518   62
 Side 2  free  transition at x/c =  0.4854   50

   4   rms: 0.1243E+00   max: -.2501E+01   C at   50  2   RLX: 0.200
       a =  0.000      CL =  0.4010
      Cm = -0.0880     CD =  0.00847   =>   CDf =  0.00598    CDp =  0.00249

 Side 1  free  transition at x/c =  0.6501   61
 Side 2  free  transition at x/c =  0.4988   51

   5   rms: 0.9734E-01   max: -.1973E+01   C at   51  2   RLX: 0.253
       a =  0.000      CL =  0.4045
      Cm = -0.0876     CD =  0.00841   =>   CDf =  0.00595    CDp =  0.00246

 Side 1  free  transition at x/c =  0.6481   61
 Side 2  free  transition at x/c =  0.5151   52

   6   rms: 0.7791E-01   max: -.1577E+01   C at   52  2   RLX: 0.317
       a =  0.000      CL =  0.4075
      Cm = -0.0872     CD =  0.00836   =>   CDf =  0.00589    CDp =  0.00247

 Side 1  free  transition at x/c =  0.6461   61
 Side 2  free  transition at x/c =  0.5336   53

   7   rms: 0.5772E-01   max: -.1169E+01   C at   53  2   RLX: 0.428
       a =  0.000      CL =  0.4100
      Cm = -0.0867     CD =  0.00830   =>   CDf =  0.00583    CDp =  0.00248

 Side 1  free  transition at x/c =  0.6443   61
 Side 2  free  transition at x/c =  0.5537   54

   8   rms: 0.3328E-01   max: -.6726E+00   C at   54  2   RLX: 0.743
       a =  0.000      CL =  0.4122
      Cm = -0.0861     CD =  0.00825   =>   CDf =  0.00576    CDp =  0.00249

 Side 1  free  transition at x/c =  0.6426   61
 Side 2  free  transition at x/c =  0.5761   55

   9   rms: 0.7658E-02   max: -.1518E+00   C at   55  2
       a =  0.000      CL =  0.4128
      Cm = -0.0859     CD =  0.00823   =>   CDf =  0.00569    CDp =  0.00254

 Side 1  free  transition at x/c =  0.6420   61
 Side 2  free  transition at x/c =  0.5830   56

  10   rms: 0.1543E-02   max: -.3086E-01   C at   56  2
       a =  0.000      CL =  0.4127
      Cm = -0.0859     CD =  0.00823   =>   CDf =  0.00568    CDp =  0.00255

 Side 1  free  transition at x/c =  0.6420   61
 Side 2  free  transition at x/c =  0.5836   56

  11   rms: 0.2700E-05   max: -.3153E-04   D at   58  2
       a =  0.000      CL =  0.4127
      Cm = -0.0859     CD =  0.00823   =>   CDf =  0.00567    CDp =  0.00256
 plradd ia,ip,cpol            9           0  0.24148312    

 Point added to stored polar  1
 Point written to save file  naca4415_Re500k.base.pol                        
 Dump file unspecified or not available
 Calculating wake trajectory ...
 Calculating source influence matrix ...

 Solving BL system ...

 Side 1  free  transition at x/c =  0.6420   61
 Side 2  free  transition at x/c =  0.5836   56

   1   rms: 0.2078E+00   max: -.3946E+01   C at   56  2   RLX: 0.127
       a =  0.500      CL =  0.4165
      Cm = -0.0852     CD =  0.00816   =>   CDf =  0.00567    CDp =  0.00249

 Side 1  free  transition at x/c =  0.6393   61
 Side 2  free  transition at x/c =  0.6003   56

   2   rms: 0.1428E+00   max: -.2629E+01   C at   56  2   RLX: 0.190
       a =  0.500      CL =  0.4234
      Cm = -0.0847     CD =  0.00817   =>   CDf =  0.00564    CDp =  0.00254

 Side 1  free  transition at x/c =  0.6358   61
 Side 2  free  transition at x/c =  0.6344   58

   3   rms: 0.1236E+00   max: -.2292E+01   C at   58  2   RLX: 0.218
       a =  0.500      CL =  0.4282
      Cm = -0.0837     CD =  0.00810   =>   CDf =  0.00554    CDp =  0.00256

 Side 1  free  transition at x/c =  0.6330   61
 Side 2  free  transition at x/c =  0.6626   60

   4   rms: 0.9069E-01   max: -.1625E+01   C at   60  2   RLX: 0.308
       a =  0.500      CL =  0.4337
      Cm = -0.0827     CD =  0.00805   =>   CDf =  0.00548    CDp =  0.00257

 Side 1  free  transition at x/c =  0.6303   60
 Side 2  free  transition at x/c =  0.6782   61

   5   rms: 0.6257E-01   max: -.1079E+01   C at   61  2   RLX: 0.464
       a =  0.500      CL =  0.4402
      Cm = -0.0821     CD =  0.00797   =>   CDf =  0.00541    CDp =  0.00256

 Side 1  free  transition at x/c =  0.6262   61
 Side 2  free  transition at x/c =  0.6959   60

   6   rms: 0.3361E-01   max: -.6134E+00   C at   60  2   RLX: 0.815
       a =  0.500      CL =  0.4468
      Cm = -0.0814     CD =  0.00798   =>   CDf =  0.00540    CDp =  0.00258

 Side 1  free  transition at x/c =  0.6226   61
 Side 2  free  transition at x/c =  0.7327   62

   7   rms: 0.7323E-02   max: -.1315E+00   C at   62  2
       a =  0.500      CL =  0.4468
      Cm = -0.0809     CD =  0.00792   =>   CDf =  0.00529    CDp =  0.00263

 Side 1  free  transition at x/c =  0.6221   61
 Side 2  free  transition at x/c =  0.7351   63

   8   rms: 0.2408E-02   max: -.4595E-01   C at   63  2
       a =  0.500      CL =  0.4467
      Cm = -0.0809     CD =  0.00792   =>   CDf =  0.00527    CDp =  0.00264

 Side 1  free  transition at x/c =  0.6221   61
 Side 2  free  transition at x/c =  0.7355   63

   9   rms: 0.5668E-05   max: 0.8199E-04   D at   64  2
       a =  0.500      CL =  0.4467
      Cm = -0.0809     CD =  0.00792   =>   CDf =  0.00526    CDp =  0.00265
 plradd ia,ip,cpol           10           0  0.24148312    

 Point added to stored polar  1
 Point written to save file  naca4415_Re500k.base.pol                        
 Dump file unspecified or not available
 Calculating wake trajectory ...
 Calculating source influence matrix ...

 Solving BL system ...

 Side 1  free  transition at x/c =  0.6221   61
 Side 2  free  transition at x/c =  0.7355   63

   1   rms: 0.1673E+00   max: -.3001E+01   C at   63  2   RLX: 0.167
       a =  1.000      CL =  0.4522
      Cm = -0.0800     CD =  0.00785   =>   CDf =  0.00526    CDp =  0.00259

 Side 1  free  transition at x/c =  0.6187   61
 Side 2  free  transition at x/c =  0.7530   63

   2   rms: 0.1128E+00   max: -.1905E+01   C at   63  2   RLX: 0.263
       a =  1.000      CL =  0.4614
      Cm = -0.0793     CD =  0.00789   =>   CDf =  0.00524    CDp =  0.00265

 Side 1  free  transition at x/c =  0.6148   60
 Side 2  free  transition at x/c =  0.7874   65

   3   rms: 0.7346E-01   max: -.1189E+01   C at   65  2   RLX: 0.421
       a =  1.000      CL =  0.4715
      Cm = -0.0782     CD =  0.00780   =>   CDf =  0.00516    CDp =  0.00264

 Side 1  free  transition at x/c =  0.6094   60
 Side 2  free  transition at x/c =  0.8426   68

   4   rms: 0.3716E-01   max: -.4682E+00   C at   68  2
       a =  1.000      CL =  0.4906
      Cm = -0.0777     CD =  0.00772   =>   CDf =  0.00499    CDp =  0.00273

 Side 1  free  transition at x/c =  0.6020   60
 Side 2  free  transition at x/c =  0.9247   73

   5   rms: 0.6214E-01   max: 0.3885E+00   D at   77  2
       a =  1.000      CL =  0.5580
      Cm = -0.0925     CD =  0.00785   =>   CDf =  0.00482    CDp =  0.00304

 Side 1  free  transition at x/c =  0.5999   61
 Side 2  free  transition at x/c =  0.9129   71

   6   rms: 0.2249E-01   max: -.1865E+00   D at   77  2
       a =  1.000      CL =  0.5343
      Cm = -0.0873     CD =  0.00784   =>   CDf =  0.00488    CDp =  0.00295

 Side 1  free  transition at x/c =  0.6009   61
 Side 2  free  transition at x/c =  0.9101   71

   7   rms: 0.3287E-02   max: 0.2547E-01   D at   77  2
       a =  1.000      CL =  0.5377
      Cm = -0.0880     CD =  0.00784   =>   CDf =  0.00486    CDp =  0.00297

 Side 1  free  transition at x/c =  0.6008   61
 Side 2  free  transition at x/c =  0.9103   71

   8   rms: 0.4738E-04   max: 0.4160E-03   D at   77  2
       a =  1.000      CL =  0.5377
      Cm = -0.0880     CD =  0.00784   =>   CDf =  0.00487    CDp =  0.00297
 plradd ia,ip,cpol           11           0  0.21056783    

 Point added to stored polar  1
 Point written to save file  naca4415_Re500k.base.pol                        
 Dump file unspecified or not available
 Calculating wake trajectory ...
 Calculating source influence matrix ...

 Solving BL system ...

 Side 1  free  transition at x/c =  0.6008   61
 Side 2  free  transition at x/c =  0.9103   71

   1   rms: 0.2956E+00   max: 0.1908E+01   D at   76  2   RLX: 0.279
       a =  1.500      CL =  0.6153
      Cm = -0.1016     CD =  0.00807   =>   CDf =  0.00487    CDp =  0.00320

 Side 1  free  transition at x/c =  0.5935   60
 Side 2  free  transition at x/c =  0.9191   71

   2   rms: 0.5202E-01   max: -.4241E+00   D at   76  2
       a =  1.500      CL =  0.5994
      Cm = -0.0889     CD =  0.00801   =>   CDf =  0.00492    CDp =  0.00309

 MRCHDU: Convergence failed at  75  side 2    Res =  0.3760E+01
 MRCHDU: Convergence failed at  76  side 2    Res =  0.2360E+01
 Side 1  free  transition at x/c =  0.5796   61
 Side 2 forced transition at x/c =  1.0000   76

   3   rms: 0.1629E+00   max: 0.2690E+01   C at   76  2   RLX: 0.502
       a =  1.500      CL =  0.6383
      Cm = -0.0967     CD =  0.00787   =>   CDf =  0.00506    CDp =  0.00281

 Side 1  free  transition at x/c =  0.5789   60
 Side 2  free  transition at x/c =  0.9983   76

   4   rms: 0.4282E-01   max: -.4393E+00   C at   76  2
       a =  1.500      CL =  0.6398
      Cm = -0.0976     CD =  0.00825   =>   CDf =  0.00504    CDp =  0.00320

 Side 1  free  transition at x/c =  0.5789   60
 Side 2  free  transition at x/c =  0.9699   74

   5   rms: 0.2218E-01   max: -.1597E+00   D at   75  2
       a =  1.500      CL =  0.6597
      Cm = -0.1021     CD =  0.00836   =>   CDf =  0.00505    CDp =  0.00331

 Side 1  free  transition at x/c =  0.5791   60
 Side 2  free  transition at x/c =  0.9560   73

   6   rms: 0.1484E-01   max: -.1647E+00   D at   73  2
       a =  1.500      CL =  0.6534
      Cm = -0.1008     CD =  0.00834   =>   CDf =  0.00501    CDp =  0.00333

 Side 1  free  transition at x/c =  0.5791   60
 Side 2  free  transition at x/c =  0.9646   73

   7   rms: 0.7126E-02   max: 0.6897E-01   D at   75  2
       a =  1.500      CL =  0.6570
      Cm = -0.1016     CD =  0.00835   =>   CDf =  0.00502    CDp =  0.00334

 Side 1  free  transition at x/c =  0.5790   60
 Side 2  free  transition at x/c =  0.9606   73

   8   rms: 0.5742E-03   max: -.5712E-02   D at   75  2
       a =  1.500      CL =  0.6568
      Cm = -0.1015     CD =  0.00836   =>   CDf =  0.00502    CDp =  0.00334

 Side 1  free  transition at x/c =  0.5790   60
 Side 2  free  transition at x/c =  0.9608   73

   9   rms: 0.1160E-05   max: 0.9395E-05   D at   79  2
       a =  1.500      CL =  0.6568
      Cm = -0.1015     CD =  0.00836   =>   CDf =  0.00502    CDp =  0.00334
 plradd ia,ip,cpol           12           0  0.18063833    

 Point added to stored polar  1
 Point written to save file  naca4415_Re500k.base.pol                        
 Dump file unspecified or not available
 Calculating wake trajectory ...
 Calculating source influence matrix ...

 Solving BL system ...

 Side 1  free  transition at x/c =  0.5790   60
 Side 2  free  transition at x/c =  0.9608   73

   1   rms: 0.9762E-01   max: 0.2767E+00   C at   74  2
       a =  2.000      CL =  0.7333
      Cm = -0.1056     CD =  0.00867   =>   CDf =  0.00500    CDp =  0.00367

 Side 1  free  transition at x/c =  0.5556   60
 Side 2  free  transition at x/c =  0.9814   73

   2   rms: 0.3218E-01   max: 0.3481E+00   C at   73  2
       a =  2.000      CL =  0.7139
      Cm = -0.1015     CD =  0.00888   =>   CDf =  0.00520    CDp =  0.00368

 Side 1  free  transition at x/c =  0.5606   60
 Side 2  free  transition at x/c =  0.9993   75

   3   rms: 0.3017E-01   max: 0.4204E+00   D at   75  2
       a =  2.000      CL =  0.7256
      Cm = -0.1041     CD =  0.00865   =>   CDf =  0.00514    CDp =  0.00351

 Side 1  free  transition at x/c =  0.5593   60
 Side 2  free  transition at x/c =  0.9890   74

   4   rms: 0.9879E-02   max: -.1013E+00   C at   74  2
       a =  2.000      CL =  0.7338
      Cm = -0.1059     CD =  0.00876   =>   CDf =  0.00514    CDp =  0.00363

 Side 1  free  transition at x/c =  0.5589   60
 Side 2  free  transition at x/c =  0.9854   74

   5   rms: 0.9776E-03   max: -.1150E-01   D at   75  2
       a =  2.000      CL =  0.7331
      Cm = -0.1058     CD =  0.00877   =>   CDf =  0.00514    CDp =  0.00363

 Side 1  free  transition at x/c =  0.5590   60
 Side 2  free  transition at x/c =  0.9858   74

   6   rms: 0.9952E-05   max: -.1243E-03   D at   75  2
       a =  2.000      CL =  0.7331
      Cm = -0.1058     CD =  0.00877   =>   CDf =  0.00514    CDp =  0.00363
 plradd ia,ip,cpol           13           0  0.16618985    

 Point added to stored polar  1
 Point written to save file  naca4415_Re500k.base.pol                        
 Dump file unspecified or not available
 Calculating wake trajectory ...
 Calculating source influence matrix ...

 Solving BL system ...

 Side 1  free  transition at x/c =  0.5590   60
 Side 2  free  transition at x/c =  0.9858   74

   1   rms: 0.1040E+00   max: 0.2648E+00   C at   74  2
       a =  2.500      CL =  0.8248
      Cm = -0.1135     CD =  0.00905   =>   CDf =  0.00512    CDp =  0.00393

 Side 1  free  transition at x/c =  0.5367   60
 Side 2  free  transition at x/c =  0.9984   74

   2   rms: 0.1414E-01   max: 0.1590E+00   D at   73  2
       a =  2.500      CL =  0.8235
      Cm = -0.1133     CD =  0.00910   =>   CDf =  0.00532    CDp =  0.00378

 Side 1  free  transition at x/c =  0.5395   60
 Side 2  free  transition at x/c =  0.9991   74

   3   rms: 0.1478E-02   max: 0.2152E-01   C at   60  1
       a =  2.500      CL =  0.8239
      Cm = -0.1134     CD =  0.00911   =>   CDf =  0.00526    CDp =  0.00385

 Side 1  free  transition at x/c =  0.5388   60
 Side 2  free  transition at x/c =  0.9989   74

   4   rms: 0.1348E-04   max: -.1731E-03   D at   60  1
       a =  2.500      CL =  0.8239
      Cm = -0.1134     CD =  0.00911   =>   CDf =  0.00527    CDp =  0.00384
 plradd ia,ip,cpol           14           0  9.08547267E-02

 Point added to stored polar  1
 Point written to save file  naca4415_Re500k.base.pol                        
 Dump file unspecified or not available
 Calculating wake trajectory ...
 Calculating source influence matrix ...

 Solving BL system ...

 Side 1  free  transition at x/c =  0.5388   60
 Side 2  free  transition at x/c =  0.9989   74

   1   rms: 0.1068E+00   max: 0.4479E+00   C at   74  2
       a =  3.000      CL =  0.9206
      Cm = -0.1224     CD =  0.00931   =>   CDf =  0.00523    CDp =  0.00407

 Side 1  free  transition at x/c =  0.5162   60
 Side 2 forced transition at x/c =  1.0000   73
 idif Ue xi dudx           1  0.17404987      2.87306309E-03   60.579899    
 Uenew xinew           2  3.28875594E-02  5.42879105E-04

   2   rms: 0.5941E-01   max: -.4182E+00   D at   73  2
       a =  3.000      CL =  0.8666
      Cm = -0.1110     CD =  0.00936   =>   CDf =  0.00550    CDp =  0.00386

 Side 1  free  transition at x/c =  0.5222   59
 Side 2 forced transition at x/c =  1.0000   74

   3   rms: 0.6754E-02   max: 0.5575E-01   D at   68  2
       a =  3.000      CL =  0.8661
      Cm = -0.1108     CD =  0.00932   =>   CDf =  0.00538    CDp =  0.00393

 Side 1  free  transition at x/c =  0.5220   59
 Side 2 forced transition at x/c =  1.0000   74

   4   rms: 0.6604E-03   max: 0.5693E-02   D at   68  2
       a =  3.000      CL =  0.8663
      Cm = -0.1108     CD =  0.00932   =>   CDf =  0.00537    CDp =  0.00395

 Side 1  free  transition at x/c =  0.5220   59
 Side 2 forced transition at x/c =  1.0000   74

   5   rms: 0.5373E-05   max: 0.4937E-04   D at   68  2
       a =  3.000      CL =  0.8663
      Cm = -0.1108     CD =  0.00932   =>   CDf =  0.00537    CDp =  0.00396
 plradd ia,ip,cpol           15           0  9.08547267E-02

 Point added to stored polar  1
 Point written to save file  naca4415_Re500k.base.pol                        
 Dump file unspecified or not available
 Calculating wake trajectory ...
 Calculating source influence matrix ...

 Solving BL system ...

 Side 1  free  transition at x/c =  0.5220   59
 Side 2 forced transition at x/c =  1.0000   74

   1   rms: 0.6929E-01   max: -.1880E+00   D at   70  2
       a =  3.500      CL =  0.9026
      Cm = -0.1068     CD =  0.00949   =>   CDf =  0.00533    CDp =  0.00416

 Side 1  free  transition at x/c =  0.5033   59
 Side 2 forced transition at x/c =  1.0000   73

   2   rms: 0.1013E-01   max: -.1291E+00   C at   59  1
       a =  3.500      CL =  0.9004
      Cm = -0.1064     CD =  0.00956   =>   CDf =  0.00551    CDp =  0.00405

 Side 1  free  transition at x/c =  0.5063   59
 Side 2 forced transition at x/c =  1.0000   73

   3   rms: 0.1093E-02   max: 0.9206E-02   C at   59  1
       a =  3.500      CL =  0.9013
      Cm = -0.1065     CD =  0.00956   =>   CDf =  0.00545    CDp =  0.00411

 Side 1  free  transition at x/c =  0.5058   59
 Side 2 forced transition at x/c =  1.0000   73

   4   rms: 0.1191E-04   max: -.1791E-03   C at   59  1
       a =  3.500      CL =  0.9013
      Cm = -0.1065     CD =  0.00956   =>   CDf =  0.00545    CDp =  0.00411
 plradd ia,ip,cpol           16           0  9.08547267E-02

 Point added to stored polar  1
 Point written to save file  naca4415_Re500k.base.pol                        
 Dump file unspecified or not available
 Calculating wake trajectory ...
 Calculating source influence matrix ...

 Solving BL system ...

 Side 1  free  transition at x/c =  0.5058   59
 Side 2 forced transition at x/c =  1.0000   73

   1   rms: 0.6930E-01   max: -.1703E+00   D at   69  2
       a =  4.000      CL =  0.9381
      Cm = -0.1026     CD =  0.00971   =>   CDf =  0.00545    CDp =  0.00425

 Side 1  free  transition at x/c =  0.4825   58
 Side 2 forced transition at x/c =  1.0000   73

   2   rms: 0.1490E-01   max: -.1887E+00   D at   58  1
       a =  4.000      CL =  0.9334
      Cm = -0.1016     CD =  0.00981   =>   CDf =  0.00561    CDp =  0.00420

 Side 1  free  transition at x/c =  0.4877   58
 Side 2 forced transition at x/c =  1.0000   73

   3   rms: 0.2265E-02   max: 0.2133E-01   C at   58  1
       a =  4.000      CL =  0.9352
      Cm = -0.1020     CD =  0.00982   =>   CDf =  0.00553    CDp =  0.00429

 Side 1  free  transition at x/c =  0.4867   58
 Side 2 forced transition at x/c =  1.0000   73

   4   rms: 0.3800E-04   max: -.5729E-03   C at   58  1
       a =  4.000      CL =  0.9352
      Cm = -0.1020     CD =  0.00982   =>   CDf =  0.00553    CDp =  0.00428
 plradd ia,ip,cpol           17           0  9.08547267E-02

 Point added to stored polar  1
 Point written to save file  naca4415_Re500k.base.pol                        
 Dump file unspecified or not available
 Calculating wake trajectory ...
 Calculating source influence matrix ...

 Solving BL system ...

 Side 1  free  transition at x/c =  0.4867   58
 Side 2 forced transition at x/c =  1.0000   73

   1   rms: 0.6903E-01   max: -.1582E+00   D at   70  2
       a =  4.500      CL =  0.9715
      Cm = -0.0979     CD =  0.01002   =>   CDf =  0.00548    CDp =  0.00455

 Side 1  free  transition at x/c =  0.4694   58
 Side 2 forced transition at x/c =  1.0000   72

   2   rms: 0.7675E-02   max: -.9808E-01   C at   58  1
       a =  4.500      CL =  0.9698
      Cm = -0.0976     CD =  0.01010   =>   CDf =  0.00563    CDp =  0.00447

 Side 1  free  transition at x/c =  0.4707   58
 Side 2 forced transition at x/c =  1.0000   72

   3   rms: 0.7256E-03   max: 0.6195E-02   C at   58  1
       a =  4.500      CL =  0.9703
      Cm = -0.0977     CD =  0.01011   =>   CDf =  0.00560    CDp =  0.00451

 Side 1  free  transition at x/c =  0.4705   58
 Side 2 forced transition at x/c =  1.0000   72

   4   rms: 0.4341E-05   max: -.1446E-04   D at   70  2
       a =  4.500      CL =  0.9702
      Cm = -0.0977     CD =  0.01011   =>   CDf =  0.00560    CDp =  0.00451
 plradd ia,ip,cpol           18           0  8.09856951E-02

 Point added to stored polar  1
 Point written to save file  naca4415_Re500k.base.pol                        
 Dump file unspecified or not available
 Calculating wake trajectory ...
 Calculating source influence matrix ...

 Solving BL system ...

 Side 1  free  transition at x/c =  0.4705   58
 Side 2 forced transition at x/c =  1.0000   72

   1   rms: 0.6800E-01   max: -.1397E+00   D at   69  2
       a =  5.000      CL =  1.0080
      Cm = -0.0940     CD =  0.01032   =>   CDf =  0.00560    CDp =  0.00471

 Side 1  free  transition at x/c =  0.4527   57
 Side 2 forced transition at x/c =  1.0000   72

   2   rms: 0.8001E-02   max: -.1094E+00   C at   57  1
       a =  5.000      CL =  1.0043
      Cm = -0.0932     CD =  0.01042   =>   CDf =  0.00570    CDp =  0.00472

 Side 1  free  transition at x/c =  0.4552   57
 Side 2 forced transition at x/c =  1.0000   72

   3   rms: 0.7347E-03   max: -.4500E-02   D at    4  2
       a =  5.000      CL =  1.0048
      Cm = -0.0933     CD =  0.01042   =>   CDf =  0.00566    CDp =  0.00476

 Side 1  free  transition at x/c =  0.4549   57
 Side 2 forced transition at x/c =  1.0000   72

   4   rms: 0.3721E-05   max: -.4062E-04   C at   57  1
       a =  5.000      CL =  1.0048
      Cm = -0.0933     CD =  0.01042   =>   CDf =  0.00566    CDp =  0.00476
 plradd ia,ip,cpol           19           0  8.09856951E-02

 Point added to stored polar  1
 Point written to save file  naca4415_Re500k.base.pol                        
 Dump file unspecified or not available
 Calculating wake trajectory ...
 Calculating source influence matrix ...

 Solving BL system ...

 Side 1  free  transition at x/c =  0.4549   57
 Side 2 forced transition at x/c =  1.0000   72

   1   rms: 0.6710E-01   max: -.1283E+00   D at   70  2
       a =  5.500      CL =  1.0435
      Cm = -0.0898     CD =  0.01060   =>   CDf =  0.00559    CDp =  0.00501

 Side 1  free  transition at x/c =  0.4375   57
 Side 2 forced transition at x/c =  1.0000   71

   2   rms: 0.8719E-02   max: -.7543E-01   C at   57  1
       a =  5.500      CL =  1.0357
      Cm = -0.0882     CD =  0.01075   =>   CDf =  0.00575    CDp =  0.00500

 Side 1  free  transition at x/c =  0.4395   58
 Side 2 forced transition at x/c =  1.0000   71

   3   rms: 0.4446E-02   max: -.5284E-01   D at   57  1
       a =  5.500      CL =  1.0357
      Cm = -0.0882     CD =  0.01073   =>   CDf =  0.00574    CDp =  0.00498

 Side 1  free  transition at x/c =  0.4401   58
 Side 2 forced transition at x/c =  1.0000   71

   4   rms: 0.6495E-03   max: -.6120E-02   D at   59  1
       a =  5.500      CL =  1.0363
      Cm = -0.0883     CD =  0.01073   =>   CDf =  0.00570    CDp =  0.00503

 Side 1  free  transition at x/c =  0.4399   58
 Side 2 forced transition at x/c =  1.0000   71

   5   rms: 0.7721E-05   max: -.5179E-04   D at   59  1
       a =  5.500      CL =  1.0362
      Cm = -0.0883     CD =  0.01073   =>   CDf =  0.00571    CDp =  0.00502
 plradd ia,ip,cpol           20           0  7.19529837E-02

 Point added to stored polar  1
 Point written to save file  naca4415_Re500k.base.pol                        
 Dump file unspecified or not available
 Calculating wake trajectory ...
 Calculating source influence matrix ...

 Solving BL system ...

 Side 1  free  transition at x/c =  0.4399   58
 Side 2 forced transition at x/c =  1.0000   71

   1   rms: 0.6722E-01   max: -.3075E+00   D at   58  1
       a =  6.000      CL =  1.0634
      Cm = -0.0825     CD =  0.01122   =>   CDf =  0.00562    CDp =  0.00559

 Side 1  free  transition at x/c =  0.4236   58
 Side 2 forced transition at x/c =  1.0000   70

   2   rms: 0.2175E-01   max: -.2750E+00   D at   58  1
       a =  6.000      CL =  1.0640
      Cm = -0.0825     CD =  0.01097   =>   CDf =  0.00575    CDp =  0.00523

 Side 1  free  transition at x/c =  0.4253   58
 Side 2 forced transition at x/c =  1.0000   70

   3   rms: 0.3905E-02   max: 0.3948E-01   C at   58  1
       a =  6.000      CL =  1.0669
      Cm = -0.0831     CD =  0.01104   =>   CDf =  0.00570    CDp =  0.00533

 Side 1  free  transition at x/c =  0.4241   58
 Side 2 forced transition at x/c =  1.0000   70

   4   rms: 0.7651E-04   max: -.1311E-02   D at   59  1
       a =  6.000      CL =  1.0669
      Cm = -0.0831     CD =  0.01104   =>   CDf =  0.00573    CDp =  0.00531
 plradd ia,ip,cpol           21           0  7.19529837E-02

 Point added to stored polar  1
 Point written to save file  naca4415_Re500k.base.pol                        
 Dump file unspecified or not available
 Calculating wake trajectory ...
 Calculating source influence matrix ...

 Solving BL system ...

 Side 1  free  transition at x/c =  0.4240   58
 Side 2 forced transition at x/c =  1.0000   70

   1   rms: 0.6721E-01   max: -.3151E+00   D at   58  1
       a =  6.500      CL =  1.0950
      Cm = -0.0776     CD =  0.01152   =>   CDf =  0.00573    CDp =  0.00579

 Side 1  free  transition at x/c =  0.4085   57
 Side 2 forced transition at x/c =  1.0000   70

   2   rms: 0.1547E-01   max: -.1861E+00   D at   57  1
       a =  6.500      CL =  1.0980
      Cm = -0.0782     CD =  0.01136   =>   CDf =  0.00575    CDp =  0.00560

 Side 1  free  transition at x/c =  0.4084   57
 Side 2 forced transition at x/c =  1.0000   70

   3   rms: 0.1688E-02   max: 0.1789E-01   C at   57  1
       a =  6.500      CL =  1.0990
      Cm = -0.0784     CD =  0.01140   =>   CDf =  0.00574    CDp =  0.00566

 Side 1  free  transition at x/c =  0.4078   57
 Side 2 forced transition at x/c =  1.0000   70

   4   rms: 0.1564E-04   max: -.3100E-03   D at   58  1
       a =  6.500      CL =  1.0990
      Cm = -0.0784     CD =  0.01140   =>   CDf =  0.00575    CDp =  0.00565
 plradd ia,ip,cpol           22           0  6.37278706E-02

 Point added to stored polar  1
 Point written to save file  naca4415_Re500k.base.pol                        
 Dump file unspecified or not available
 Calculating wake trajectory ...
 Calculating source influence matrix ...

 Solving BL system ...

 Side 1  free  transition at x/c =  0.4078   57
 Side 2 forced transition at x/c =  1.0000   70

   1   rms: 0.6726E-01   max: -.3131E+00   D at   57  1
       a =  7.000      CL =  1.1281
      Cm = -0.0732     CD =  0.01191   =>   CDf =  0.00564    CDp =  0.00627

 Side 1  free  transition at x/c =  0.3912   57
 Side 2 forced transition at x/c =  1.0000   69

   2   rms: 0.1480E-01   max: -.1798E+00   D at   57  1
       a =  7.000      CL =  1.1311
      Cm = -0.0738     CD =  0.01179   =>   CDf =  0.00578    CDp =  0.00601

 Side 1  free  transition at x/c =  0.3913   57
 Side 2 forced transition at x/c =  1.0000   69

   3   rms: 0.1586E-02   max: 0.1771E-01   C at   57  1
       a =  7.000      CL =  1.1319
      Cm = -0.0740     CD =  0.01182   =>   CDf =  0.00576    CDp =  0.00606

 Side 1  free  transition at x/c =  0.3907   57
 Side 2 forced transition at x/c =  1.0000   69

   4   rms: 0.2110E-04   max: -.2243E-03   D at   58  1
       a =  7.000      CL =  1.1319
      Cm = -0.0740     CD =  0.01182   =>   CDf =  0.00577    CDp =  0.00605
 plradd ia,ip,cpol           23           0  6.37278706E-02

 Point added to stored polar  1
 Point written to save file  naca4415_Re500k.base.pol                        
 Dump file unspecified or not available
 Calculating wake trajectory ...
 Calculating source influence matrix ...

 Solving BL system ...

 Side 1  free  transition at x/c =  0.3907   57
 Side 2 forced transition at x/c =  1.0000   69

   1   rms: 0.6939E-01   max: -.3590E+00   D at   57  1
       a =  7.500      CL =  1.1597
      Cm = -0.0687     CD =  0.01244   =>   CDf =  0.00578    CDp =  0.00666

 Side 1  free  transition at x/c =  0.3727   56
 Side 2 forced transition at x/c =  1.0000   69

   2   rms: 0.9036E-02   max: -.1449E+00   D at   57  1
       a =  7.500      CL =  1.1638
      Cm = -0.0695     CD =  0.01233   =>   CDf =  0.00581    CDp =  0.00652

 Side 1  free  transition at x/c =  0.3722   56
 Side 2 forced transition at x/c =  1.0000   69

   3   rms: 0.6519E-03   max: -.1213E-01   D at   57  1
       a =  7.500      CL =  1.1639
      Cm = -0.0695     CD =  0.01233   =>   CDf =  0.00582    CDp =  0.00652

 Side 1  free  transition at x/c =  0.3720   56
 Side 2 forced transition at x/c =  1.0000   69

   4   rms: 0.8614E-05   max: -.1309E-03   D at   57  1
       a =  7.500      CL =  1.1639
      Cm = -0.0695     CD =  0.01233   =>   CDf =  0.00582    CDp =  0.00651
 plradd ia,ip,cpol           24           0  1.52659155E-02

 Point added to stored polar  1
 Point written to save file  naca4415_Re500k.base.pol                        
 Dump file unspecified or not available
 Calculating wake trajectory ...
 Calculating source influence matrix ...

 Solving BL system ...

 Side 1  free  transition at x/c =  0.3720   56
 Side 2 forced transition at x/c =  1.0000   69

   1   rms: 0.7017E-01   max: -.3605E+00   D at   56  1
       a =  8.000      CL =  1.1920
      Cm = -0.0645     CD =  0.01307   =>   CDf =  0.00569    CDp =  0.00737

 Side 1  free  transition at x/c =  0.3520   55
 Side 2 forced transition at x/c =  1.0000   68

   2   rms: 0.1458E-01   max: 0.2355E+00   D at   56  1
       a =  8.000      CL =  1.1964
      Cm = -0.0653     CD =  0.01291   =>   CDf =  0.00586    CDp =  0.00706

 Side 1  free  transition at x/c =  0.3531   55
 Side 2 forced transition at x/c =  1.0000   68

   3   rms: 0.1396E-02   max: 0.2434E-01   C at   55  1
       a =  8.000      CL =  1.1969
      Cm = -0.0654     CD =  0.01289   =>   CDf =  0.00583    CDp =  0.00706

 Side 1  free  transition at x/c =  0.3523   55
 Side 2 forced transition at x/c =  1.0000   68

   4   rms: 0.2065E-04   max: -.1609E-03   C at   55  1
       a =  8.000      CL =  1.1969
      Cm = -0.0654     CD =  0.01289   =>   CDf =  0.00584    CDp =  0.00706
 plradd ia,ip,cpol           25           0  1.27302818E-02

 Point added to stored polar  1
 Point written to save file  naca4415_Re500k.base.pol                        
 Dump file unspecified or not available
 Calculating wake trajectory ...
 Calculating source influence matrix ...

 Solving BL system ...

 Side 1  free  transition at x/c =  0.3523   55
 Side 2 forced transition at x/c =  1.0000   68

   1   rms: 0.6782E-01   max: -.7247E-01   D at   67  2
       a =  8.500      CL =  1.2356
      Cm = -0.0625     CD =  0.01333   =>   CDf =  0.00570    CDp =  0.00763

 Side 1  free  transition at x/c =  0.3270   55
 Side 2 forced transition at x/c =  1.0000   67

   2   rms: 0.1221E-01   max: -.1543E+00   C at   55  1
       a =  8.500      CL =  1.2286
      Cm = -0.0613     CD =  0.01354   =>   CDf =  0.00591    CDp =  0.00763

 Side 1  free  transition at x/c =  0.3309   55
 Side 2 forced transition at x/c =  1.0000   67

   3   rms: 0.1365E-02   max: -.1268E-01   D at    4  1
       a =  8.500      CL =  1.2291
      Cm = -0.0614     CD =  0.01354   =>   CDf =  0.00585    CDp =  0.00769

 Side 1  free  transition at x/c =  0.3304   55
 Side 2 forced transition at x/c =  1.0000   67

   4   rms: 0.9819E-05   max: -.8290E-04   C at   55  1
       a =  8.500      CL =  1.2290
      Cm = -0.0614     CD =  0.01355   =>   CDf =  0.00586    CDp =  0.00769
 plradd ia,ip,cpol           26           0  1.27302818E-02

 Point added to stored polar  1
 Point written to save file  naca4415_Re500k.base.pol                        
 Dump file unspecified or not available
 Calculating wake trajectory ...
 Calculating source influence matrix ...

 Solving BL system ...

 Side 1  free  transition at x/c =  0.3304   55
 Side 2 forced transition at x/c =  1.0000   67

   1   rms: 0.7039E-01   max: 0.4172E+00   C at   55  1
       a =  9.000      CL =  1.2610
      Cm = -0.0574     CD =  0.01427   =>   CDf =  0.00586    CDp =  0.00841

 Side 1  free  transition at x/c =  0.2993   53
 Side 2 forced transition at x/c =  1.0000   67

   2   rms: 0.1471E-01   max: 0.2266E+00   D at   54  1
       a =  9.000      CL =  1.2561
      Cm = -0.0567     CD =  0.01444   =>   CDf =  0.00600    CDp =  0.00844

 Side 1  free  transition at x/c =  0.3045   53
 Side 2 forced transition at x/c =  1.0000   67

   3   rms: 0.1055E-02   max: -.1998E-01   D at   54  1
       a =  9.000      CL =  1.2562
      Cm = -0.0567     CD =  0.01444   =>   CDf =  0.00595    CDp =  0.00849

 Side 1  free  transition at x/c =  0.3038   53
 Side 2 forced transition at x/c =  1.0000   67

   4   rms: 0.2303E-04   max: -.2386E-03   C at   53  1
       a =  9.000      CL =  1.2562
      Cm = -0.0567     CD =  0.01444   =>   CDf =  0.00595    CDp =  0.00849
 plradd ia,ip,cpol           27           0  1.27302818E-02

 Point added to stored polar  1
 Point written to save file  naca4415_Re500k.base.pol                        
 Dump file unspecified or not available
 Calculating wake trajectory ...
 Calculating source influence matrix ...

 Solving BL system ...

 Side 1  free  transition at x/c =  0.3038   53
 Side 2 forced transition at x/c =  1.0000   67

   1   rms: 0.7045E-01   max: -.2705E+00   D at   53  1
       a =  9.500      CL =  1.2930
      Cm = -0.0538     CD =  0.01508   =>   CDf =  0.00580    CDp =  0.00928

 Side 1  free  transition at x/c =  0.2653   52
 Side 2 forced transition at x/c =  1.0000   66

   2   rms: 0.1906E-01   max: -.2397E+00   C at   52  1
       a =  9.500      CL =  1.2811
      Cm = -0.0520     CD =  0.01553   =>   CDf =  0.00614    CDp =  0.00939

 Side 1  free  transition at x/c =  0.2725   52
 Side 2 forced transition at x/c =  1.0000   66

   3   rms: 0.1664E-02   max: -.2203E-01   C at   52  1
       a =  9.500      CL =  1.2805
      Cm = -0.0519     CD =  0.01556   =>   CDf =  0.00608    CDp =  0.00948

 Side 1  free  transition at x/c =  0.2724   52
 Side 2 forced transition at x/c =  1.0000   66

   4   rms: 0.2748E-04   max: 0.2588E-03   C at   52  1
       a =  9.500      CL =  1.2806
      Cm = -0.0519     CD =  0.01556   =>   CDf =  0.00608    CDp =  0.00948
 plradd ia,ip,cpol           28           0  1.27302818E-02

 Point added to stored polar  1
 Point written to save file  naca4415_Re500k.base.pol                        
 Dump file unspecified or not available
 Calculating wake trajectory ...
 Calculating source influence matrix ...

 Solving BL system ...

 Side 1  free  transition at x/c =  0.2724   52
 Side 2 forced transition at x/c =  1.0000   66

   1   rms: 0.6983E-01   max: 0.3235E+00   C at   52  1
       a = 10.000      CL =  1.3162
      Cm = -0.0491     CD =  0.01634   =>   CDf =  0.00608    CDp =  0.01026

 Side 1  free  transition at x/c =  0.2392   50
 Side 2 forced transition at x/c =  1.0000   66

   2   rms: 0.1708E-01   max: -.1742E+00   C at   50  1
       a = 10.000      CL =  1.3029
      Cm = -0.0472     CD =  0.01690   =>   CDf =  0.00625    CDp =  0.01065

 Side 1  free  transition at x/c =  0.2445   51
 Side 2 forced transition at x/c =  1.0000   66

   3   rms: 0.3084E-02   max: -.3368E-01   D at   50  1
       a = 10.000      CL =  1.3051
      Cm = -0.0475     CD =  0.01679   =>   CDf =  0.00617    CDp =  0.01062

 Side 1  free  transition at x/c =  0.2442   51
 Side 2 forced transition at x/c =  1.0000   66

   4   rms: 0.1210E-03   max: 0.1914E-02   C at   51  1
       a = 10.000      CL =  1.3051
      Cm = -0.0475     CD =  0.01680   =>   CDf =  0.00616    CDp =  0.01063

 Side 1  free  transition at x/c =  0.2442   51
 Side 2 forced transition at x/c =  1.0000   66

   5   rms: 0.2536E-05   max: 0.1167E-04   D at   51  1
       a = 10.000      CL =  1.3051
      Cm = -0.0475     CD =  0.01680   =>   CDf =  0.00617    CDp =  0.01063
 plradd ia,ip,cpol           29           0  1.04834167E-02

 Point added to stored polar  1
 Point written to save file  naca4415_Re500k.base.pol                        
 Dump file unspecified or not available

.OPERva   c>  
 Solving BL system ...

 Side 1  free  transition at x/c =  0.2442   51
 Side 2 forced transition at x/c =  1.0000   66

   1   rms: 0.4644E-06   max: -.4206E-05   D at   51  1
       a = 10.000      CL =  1.3051
      Cm = -0.0475     CD =  0.01680   =>   CDf =  0.00617    CDp =  0.01063
 plradd ia,ip,cpol           30         182  1.04834167E-02

 Point added to stored polar  1
 Point written to save file  naca4415_Re500k.base.pol                        
 Dump file unspecified or not available
 Calculating wake trajectory ...
 Calculating source influence matrix ...

 Solving BL system ...

 Side 1  free  transition at x/c =  0.2442   51
 Side 2 forced transition at x/c =  1.0000   66

   1   rms: 0.4212E-01   max: 0.3407E+00   C at   51  1
       a = 10.250      CL =  1.3138
      Cm = -0.0449     CD =  0.01765   =>   CDf =  0.00617    CDp =  0.01148

 Side 1  free  transition at x/c =  0.2313   50
 Side 2 forced transition at x/c =  1.0000   66

   2   rms: 0.5096E-02   max: -.7191E-01   D at   51  1
       a = 10.250      CL =  1.3168
      Cm = -0.0453     CD =  0.01749   =>   CDf =  0.00620    CDp =  0.01129

 Side 1  free  transition at x/c =  0.2305   50
 Side 2 forced transition at x/c =  1.0000   66

   3   rms: 0.1814E-03   max: -.2923E-02   D at   51  1
       a = 10.250      CL =  1.3167
      Cm = -0.0453     CD =  0.01749   =>   CDf =  0.00621    CDp =  0.01128

 Side 1  free  transition at x/c =  0.2305   50
 Side 2 forced transition at x/c =  1.0000   66

   4   rms: 0.1197E-04   max: -.1358E-03   D at    4  2
       a = 10.250      CL =  1.3167
      Cm = -0.0453     CD =  0.01749   =>   CDf =  0.00621    CDp =  0.01128
 plradd ia,ip,cpol           31           0  1.04834167E-02

 Point added to stored polar  1
 Point written to save file  naca4415_Re500k.base.pol                        
 Dump file unspecified or not available
 Calculating wake trajectory ...
 Calculating source influence matrix ...

 Solving BL system ...

 Side 1  free  transition at x/c =  0.2305   50
 Side 2 forced transition at x/c =  1.0000   66

   1   rms: 0.4177E-01   max: 0.3573E+00   C at   50  1
       a = 10.500      CL =  1.3264
      Cm = -0.0430     CD =  0.01833   =>   CDf =  0.00604    CDp =  0.01230

 Side 1  free  transition at x/c =  0.2187   50
 Side 2 forced transition at x/c =  1.0000   65

   2   rms: 0.4671E-02   max: -.4183E-01   D at   51  1
       a = 10.500      CL =  1.3280
      Cm = -0.0432     CD =  0.01823   =>   CDf =  0.00624    CDp =  0.01199

 Side 1  free  transition at x/c =  0.2182   50
 Side 2 forced transition at x/c =  1.0000   65

   3   rms: 0.1283E-02   max: -.1528E-01   D at    4  1
       a = 10.500      CL =  1.3280
      Cm = -0.0432     CD =  0.01823   =>   CDf =  0.00624    CDp =  0.01198

 Side 1  free  transition at x/c =  0.2181   50
 Side 2 forced transition at x/c =  1.0000   65

   4   rms: 0.2184E-05   max: -.2083E-04   D at    7  1
       a = 10.500      CL =  1.3280
      Cm = -0.0432     CD =  0.01823   =>   CDf =  0.00625    CDp =  0.01198
 plradd ia,ip,cpol           32           0  1.04834167E-02

 Point added to stored polar  1
 Point written to save file  naca4415_Re500k.base.pol                        
 Dump file unspecified or not available
 Calculating wake trajectory ...
 Calculating source influence matrix ...

 Solving BL system ...

 Side 1  free  transition at x/c =  0.2181   50
 Side 2 forced transition at x/c =  1.0000   65

   1   rms: 0.3896E-01   max: 0.3443E+00   C at   50  1   RLX: 0.992
       a = 10.750      CL =  1.3396
      Cm = -0.0412     CD =  0.01900   =>   CDf =  0.00625    CDp =  0.01276

 Side 1  free  transition at x/c =  0.2063   49
 Side 2 forced transition at x/c =  1.0000   65

   2   rms: 0.3024E-02   max: -.4803E-01   C at   49  1
       a = 10.750      CL =  1.3383
      Cm = -0.0410     CD =  0.01904   =>   CDf =  0.00629    CDp =  0.01275

 Side 1  free  transition at x/c =  0.2069   49
 Side 2 forced transition at x/c =  1.0000   65

   3   rms: 0.5468E-04   max: 0.7142E-03   C at   49  1
       a = 10.750      CL =  1.3383
      Cm = -0.0410     CD =  0.01904   =>   CDf =  0.00628    CDp =  0.01276
 plradd ia,ip,cpol           33           0  1.04834167E-02

 Point added to stored polar  1
 Point written to save file  naca4415_Re500k.base.pol                        
 Dump file unspecified or not available
 Calculating wake trajectory ...
 Calculating source influence matrix ...

 Solving BL system ...

 Side 1  free  transition at x/c =  0.2069   49
 Side 2 forced transition at x/c =  1.0000   65

   1   rms: 0.3706E-01   max: 0.2687E+00   C at   49  1   RLX: 0.958
       a = 11.000      CL =  1.3514
      Cm = -0.0394     CD =  0.01972   =>   CDf =  0.00628    CDp =  0.01343

 Side 1  free  transition at x/c =  0.1946   48
 Side 2 forced transition at x/c =  1.0000   65

   2   rms: 0.5847E-02   max: -.6659E-01   C at   48  1
       a = 11.000      CL =  1.3473
      Cm = -0.0388     CD =  0.01997   =>   CDf =  0.00635    CDp =  0.01361

 Side 1  free  transition at x/c =  0.1951   48
 Side 2 forced transition at x/c =  1.0000   65

   3   rms: 0.5244E-02   max: -.1131E+00   C at   48  1
       a = 11.000      CL =  1.3469
      Cm = -0.0387     CD =  0.01997   =>   CDf =  0.00636    CDp =  0.01362

 Side 1  free  transition at x/c =  0.1952   48
 Side 2 forced transition at x/c =  1.0000   65

   4   rms: 0.5184E-02   max: -.1117E+00   C at   48  1
       a = 11.000      CL =  1.3469
      Cm = -0.0387     CD =  0.01997   =>   CDf =  0.00635    CDp =  0.01362

 Side 1  free  transition at x/c =  0.1952   48
 Side 2 forced transition at x/c =  1.0000   65

   5   rms: 0.5194E-02   max: -.1119E+00   C at   48  1
       a = 11.000      CL =  1.3469
      Cm = -0.0387     CD =  0.01997   =>   CDf =  0.00635    CDp =  0.01362

 Side 1  free  transition at x/c =  0.1952   48
 Side 2 forced transition at x/c =  1.0000   65

   6   rms: 0.5193E-02   max: -.1119E+00   C at   48  1
       a = 11.000      CL =  1.3469
      Cm = -0.0387     CD =  0.01997   =>   CDf =  0.00635    CDp =  0.01362

 Side 1  free  transition at x/c =  0.1952   48
 Side 2 forced transition at x/c =  1.0000   65

   7   rms: 0.5193E-02   max: -.1119E+00   C at   48  1
       a = 11.000      CL =  1.3469
      Cm = -0.0387     CD =  0.01997   =>   CDf =  0.00635    CDp =  0.01362

 Side 1  free  transition at x/c =  0.1952   48
 Side 2 forced transition at x/c =  1.0000   65

   8   rms: 0.5193E-02   max: -.1119E+00   C at   48  1
       a = 11.000      CL =  1.3469
      Cm = -0.0387     CD =  0.01997   =>   CDf =  0.00635    CDp =  0.01362

 Side 1  free  transition at x/c =  0.1952   48
 Side 2 forced transition at x/c =  1.0000   65

   9   rms: 0.5193E-02   max: -.1119E+00   C at   48  1
       a = 11.000      CL =  1.3469
      Cm = -0.0387     CD =  0.01997   =>   CDf =  0.00635    CDp =  0.01362

 Side 1  free  transition at x/c =  0.1952   48
 Side 2 forced transition at x/c =  1.0000   65

  10   rms: 0.5193E-02   max: -.1119E+00   C at   48  1
       a = 11.000      CL =  1.3469
      Cm = -0.0387     CD =  0.01997   =>   CDf =  0.00635    CDp =  0.01362

 Side 1  free  transition at x/c =  0.1952   48
 Side 2 forced transition at x/c =  1.0000   65

  11   rms: 0.5193E-02   max: -.1119E+00   C at   48  1
       a = 11.000      CL =  1.3469
      Cm = -0.0387     CD =  0.01997   =>   CDf =  0.00635    CDp =  0.01362

 Side 1  free  transition at x/c =  0.1952   48
 Side 2 forced transition at x/c =  1.0000   65

  12   rms: 0.5193E-02   max: -.1119E+00   C at   48  1
       a = 11.000      CL =  1.3469
      Cm = -0.0387     CD =  0.01997   =>   CDf =  0.00635    CDp =  0.01362

 Side 1  free  transition at x/c =  0.1952   48
 Side 2 forced transition at x/c =  1.0000   65

  13   rms: 0.5193E-02   max: -.1119E+00   C at   48  1
       a = 11.000      CL =  1.3469
      Cm = -0.0387     CD =  0.01997   =>   CDf =  0.00635    CDp =  0.01362

 Side 1  free  transition at x/c =  0.1952   48
 Side 2 forced transition at x/c =  1.0000   65

  14   rms: 0.5193E-02   max: -.1119E+00   C at   48  1
       a = 11.000      CL =  1.3469
      Cm = -0.0387     CD =  0.01997   =>   CDf =  0.00635    CDp =  0.01362

 Side 1  free  transition at x/c =  0.1952   48
 Side 2 forced transition at x/c =  1.0000   65

  15   rms: 0.5193E-02   max: -.1119E+00   C at   48  1
       a = 11.000      CL =  1.3469
      Cm = -0.0387     CD =  0.01997   =>   CDf =  0.00635    CDp =  0.01362

 Side 1  free  transition at x/c =  0.1952   48
 Side 2 forced transition at x/c =  1.0000   65

  16   rms: 0.5193E-02   max: -.1119E+00   C at   48  1
       a = 11.000      CL =  1.3469
      Cm = -0.0387     CD =  0.01997   =>   CDf =  0.00635    CDp =  0.01362

 Side 1  free  transition at x/c =  0.1952   48
 Side 2 forced transition at x/c =  1.0000   65

  17   rms: 0.5193E-02   max: -.1119E+00   C at   48  1
       a = 11.000      CL =  1.3469
      Cm = -0.0387     CD =  0.01997   =>   CDf =  0.00635    CDp =  0.01362

 Side 1  free  transition at x/c =  0.1952   48
 Side 2 forced transition at x/c =  1.0000   65

  18   rms: 0.5193E-02   max: -.1119E+00   C at   48  1
       a = 11.000      CL =  1.3469
      Cm = -0.0387     CD =  0.01997   =>   CDf =  0.00635    CDp =  0.01362

 Side 1  free  transition at x/c =  0.1952   48
 Side 2 forced transition at x/c =  1.0000   65

  19   rms: 0.5193E-02   max: -.1119E+00   C at   48  1
       a = 11.000      CL =  1.3469
      Cm = -0.0387     CD =  0.01997   =>   CDf =  0.00635    CDp =  0.01362

 Side 1  free  transition at x/c =  0.1952   48
 Side 2 forced transition at x/c =  1.0000   65

  20   rms: 0.5193E-02   max: -.1119E+00   C at   48  1
       a = 11.000      CL =  1.3469
      Cm = -0.0387     CD =  0.01997   =>   CDf =  0.00635    CDp =  0.01362

 Side 1  free  transition at x/c =  0.1952   48
 Side 2 forced transition at x/c =  1.0000   65

  21   rms: 0.5193E-02   max: -.1119E+00   C at   48  1
       a = 11.000      CL =  1.3469
      Cm = -0.0387     CD =  0.01997   =>   CDf =  0.00635    CDp =  0.01362

 Side 1  free  transition at x/c =  0.1952   48
 Side 2 forced transition at x/c =  1.0000   65

  22   rms: 0.5193E-02   max: -.1119E+00   C at   48  1
       a = 11.000      CL =  1.3469
      Cm = -0.0387     CD =  0.01997   =>   CDf =  0.00635    CDp =  0.01362

 Side 1  free  transition at x/c =  0.1952   48
 Side 2 forced transition at x/c =  1.0000   65

  23   rms: 0.5193E-02   max: -.1119E+00   C at   48  1
       a = 11.000      CL =  1.3469
      Cm = -0.0387     CD =  0.01997   =>   CDf =  0.00635    CDp =  0.01362

 Side 1  free  transition at x/c =  0.1952   48
 Side 2 forced transition at x/c =  1.0000   65

  24   rms: 0.5193E-02   max: -.1119E+00   C at   48  1
       a = 11.000      CL =  1.3469
      Cm = -0.0387     CD =  0.01997   =>   CDf =  0.00635    CDp =  0.01362

 Side 1  free  transition at x/c =  0.1952   48
 Side 2 forced transition at x/c =  1.0000   65

  25   rms: 0.5193E-02   max: -.1119E+00   C at   48  1
       a = 11.000      CL =  1.3469
      Cm = -0.0387     CD =  0.01997   =>   CDf =  0.00635    CDp =  0.01362

 Side 1  free  transition at x/c =  0.1952   48
 Side 2 forced transition at x/c =  1.0000   65

  26   rms: 0.5193E-02   max: -.1119E+00   C at   48  1
       a = 11.000      CL =  1.3469
      Cm = -0.0387     CD =  0.01997   =>   CDf =  0.00635    CDp =  0.01362

 Side 1  free  transition at x/c =  0.1952   48
 Side 2 forced transition at x/c =  1.0000   65

  27   rms: 0.5193E-02   max: -.1119E+00   C at   48  1
       a = 11.000      CL =  1.3469
      Cm = -0.0387     CD =  0.01997   =>   CDf =  0.00635    CDp =  0.01362

 Side 1  free  transition at x/c =  0.1952   48
 Side 2 forced transition at x/c =  1.0000   65

  28   rms: 0.5193E-02   max: -.1119E+00   C at   48  1
       a = 11.000      CL =  1.3469
      Cm = -0.0387     CD =  0.01997   =>   CDf =  0.00635    CDp =  0.01362

 Side 1  free  transition at x/c =  0.1952   48
 Side 2 forced transition at x/c =  1.0000   65

  29   rms: 0.5193E-02   max: -.1119E+00   C at   48  1
       a = 11.000      CL =  1.3469
      Cm = -0.0387     CD =  0.01997   =>   CDf =  0.00635    CDp =  0.01362

 Side 1  free  transition at x/c =  0.1952   48
 Side 2 forced transition at x/c =  1.0000   65

  30   rms: 0.5193E-02   max: -.1119E+00   C at   48  1
       a = 11.000      CL =  1.3469
      Cm = -0.0387     CD =  0.01997   =>   CDf =  0.00635    CDp =  0.01362

 Side 1  free  transition at x/c =  0.1952   48
 Side 2 forced transition at x/c =  1.0000   65

  31   rms: 0.5193E-02   max: -.1119E+00   C at   48  1
       a = 11.000      CL =  1.3469
      Cm = -0.0387     CD =  0.01997   =>   CDf =  0.00635    CDp =  0.01362

 Side 1  free  transition at x/c =  0.1952   48
 Side 2 forced transition at x/c =  1.0000   65

  32   rms: 0.5193E-02   max: -.1119E+00   C at   48  1
       a = 11.000      CL =  1.3469
      Cm = -0.0387     CD =  0.01997   =>   CDf =  0.00635    CDp =  0.01362

 Side 1  free  transition at x/c =  0.1952   48
 Side 2 forced transition at x/c =  1.0000   65

  33   rms: 0.5193E-02   max: -.1119E+00   C at   48  1
       a = 11.000      CL =  1.3469
      Cm = -0.0387     CD =  0.01997   =>   CDf =  0.00635    CDp =  0.01362

 Side 1  free  transition at x/c =  0.1952   48
 Side 2 forced transition at x/c =  1.0000   65

  34   rms: 0.5193E-02   max: -.1119E+00   C at   48  1
       a = 11.000      CL =  1.3469
      Cm = -0.0387     CD =  0.01997   =>   CDf =  0.00635    CDp =  0.01362

 Side 1  free  transition at x/c =  0.1952   48
 Side 2 forced transition at x/c =  1.0000   65

  35   rms: 0.5193E-02   max: -.1119E+00   C at   48  1
       a = 11.000      CL =  1.3469
      Cm = -0.0387     CD =  0.01997   =>   CDf =  0.00635    CDp =  0.01362

 Side 1  free  transition at x/c =  0.1952   48
 Side 2 forced transition at x/c =  1.0000   65

  36   rms: 0.5193E-02   max: -.1119E+00   C at   48  1
       a = 11.000      CL =  1.3469
      Cm = -0.0387     CD =  0.01997   =>   CDf =  0.00635    CDp =  0.01362

 Side 1  free  transition at x/c =  0.1952   48
 Side 2 forced transition at x/c =  1.0000   65

  37   rms: 0.5193E-02   max: -.1119E+00   C at   48  1
       a = 11.000      CL =  1.3469
      Cm = -0.0387     CD =  0.01997   =>   CDf =  0.00635    CDp =  0.01362

 Side 1  free  transition at x/c =  0.1952   48
 Side 2 forced transition at x/c =  1.0000   65

  38   rms: 0.5193E-02   max: -.1119E+00   C at   48  1
       a = 11.000      CL =  1.3469
      Cm = -0.0387     CD =  0.01997   =>   CDf =  0.00635    CDp =  0.01362

 Side 1  free  transition at x/c =  0.1952   48
 Side 2 forced transition at x/c =  1.0000   65

  39   rms: 0.5193E-02   max: -.1119E+00   C at   48  1
       a = 11.000      CL =  1.3469
      Cm = -0.0387     CD =  0.01997   =>   CDf =  0.00635    CDp =  0.01362

 Side 1  free  transition at x/c =  0.1952   48
 Side 2 forced transition at x/c =  1.0000   65

  40   rms: 0.5193E-02   max: -.1119E+00   C at   48  1
       a = 11.000      CL =  1.3469
      Cm = -0.0387     CD =  0.01997   =>   CDf =  0.00635    CDp =  0.01362

 Side 1  free  transition at x/c =  0.1952   48
 Side 2 forced transition at x/c =  1.0000   65

  41   rms: 0.5193E-02   max: -.1119E+00   C at   48  1
       a = 11.000      CL =  1.3469
      Cm = -0.0387     CD =  0.01997   =>   CDf =  0.00635    CDp =  0.01362

 Side 1  free  transition at x/c =  0.1952   48
 Side 2 forced transition at x/c =  1.0000   65

  42   rms: 0.5193E-02   max: -.1119E+00   C at   48  1
       a = 11.000      CL =  1.3469
      Cm = -0.0387     CD =  0.01997   =>   CDf =  0.00635    CDp =  0.01362

 Side 1  free  transition at x/c =  0.1952   48
 Side 2 forced transition at x/c =  1.0000   65

  43   rms: 0.5193E-02   max: -.1119E+00   C at   48  1
       a = 11.000      CL =  1.3469
      Cm = -0.0387     CD =  0.01997   =>   CDf =  0.00635    CDp =  0.01362

 Side 1  free  transition at x/c =  0.1952   48
 Side 2 forced transition at x/c =  1.0000   65

  44   rms: 0.5193E-02   max: -.1119E+00   C at   48  1
       a = 11.000      CL =  1.3469
      Cm = -0.0387     CD =  0.01997   =>   CDf =  0.00635    CDp =  0.01362

 Side 1  free  transition at x/c =  0.1952   48
 Side 2 forced transition at x/c =  1.0000   65

  45   rms: 0.5193E-02   max: -.1119E+00   C at   48  1
       a = 11.000      CL =  1.3469
      Cm = -0.0387     CD =  0.01997   =>   CDf =  0.00635    CDp =  0.01362

 Side 1  free  transition at x/c =  0.1952   48
 Side 2 forced transition at x/c =  1.0000   65

  46   rms: 0.5193E-02   max: -.1119E+00   C at   48  1
       a = 11.000      CL =  1.3469
      Cm = -0.0387     CD =  0.01997   =>   CDf =  0.00635    CDp =  0.01362

 Side 1  free  transition at x/c =  0.1952   48
 Side 2 forced transition at x/c =  1.0000   65

  47   rms: 0.5193E-02   max: -.1119E+00   C at   48  1
       a = 11.000      CL =  1.3469
      Cm = -0.0387     CD =  0.01997   =>   CDf =  0.00635    CDp =  0.01362

 Side 1  free  transition at x/c =  0.1952   48
 Side 2 forced transition at x/c =  1.0000   65

  48   rms: 0.5193E-02   max: -.1119E+00   C at   48  1
       a = 11.000      CL =  1.3469
      Cm = -0.0387     CD =  0.01997   =>   CDf =  0.00635    CDp =  0.01362

 Side 1  free  transition at x/c =  0.1952   48
 Side 2 forced transition at x/c =  1.0000   65

  49   rms: 0.5193E-02   max: -.1119E+00   C at   48  1
       a = 11.000      CL =  1.3469
      Cm = -0.0387     CD =  0.01997   =>   CDf =  0.00635    CDp =  0.01362

 Side 1  free  transition at x/c =  0.1952   48
 Side 2 forced transition at x/c =  1.0000   65

  50   rms: 0.5193E-02   max: -.1119E+00   C at   48  1
       a = 11.000      CL =  1.3469
      Cm = -0.0387     CD =  0.01997   =>   CDf =  0.00635    CDp =  0.01362

 Side 1  free  transition at x/c =  0.1952   48
 Side 2 forced transition at x/c =  1.0000   65

  51   rms: 0.5193E-02   max: -.1119E+00   C at   48  1
       a = 11.000      CL =  1.3469
      Cm = -0.0387     CD =  0.01997   =>   CDf =  0.00635    CDp =  0.01362

 Side 1  free  transition at x/c =  0.1952   48
 Side 2 forced transition at x/c =  1.0000   65

  52   rms: 0.5193E-02   max: -.1119E+00   C at   48  1
       a = 11.000      CL =  1.3469
      Cm = -0.0387     CD =  0.01997   =>   CDf =  0.00635    CDp =  0.01362

 Side 1  free  transition at x/c =  0.1952   48
 Side 2 forced transition at x/c =  1.0000   65

  53   rms: 0.5193E-02   max: -.1119E+00   C at   48  1
       a = 11.000      CL =  1.3469
      Cm = -0.0387     CD =  0.01997   =>   CDf =  0.00635    CDp =  0.01362

 Side 1  free  transition at x/c =  0.1952   48
 Side 2 forced transition at x/c =  1.0000   65

  54   rms: 0.5193E-02   max: -.1119E+00   C at   48  1
       a = 11.000      CL =  1.3469
      Cm = -0.0387     CD =  0.01997   =>   CDf =  0.00635    CDp =  0.01362

 Side 1  free  transition at x/c =  0.1952   48
 Side 2 forced transition at x/c =  1.0000   65

  55   rms: 0.5193E-02   max: -.1119E+00   C at   48  1
       a = 11.000      CL =  1.3469
      Cm = -0.0387     CD =  0.01997   =>   CDf =  0.00635    CDp =  0.01362

 Side 1  free  transition at x/c =  0.1952   48
 Side 2 forced transition at x/c =  1.0000   65

  56   rms: 0.5193E-02   max: -.1119E+00   C at   48  1
       a = 11.000      CL =  1.3469
      Cm = -0.0387     CD =  0.01997   =>   CDf =  0.00635    CDp =  0.01362

 Side 1  free  transition at x/c =  0.1952   48
 Side 2 forced transition at x/c =  1.0000   65

  57   rms: 0.5193E-02   max: -.1119E+00   C at   48  1
       a = 11.000      CL =  1.3469
      Cm = -0.0387     CD =  0.01997   =>   CDf =  0.00635    CDp =  0.01362

 Side 1  free  transition at x/c =  0.1952   48
 Side 2 forced transition at x/c =  1.0000   65

  58   rms: 0.5193E-02   max: -.1119E+00   C at   48  1
       a = 11.000      CL =  1.3469
      Cm = -0.0387     CD =  0.01997   =>   CDf =  0.00635    CDp =  0.01362

 Side 1  free  transition at x/c =  0.1952   48
 Side 2 forced transition at x/c =  1.0000   65

  59   rms: 0.5193E-02   max: -.1119E+00   C at   48  1
       a = 11.000      CL =  1.3469
      Cm = -0.0387     CD =  0.01997   =>   CDf =  0.00635    CDp =  0.01362

 Side 1  free  transition at x/c =  0.1952   48
 Side 2 forced transition at x/c =  1.0000   65

  60   rms: 0.5193E-02   max: -.1119E+00   C at   48  1
       a = 11.000      CL =  1.3469
      Cm = -0.0387     CD =  0.01997   =>   CDf =  0.00635    CDp =  0.01362

 Side 1  free  transition at x/c =  0.1952   48
 Side 2 forced transition at x/c =  1.0000   65

  61   rms: 0.5193E-02   max: -.1119E+00   C at   48  1
       a = 11.000      CL =  1.3469
      Cm = -0.0387     CD =  0.01997   =>   CDf =  0.00635    CDp =  0.01362

 Side 1  free  transition at x/c =  0.1952   48
 Side 2 forced transition at x/c =  1.0000   65

  62   rms: 0.5193E-02   max: -.1119E+00   C at   48  1
       a = 11.000      CL =  1.3469
      Cm = -0.0387     CD =  0.01997   =>   CDf =  0.00635    CDp =  0.01362

 Side 1  free  transition at x/c =  0.1952   48
 Side 2 forced transition at x/c =  1.0000   65

  63   rms: 0.5193E-02   max: -.1119E+00   C at   48  1
       a = 11.000      CL =  1.3469
      Cm = -0.0387     CD =  0.01997   =>   CDf =  0.00635    CDp =  0.01362

 Side 1  free  transition at x/c =  0.1952   48
 Side 2 forced transition at x/c =  1.0000   65

  64   rms: 0.5193E-02   max: -.1119E+00   C at   48  1
       a = 11.000      CL =  1.3469
      Cm = -0.0387     CD =  0.01997   =>   CDf =  0.00635    CDp =  0.01362

 Side 1  free  transition at x/c =  0.1952   48
 Side 2 forced transition at x/c =  1.0000   65

  65   rms: 0.5193E-02   max: -.1119E+00   C at   48  1
       a = 11.000      CL =  1.3469
      Cm = -0.0387     CD =  0.01997   =>   CDf =  0.00635    CDp =  0.01362

 Side 1  free  transition at x/c =  0.1952   48
 Side 2 forced transition at x/c =  1.0000   65

  66   rms: 0.5193E-02   max: -.1119E+00   C at   48  1
       a = 11.000      CL =  1.3469
      Cm = -0.0387     CD =  0.01997   =>   CDf =  0.00635    CDp =  0.01362

 Side 1  free  transition at x/c =  0.1952   48
 Side 2 forced transition at x/c =  1.0000   65

  67   rms: 0.5193E-02   max: -.1119E+00   C at   48  1
       a = 11.000      CL =  1.3469
      Cm = -0.0387     CD =  0.01997   =>   CDf =  0.00635    CDp =  0.01362

 Side 1  free  transition at x/c =  0.1952   48
 Side 2 forced transition at x/c =  1.0000   65

  68   rms: 0.5193E-02   max: -.1119E+00   C at   48  1
       a = 11.000      CL =  1.3469
      Cm = -0.0387     CD =  0.01997   =>   CDf =  0.00635    CDp =  0.01362

 Side 1  free  transition at x/c =  0.1952   48
 Side 2 forced transition at x/c =  1.0000   65

  69   rms: 0.5193E-02   max: -.1119E+00   C at   48  1
       a = 11.000      CL =  1.3469
      Cm = -0.0387     CD =  0.01997   =>   CDf =  0.00635    CDp =  0.01362

 Side 1  free  transition at x/c =  0.1952   48
 Side 2 forced transition at x/c =  1.0000   65

  70   rms: 0.5193E-02   max: -.1119E+00   C at   48  1
       a = 11.000      CL =  1.3469
      Cm = -0.0387     CD =  0.01997   =>   CDf =  0.00635    CDp =  0.01362

 Side 1  free  transition at x/c =  0.1952   48
 Side 2 forced transition at x/c =  1.0000   65

  71   rms: 0.5193E-02   max: -.1119E+00   C at   48  1
       a = 11.000      CL =  1.3469
      Cm = -0.0387     CD =  0.01997   =>   CDf =  0.00635    CDp =  0.01362

 Side 1  free  transition at x/c =  0.1952   48
 Side 2 forced transition at x/c =  1.0000   65

  72   rms: 0.5193E-02   max: -.1119E+00   C at   48  1
       a = 11.000      CL =  1.3469
      Cm = -0.0387     CD =  0.01997   =>   CDf =  0.00635    CDp =  0.01362

 Side 1  free  transition at x/c =  0.1952   48
 Side 2 forced transition at x/c =  1.0000   65

  73   rms: 0.5193E-02   max: -.1119E+00   C at   48  1
       a = 11.000      CL =  1.3469
      Cm = -0.0387     CD =  0.01997   =>   CDf =  0.00635    CDp =  0.01362

 Side 1  free  transition at x/c =  0.1952   48
 Side 2 forced transition at x/c =  1.0000   65

  74   rms: 0.5193E-02   max: -.1119E+00   C at   48  1
       a = 11.000      CL =  1.3469
      Cm = -0.0387     CD =  0.01997   =>   CDf =  0.00635    CDp =  0.01362

 Side 1  free  transition at x/c =  0.1952   48
 Side 2 forced transition at x/c =  1.0000   65

  75   rms: 0.5193E-02   max: -.1119E+00   C at   48  1
       a = 11.000      CL =  1.3469
      Cm = -0.0387     CD =  0.01997   =>   CDf =  0.00635    CDp =  0.01362

 Side 1  free  transition at x/c =  0.1952   48
 Side 2 forced transition at x/c =  1.0000   65

  76   rms: 0.5193E-02   max: -.1119E+00   C at   48  1
       a = 11.000      CL =  1.3469
      Cm = -0.0387     CD =  0.01997   =>   CDf =  0.00635    CDp =  0.01362

 Side 1  free  transition at x/c =  0.1952   48
 Side 2 forced transition at x/c =  1.0000   65

  77   rms: 0.5193E-02   max: -.1119E+00   C at   48  1
       a = 11.000      CL =  1.3469
      Cm = -0.0387     CD =  0.01997   =>   CDf =  0.00635    CDp =  0.01362

 Side 1  free  transition at x/c =  0.1952   48
 Side 2 forced transition at x/c =  1.0000   65

  78   rms: 0.5193E-02   max: -.1119E+00   C at   48  1
       a = 11.000      CL =  1.3469
      Cm = -0.0387     CD =  0.01997   =>   CDf =  0.00635    CDp =  0.01362

 Side 1  free  transition at x/c =  0.1952   48
 Side 2 forced transition at x/c =  1.0000   65

  79   rms: 0.5193E-02   max: -.1119E+00   C at   48  1
       a = 11.000      CL =  1.3469
      Cm = -0.0387     CD =  0.01997   =>   CDf =  0.00635    CDp =  0.01362

 Side 1  free  transition at x/c =  0.1952   48
 Side 2 forced transition at x/c =  1.0000   65

  80   rms: 0.5193E-02   max: -.1119E+00   C at   48  1
       a = 11.000      CL =  1.3469
      Cm = -0.0387     CD =  0.01997   =>   CDf =  0.00635    CDp =  0.01362

 Side 1  free  transition at x/c =  0.1952   48
 Side 2 forced transition at x/c =  1.0000   65

[...]

 Side 1  free  transition at x/c =  0.1431   47
 Side 2 forced transition at x/c =  1.0000   63

   3   rms: 0.3654E-03   max: 0.2550E-02   D at   84  1
       a = 12.750      CL =  1.4156
      Cm = -0.0266     CD =  0.02705   =>   CDf =  0.00631    CDp =  0.02074

 Side 1  free  transition at x/c =  0.1431   47
 Side 2 forced transition at x/c =  1.0000   63

   4   rms: 0.3795E-05   max: 0.2912E-04   D at   84  1
       a = 12.750      CL =  1.4156
      Cm = -0.0266     CD =  0.02705   =>   CDf =  0.00631    CDp =  0.02074
 plradd ia,ip,cpol           40           0  8.50747433E-03

 Point added to stored polar  1
 Point written to save file  naca4415_Re500k.base.pol                        
 Dump file unspecified or not available
 Calculating wake trajectory ...
 Calculating source influence matrix ...

 Solving BL system ...

 Side 1  free  transition at x/c =  0.1431   47
 Side 2 forced transition at x/c =  1.0000   63

   1   rms: 0.3575E-01   max: -.1555E+00   D at   47  1   RLX: 0.726
       a = 13.000      CL =  1.4211
      Cm = -0.0255     CD =  0.02806   =>   CDf =  0.00631    CDp =  0.02175

 Side 1  free  transition at x/c =  0.1388   47
 Side 2 forced transition at x/c =  1.0000   63

   2   rms: 0.1115E-01   max: 0.5254E-01   D at   84  1
       a = 13.000      CL =  1.4201
      Cm = -0.0248     CD =  0.02861   =>   CDf =  0.00633    CDp =  0.02229

 Side 1  free  transition at x/c =  0.1375   46
 Side 2 forced transition at x/c =  1.0000   63

   3   rms: 0.3199E-02   max: -.4158E-01   C at   46  1
       a = 13.000      CL =  1.4218
      Cm = -0.0249     CD =  0.02843   =>   CDf =  0.00631    CDp =  0.02213

 Side 1  free  transition at x/c =  0.1376   46
 Side 2 forced transition at x/c =  1.0000   63

   4   rms: 0.1285E-03   max: -.5336E-03   D at   73  2
       a = 13.000      CL =  1.4219
      Cm = -0.0250     CD =  0.02844   =>   CDf =  0.00631    CDp =  0.02213

 Side 1  free  transition at x/c =  0.1376   46
 Side 2 forced transition at x/c =  1.0000   63

   5   rms: 0.2256E-05   max: 0.1191E-04   C at   63  2
       a = 13.000      CL =  1.4219
      Cm = -0.0250     CD =  0.02844   =>   CDf =  0.00631    CDp =  0.02213
 plradd ia,ip,cpol           41           0  6.78195339E-03

 Point added to stored polar  1
 Point written to save file  naca4415_Re500k.base.pol                        
 Dump file unspecified or not available
 Calculating wake trajectory ...
 Calculating source influence matrix ...

 Solving BL system ...

 Side 1  free  transition at x/c =  0.1376   46
 Side 2 forced transition at x/c =  1.0000   63

   1   rms: 0.3484E-01   max: -.1104E+00   D at    2  2   RLX: 0.709
       a = 13.250      CL =  1.4317
      Cm = -0.0243     CD =  0.02912   =>   CDf =  0.00631    CDp =  0.02281

 Side 1  free  transition at x/c =  0.1336   46
 Side 2 forced transition at x/c =  1.0000   63

   2   rms: 0.1023E-01   max: 0.4049E-01   D at   83  1
       a = 13.250      CL =  1.4326
      Cm = -0.0238     CD =  0.02959   =>   CDf =  0.00627    CDp =  0.02332

 Side 1  free  transition at x/c =  0.1323   46
 Side 2 forced transition at x/c =  1.0000   63

   3   rms: 0.6702E-03   max: 0.4537E-02   D at   83  1
       a = 13.250      CL =  1.4321
      Cm = -0.0237     CD =  0.02959   =>   CDf =  0.00626    CDp =  0.02333

 Side 1  free  transition at x/c =  0.1324   46
 Side 2 forced transition at x/c =  1.0000   63

   4   rms: 0.8047E-05   max: -.6312E-04   C at   63  2
       a = 13.250      CL =  1.4321
      Cm = -0.0237     CD =  0.02959   =>   CDf =  0.00626    CDp =  0.02333
 plradd ia,ip,cpol           42           0  8.50747433E-03

 Point added to stored polar  1
 Point written to save file  naca4415_Re500k.base.pol                        
 Dump file unspecified or not available
 Calculating wake trajectory ...
 Calculating source influence matrix ...

 Solving BL system ...

 Side 1  free  transition at x/c =  0.1324   46
 Side 2 forced transition at x/c =  1.0000   63

   1   rms: 0.3442E-01   max: -.1313E+00   D at   46  1   RLX: 0.685
       a = 13.500      CL =  1.4381
      Cm = -0.0229     CD =  0.03055   =>   CDf =  0.00604    CDp =  0.02451

 Side 1  free  transition at x/c =  0.1282   47
 Side 2 forced transition at x/c =  1.0000   62

   2   rms: 0.1155E-01   max: 0.4835E-01   D at   83  1
       a = 13.500      CL =  1.4378
      Cm = -0.0223     CD =  0.03117   =>   CDf =  0.00626    CDp =  0.02491

 Side 1  free  transition at x/c =  0.1268   47
 Side 2 forced transition at x/c =  1.0000   62

   3   rms: 0.1081E-02   max: 0.1033E-01   D at   83  1
       a = 13.500      CL =  1.4370
      Cm = -0.0222     CD =  0.03118   =>   CDf =  0.00626    CDp =  0.02493

 Side 1  free  transition at x/c =  0.1269   47
 Side 2 forced transition at x/c =  1.0000   62

   4   rms: 0.3249E-04   max: 0.2101E-03   D at   73  2
       a = 13.500      CL =  1.4370
      Cm = -0.0222     CD =  0.03118   =>   CDf =  0.00625    CDp =  0.02493
 plradd ia,ip,cpol           43           0  8.50747433E-03

 Point added to stored polar  1
 Point written to save file  naca4415_Re500k.base.pol                        
 Dump file unspecified or not available
 Calculating wake trajectory ...
 Calculating source influence matrix ...

 Solving BL system ...

 Side 1  free  transition at x/c =  0.1269   47
 Side 2 forced transition at x/c =  1.0000   62

   1   rms: 0.3706E-01   max: -.1734E+00   D at   47  1   RLX: 0.658
       a = 13.750      CL =  1.4394
      Cm = -0.0213     CD =  0.03244   =>   CDf =  0.00626    CDp =  0.02619

 Side 1  free  transition at x/c =  0.1237   46
 Side 2 forced transition at x/c =  1.0000   62

   2   rms: 0.1298E-01   max: -.8254E-01   D at   46  1
       a = 13.750      CL =  1.4470
      Cm = -0.0212     CD =  0.03244   =>   CDf =  0.00622    CDp =  0.02622

 Side 1  free  transition at x/c =  0.1216   46
 Side 2 forced transition at x/c =  1.0000   62

   3   rms: 0.1224E-02   max: 0.5665E-02   D at   82  1
       a = 13.750      CL =  1.4459
      Cm = -0.0211     CD =  0.03252   =>   CDf =  0.00621    CDp =  0.02631

 Side 1  free  transition at x/c =  0.1217   46
 Side 2 forced transition at x/c =  1.0000   62

   4   rms: 0.3707E-04   max: 0.2304E-03   D at   73  2
       a = 13.750      CL =  1.4459
      Cm = -0.0211     CD =  0.03251   =>   CDf =  0.00620    CDp =  0.02631
 plradd ia,ip,cpol           44           0  6.78195339E-03

 Point added to stored polar  1
 Point written to save file  naca4415_Re500k.base.pol                        
 Dump file unspecified or not available
 Calculating wake trajectory ...
 Calculating source influence matrix ...

 Solving BL system ...

 Side 1  free  transition at x/c =  0.1217   46
 Side 2 forced transition at x/c =  1.0000   62

   1   rms: 0.3326E-01   max: -.1093E+00   D at   46  1   RLX: 0.646
       a = 14.000      CL =  1.4521
      Cm = -0.0205     CD =  0.03345   =>   CDf =  0.00621    CDp =  0.02724

 Side 1  free  transition at x/c =  0.1179   46
 Side 2 forced transition at x/c =  1.0000   62

   2   rms: 0.1268E-01   max: -.5328E-01   D at   46  1
       a = 14.000      CL =  1.4522
      Cm = -0.0200     CD =  0.03417   =>   CDf =  0.00620    CDp =  0.02797

 Side 1  free  transition at x/c =  0.1164   46
 Side 2 forced transition at x/c =  1.0000   62

   3   rms: 0.8011E-03   max: 0.5399E-02   D at   73  2
       a = 14.000      CL =  1.4516
      Cm = -0.0199     CD =  0.03414   =>   CDf =  0.00619    CDp =  0.02796

 Side 1  free  transition at x/c =  0.1164   46
 Side 2 forced transition at x/c =  1.0000   62

   4   rms: 0.9063E-05   max: 0.8348E-04   D at   73  2
       a = 14.000      CL =  1.4516
      Cm = -0.0199     CD =  0.03414   =>   CDf =  0.00618    CDp =  0.02796
 plradd ia,ip,cpol           45           0  6.78195339E-03

 Point added to stored polar  1
 Point written to save file  naca4415_Re500k.base.pol                        
 Dump file unspecified or not available
 Calculating wake trajectory ...
 Calculating source influence matrix ...

 Solving BL system ...

 Side 1  free  transition at x/c =  0.1164   46
 Side 2 forced transition at x/c =  1.0000   62

   1   rms: 0.3632E-01   max: -.1866E+00   D at   46  1   RLX: 0.623
       a = 14.250      CL =  1.4543
      Cm = -0.0192     CD =  0.03537   =>   CDf =  0.00619    CDp =  0.02919

 Side 1  free  transition at x/c =  0.1130   45
 Side 2 forced transition at x/c =  1.0000   62

   2   rms: 0.1244E-01   max: -.6387E-01   C at   45  1
       a = 14.250      CL =  1.4574
      Cm = -0.0188     CD =  0.03587   =>   CDf =  0.00619    CDp =  0.02968

 Side 1  free  transition at x/c =  0.1111   45
 Side 2 forced transition at x/c =  1.0000   62

   3   rms: 0.1315E-02   max: 0.5701E-02   D at   80  1
       a = 14.250      CL =  1.4563
      Cm = -0.0188     CD =  0.03590   =>   CDf =  0.00616    CDp =  0.02975

 Side 1  free  transition at x/c =  0.1112   45
 Side 2 forced transition at x/c =  1.0000   62

   4   rms: 0.4016E-04   max: 0.2322E-03   D at   73  2
       a = 14.250      CL =  1.4563
      Cm = -0.0187     CD =  0.03590   =>   CDf =  0.00616    CDp =  0.02974
 plradd ia,ip,cpol           46           0  8.50747433E-03

 Point added to stored polar  1
 Point written to save file  naca4415_Re500k.base.pol                        
 Dump file unspecified or not available
 Calculating wake trajectory ...
 Calculating source influence matrix ...

 Solving BL system ...

 Side 1  free  transition at x/c =  0.1112   45
 Side 2 forced transition at x/c =  1.0000   62

   1   rms: 0.3239E-01   max: -.1104E+00   D at   45  1   RLX: 0.609
       a = 14.500      CL =  1.4629
      Cm = -0.0183     CD =  0.03677   =>   CDf =  0.00616    CDp =  0.03061

 Side 1  free  transition at x/c =  0.1074   45
 Side 2 forced transition at x/c =  1.0000   62

   2   rms: 0.1359E-01   max: -.6197E-01   D at   45  1
       a = 14.500      CL =  1.4634
      Cm = -0.0179     CD =  0.03760   =>   CDf =  0.00614    CDp =  0.03146

 Side 1  free  transition at x/c =  0.1054   45
 Side 2 forced transition at x/c =  1.0000   62

   3   rms: 0.1556E-02   max: 0.1014E-01   D at   80  1
       a = 14.500      CL =  1.4623
      Cm = -0.0178     CD =  0.03762   =>   CDf =  0.00613    CDp =  0.03149

 Side 1  free  transition at x/c =  0.1056   45
 Side 2 forced transition at x/c =  1.0000   62

   4   rms: 0.3781E-04   max: 0.2961E-03   D at   74  2
       a = 14.500      CL =  1.4622
      Cm = -0.0178     CD =  0.03761   =>   CDf =  0.00612    CDp =  0.03149
 plradd ia,ip,cpol           47           0  8.50747433E-03

 Point added to stored polar  1
 Point written to save file  naca4415_Re500k.base.pol                        
 Dump file unspecified or not available
 Calculating wake trajectory ...
 Calculating source influence matrix ...

 Solving BL system ...

 Side 1  free  transition at x/c =  0.1056   45
 Side 2 forced transition at x/c =  1.0000   62

   1   rms: 0.3746E-01   max: -.1880E+00   D at   45  1   RLX: 0.587
       a = 14.750      CL =  1.4646
      Cm = -0.0173     CD =  0.03889   =>   CDf =  0.00588    CDp =  0.03301

 Side 1  free  transition at x/c =  0.1021   46
 Side 2 forced transition at x/c =  1.0000   61

   2   rms: 0.2008E-01   max: 0.2077E+00   D at    2  1
       a = 14.750      CL =  1.4623
      Cm = -0.0167     CD =  0.04006   =>   CDf =  0.00613    CDp =  0.03393

 Side 1  free  transition at x/c =  0.1002   45
 Side 2 forced transition at x/c =  1.0000   61

   3   rms: 0.3973E-02   max: -.4691E-01   C at   45  1
       a = 14.750      CL =  1.4644
      Cm = -0.0168     CD =  0.03968   =>   CDf =  0.00610    CDp =  0.03359

 Side 1  free  transition at x/c =  0.1001   45
 Side 2 forced transition at x/c =  1.0000   61

   4   rms: 0.1760E-03   max: 0.8810E-03   C at   45  1
       a = 14.750      CL =  1.4645
      Cm = -0.0168     CD =  0.03970   =>   CDf =  0.00610    CDp =  0.03360

 Side 1  free  transition at x/c =  0.1001   45
 Side 2 forced transition at x/c =  1.0000   61

   5   rms: 0.5942E-05   max: -.3984E-04   D at   73  2
       a = 14.750      CL =  1.4645
      Cm = -0.0168     CD =  0.03970   =>   CDf =  0.00610    CDp =  0.03360
 plradd ia,ip,cpol           48           0  6.78195339E-03

 Point added to stored polar  1
 Point written to save file  naca4415_Re500k.base.pol                        
 Dump file unspecified or not available
 Calculating wake trajectory ...
 Calculating source influence matrix ...

 Solving BL system ...

 Side 1  free  transition at x/c =  0.1001   45
 Side 2 forced transition at x/c =  1.0000   61

   1   rms: 0.3351E-01   max: -.1241E+00   D at   45  1   RLX: 0.573
       a = 15.000      CL =  1.4702
      Cm = -0.0165     CD =  0.04064   =>   CDf =  0.00610    CDp =  0.03454

 Side 1  free  transition at x/c =  0.0960   45
 Side 2 forced transition at x/c =  1.0000   61

   2   rms: 0.1540E-01   max: -.7592E-01   D at   45  1
       a = 15.000      CL =  1.4701
      Cm = -0.0161     CD =  0.04168   =>   CDf =  0.00608    CDp =  0.03560

 Side 1  free  transition at x/c =  0.0936   45
 Side 2 forced transition at x/c =  1.0000   61

   3   rms: 0.2179E-02   max: 0.1457E-01   D at   79  1
       a = 15.000      CL =  1.4685
      Cm = -0.0160     CD =  0.04170   =>   CDf =  0.00608    CDp =  0.03562

 Side 1  free  transition at x/c =  0.0939   45
 Side 2 forced transition at x/c =  1.0000   61

   4   rms: 0.8461E-04   max: 0.6561E-03   D at   73  2
       a = 15.000      CL =  1.4684
      Cm = -0.0160     CD =  0.04169   =>   CDf =  0.00607    CDp =  0.03562
 plradd ia,ip,cpol           49           0  6.78195339E-03

 Point added to stored polar  1
 Point written to save file  naca4415_Re500k.base.pol                        
 Dump file unspecified or not available
 Calculating wake trajectory ...
 Calculating source influence matrix ...

 Solving BL system ...

 Side 1  free  transition at x/c =  0.0939   45
 Side 2 forced transition at x/c =  1.0000   61

   1   rms: 0.3771E-01   max: -.2089E+00   D at   45  1   RLX: 0.552
       a = 15.250      CL =  1.4691
      Cm = -0.0156     CD =  0.04314   =>   CDf =  0.00607    CDp =  0.03707

 Side 1  free  transition at x/c =  0.0906   44
 Side 2 forced transition at x/c =  1.0000   61

   2   rms: 0.1440E-01   max: -.5638E-01   D at   44  1
       a = 15.250      CL =  1.4717
      Cm = -0.0152     CD =  0.04391   =>   CDf =  0.00608    CDp =  0.03783

 Side 1  free  transition at x/c =  0.0875   44
 Side 2 forced transition at x/c =  1.0000   61

   3   rms: 0.2788E-02   max: -.1789E-01   C at   44  1
       a = 15.250      CL =  1.4696
      Cm = -0.0152     CD =  0.04402   =>   CDf =  0.00605    CDp =  0.03797

 Side 1  free  transition at x/c =  0.0879   44
 Side 2 forced transition at x/c =  1.0000   61

   4   rms: 0.1467E-03   max: 0.7967E-03   D at   78  1
       a = 15.250      CL =  1.4694
      Cm = -0.0151     CD =  0.04401   =>   CDf =  0.00605    CDp =  0.03796

 Side 1  free  transition at x/c =  0.0879   44
 Side 2 forced transition at x/c =  1.0000   61

   5   rms: 0.4923E-05   max: 0.2680E-04   D at   73  2
       a = 15.250      CL =  1.4694
      Cm = -0.0151     CD =  0.04401   =>   CDf =  0.00605    CDp =  0.03796
 plradd ia,ip,cpol           50           0  6.78195339E-03

 Point added to stored polar  1
 Point written to save file  naca4415_Re500k.base.pol                        
 Dump file unspecified or not available
 Calculating wake trajectory ...
 Calculating source influence matrix ...

 Solving BL system ...

 Side 1  free  transition at x/c =  0.0879   44
 Side 2 forced transition at x/c =  1.0000   61

   1   rms: 0.3394E-01   max: 0.1565E+00   C at   44  1   RLX: 0.537
       a = 15.500      CL =  1.4720
      Cm = -0.0149     CD =  0.04527   =>   CDf =  0.00605    CDp =  0.03922

 Side 1  free  transition at x/c =  0.0842   44
 Side 2 forced transition at x/c =  1.0000   61

   2   rms: 0.1735E-01   max: -.8355E-01   D at   44  1
       a = 15.500      CL =  1.4703
      Cm = -0.0145     CD =  0.04663   =>   CDf =  0.00605    CDp =  0.04059

 Side 1  free  transition at x/c =  0.0819   44
 Side 2 forced transition at x/c =  1.0000   61

   3   rms: 0.2063E-02   max: 0.1430E-01   D at   77  1
       a = 15.500      CL =  1.4687
      Cm = -0.0144     CD =  0.04660   =>   CDf =  0.00605    CDp =  0.04055

 Side 1  free  transition at x/c =  0.0821   44
 Side 2 forced transition at x/c =  1.0000   61

   4   rms: 0.8697E-04   max: 0.5464E-03   D at   74  2
       a = 15.500      CL =  1.4686
      Cm = -0.0144     CD =  0.04659   =>   CDf =  0.00604    CDp =  0.04055
 plradd ia,ip,cpol           51           0  6.78195339E-03

 Point added to stored polar  1
 Point written to save file  naca4415_Re500k.base.pol                        
 Dump file unspecified or not available
 Calculating wake trajectory ...
 Calculating source influence matrix ...

 Solving BL system ...

 Side 1  free  transition at x/c =  0.0821   44
 Side 2 forced transition at x/c =  1.0000   61

   1   rms: 0.3981E-01   max: -.2253E+00   D at   44  1   RLX: 0.516
       a = 15.750      CL =  1.4671
      Cm = -0.0142     CD =  0.04831   =>   CDf =  0.00604    CDp =  0.04226

 Side 1  free  transition at x/c =  0.0796   43
 Side 2 forced transition at x/c =  1.0000   61

   2   rms: 0.1570E-01   max: -.8511E-01   D at   43  1
       a = 15.750      CL =  1.4712
      Cm = -0.0140     CD =  0.04903   =>   CDf =  0.00602    CDp =  0.04301

 Side 1  free  transition at x/c =  0.0760   43
 Side 2 forced transition at x/c =  1.0000   61

   3   rms: 0.3581E-02   max: -.3260E-01   C at   43  1
       a = 15.750      CL =  1.4686
      Cm = -0.0139     CD =  0.04919   =>   CDf =  0.00602    CDp =  0.04317

 Side 1  free  transition at x/c =  0.0765   43
 Side 2 forced transition at x/c =  1.0000   61

   4   rms: 0.1946E-03   max: -.1355E-02   C at   43  1
       a = 15.750      CL =  1.4684
      Cm = -0.0139     CD =  0.04917   =>   CDf =  0.00600    CDp =  0.04317

 Side 1  free  transition at x/c =  0.0765   43
 Side 2 forced transition at x/c =  1.0000   61

   5   rms: 0.4613E-05   max: 0.3453E-04   D at   74  2
       a = 15.750      CL =  1.4684
      Cm = -0.0139     CD =  0.04917   =>   CDf =  0.00600    CDp =  0.04317
 plradd ia,ip,cpol           52           0  6.78195339E-03

 Point added to stored polar  1
 Point written to save file  naca4415_Re500k.base.pol                        
 Dump file unspecified or not available
 Calculating wake trajectory ...
 Calculating source influence matrix ...

 Solving BL system ...

 Side 1  free  transition at x/c =  0.0765   43
 Side 2 forced transition at x/c =  1.0000   61

   1   rms: 0.3717E-01   max: 0.2395E+00   C at   43  1   RLX: 0.502
       a = 16.000      CL =  1.4683
      Cm = -0.0137     CD =  0.05074   =>   CDf =  0.00600    CDp =  0.04474

 Side 1  free  transition at x/c =  0.0734   43
 Side 2 forced transition at x/c =  1.0000   61

   2   rms: 0.2015E-01   max: 0.9161E-01   D at   75  1
       a = 16.000      CL =  1.4642
      Cm = -0.0135     CD =  0.05255   =>   CDf =  0.00602    CDp =  0.04653

 Side 1  free  transition at x/c =  0.0715   42
 Side 2 forced transition at x/c =  1.0000   61

   3   rms: 0.1688E-02   max: 0.1333E-01   D at   75  1
       a = 16.000      CL =  1.4634
      Cm = -0.0134     CD =  0.05234   =>   CDf =  0.00600    CDp =  0.04634

 Side 1  free  transition at x/c =  0.0715   42
 Side 2 forced transition at x/c =  1.0000   61

   4   rms: 0.5775E-04   max: 0.4684E-03   D at   74  2
       a = 16.000      CL =  1.4633
      Cm = -0.0134     CD =  0.05233   =>   CDf =  0.00600    CDp =  0.04633
 plradd ia,ip,cpol           53           0  6.78195339E-03

 Point added to stored polar  1
 Point written to save file  naca4415_Re500k.base.pol                        
 Dump file unspecified or not available

.OPERva   c>  
 Polar accumulation disabled

.OPERv   c>  
 XFOIL   c>  
 XFOIL   c>  