  
       XFOIL         Version 6.99
  
 Calculated polar for: NACA 65(4)-221                                  
  
 1 1 Reynolds number fixed          Mach number fixed         
  
 xtrf =   1.000 (top)        1.000 (bottom)  
 Mach =   0.000     Re =     0.300 e 6     Ncrit =   9.000
  
   alpha    CL        CD       CDp       CM     Top_Xtr  Bot_Xtr
  ------ -------- --------- --------- -------- -------- --------
  16.250   1.0724   0.06651   0.05988   0.0240   0.0324   1.0000
  16.500   1.0877   0.06784   0.06127   0.0240   0.0320   1.0000
  16.750   1.1020   0.06931   0.06280   0.0239   0.0316   1.0000
  17.000   1.1153   0.07089   0.06443   0.0238   0.0312   1.0000
  17.250   1.1302   0.07230   0.06585   0.0236   0.0306   1.0000
  17.500   1.1496   0.07344   0.06701   0.0237   0.0303   1.0000
  17.750   1.1696   0.07486   0.06849   0.0238   0.0298   1.0000
  18.000   1.1701   0.07782   0.07163   0.0233   0.0297   1.0000
  18.250   1.1712   0.08085   0.07484   0.0228   0.0296   1.0000
  18.750   1.1664   0.08785   0.08221   0.0213   0.0294   1.0000
  19.250   1.1538   0.09613   0.09088   0.0190   0.0293   1.0000
  19.750   1.1337   0.10574   0.10088   0.0156   0.0293   1.0000
  20.250   1.1036   0.11731   0.11285   0.0104   0.0293   1.0000
  20.750   1.0693   0.13040   0.12630   0.0037   0.0296   1.0000
  21.250   1.0293   0.14546   0.14170  -0.0050   0.0298   1.0000
  21.750   0.5609   0.21474   0.21250  -0.0481   0.0418   1.0000
  22.250   0.5809   0.21951   0.21728  -0.0511   0.0404   1.0000
