  
       XFOIL         Version 6.99
  
 Calculated polar for: NACA 4421                                       
  
 1 1 Reynolds number fixed          Mach number fixed         
  
 xtrf =   1.000 (top)        1.000 (bottom)  
 Mach =   0.000     Re =     0.600 e 6     Ncrit =   9.000
  
   alpha    CL        CD       CDp       CM     Top_Xtr  Bot_Xtr
  ------ -------- --------- --------- -------- -------- --------
  -4.000   0.0445   0.01029   0.00374  -0.0979   0.6936   0.2383
  -3.500   0.0973   0.01020   0.00361  -0.0971   0.6739   0.2548
  -3.000   0.1500   0.01015   0.00350  -0.0962   0.6537   0.2696
  -2.500   0.2024   0.01012   0.00342  -0.0954   0.6343   0.2848
  -2.000   0.2544   0.01005   0.00336  -0.0944   0.6163   0.3029
  -1.500   0.3062   0.01002   0.00333  -0.0935   0.5989   0.3241
  -1.000   0.3574   0.01000   0.00334  -0.0925   0.5827   0.3545
  -0.500   0.4086   0.00997   0.00338  -0.0915   0.5675   0.3967
   0.000   0.4599   0.00990   0.00345  -0.0905   0.5528   0.4458
   0.500   0.5098   0.00986   0.00356  -0.0893   0.5380   0.5051
   1.000   0.5587   0.00986   0.00371  -0.0879   0.5246   0.5743
   1.500   0.6093   0.00979   0.00389  -0.0867   0.5134   0.6505
   2.500   0.7081   0.00994   0.00432  -0.0839   0.4914   0.7635
   3.000   0.7543   0.01009   0.00460  -0.0818   0.4810   0.8214
   3.500   0.7972   0.01018   0.00489  -0.0787   0.4712   0.8864
   4.000   0.8419   0.01054   0.00528  -0.0761   0.4611   0.9466
   4.500   0.9081   0.01090   0.00565  -0.0784   0.4506   0.9806
   5.000   0.9873   0.01142   0.00610  -0.0837   0.4395   0.9968
   5.500   1.0236   0.01167   0.00631  -0.0802   0.4286   1.0000
   6.000   1.0561   0.01200   0.00661  -0.0760   0.4167   1.0000
   6.500   1.0918   0.01251   0.00703  -0.0726   0.4028   1.0000
   7.000   1.1319   0.01301   0.00750  -0.0702   0.3894   1.0000
   7.500   1.1730   0.01358   0.00806  -0.0681   0.3766   1.0000
   8.000   1.2115   0.01430   0.00874  -0.0657   0.3631   1.0000
   8.500   1.2477   0.01516   0.00956  -0.0631   0.3479   1.0000
   9.000   1.2829   0.01614   0.01049  -0.0605   0.3323   1.0000
   9.500   1.3170   0.01724   0.01156  -0.0580   0.3159   1.0000
  10.000   1.3485   0.01853   0.01281  -0.0554   0.2997   1.0000
  10.000   1.3485   0.01853   0.01281  -0.0554   0.2997   1.0000
  10.250   1.3645   0.01919   0.01348  -0.0542   0.2925   1.0000
  10.500   1.3785   0.01998   0.01424  -0.0528   0.2848   1.0000
  10.750   1.3922   0.02080   0.01506  -0.0514   0.2778   1.0000
  11.000   1.4058   0.02165   0.01589  -0.0501   0.2701   1.0000
  11.250   1.4168   0.02267   0.01690  -0.0486   0.2626   1.0000
  11.500   1.4301   0.02359   0.01781  -0.0474   0.2550   1.0000
  11.750   1.4392   0.02481   0.01901  -0.0458   0.2479   1.0000
  12.000   1.4531   0.02575   0.01996  -0.0448   0.2407   1.0000
  12.250   1.4596   0.02720   0.02138  -0.0432   0.2333   1.0000
  12.500   1.4728   0.02824   0.02245  -0.0422   0.2259   1.0000
  12.750   1.4778   0.02990   0.02408  -0.0407   0.2179   1.0000
  13.000   1.4885   0.03120   0.02540  -0.0397   0.2098   1.0000
  13.250   1.4933   0.03296   0.02713  -0.0384   0.2017   1.0000
  13.500   1.4982   0.03478   0.02894  -0.0372   0.1927   1.0000
  13.750   1.5027   0.03668   0.03084  -0.0361   0.1842   1.0000
  14.000   1.5032   0.03898   0.03310  -0.0348   0.1760   1.0000
  14.250   1.5070   0.04104   0.03518  -0.0339   0.1683   1.0000
  14.500   1.5070   0.04348   0.03763  -0.0329   0.1615   1.0000
  14.750   1.5077   0.04591   0.04006  -0.0320   0.1549   1.0000
  15.000   1.5077   0.04848   0.04264  -0.0312   0.1492   1.0000
  15.250   1.5072   0.05115   0.04533  -0.0305   0.1440   1.0000
  15.500   1.5042   0.05410   0.04829  -0.0299   0.1394   1.0000
  15.750   1.5063   0.05656   0.05079  -0.0294   0.1353   1.0000
  16.000   1.5028   0.05967   0.05392  -0.0289   0.1315   1.0000
