  
       XFOIL         Version 6.99
  
 Calculated polar for: NACA 64-208                                     
  
 1 1 Reynolds number fixed          Mach number fixed         
  
 xtrf =   1.000 (top)        1.000 (bottom)  
 Mach =   0.000     Re =     0.150 e 6     Ncrit =   9.000
  
   alpha    CL        CD       CDp       CM     Top_Xtr  Bot_Xtr
  ------ -------- --------- --------- -------- -------- --------
  -4.000  -0.3438   0.00641  -0.00120  -0.0272   1.0000   0.0548
  -3.500  -0.3018   0.00406  -0.00385  -0.0246   1.0000   0.0566
  -3.000  -0.2598   0.00243  -0.00552  -0.0227   1.0000   0.0632
  -2.500  -0.2014   0.00156  -0.00631  -0.0247   0.9955   0.0931
  -2.000  -0.1433   0.00071  -0.00460  -0.0256   0.9854   0.7578
  -1.500  -0.0947   0.00078  -0.00434  -0.0211   0.9652   0.8724
  -1.000  -0.0385   0.00078  -0.00447  -0.0201   0.9471   0.9203
  -0.500   0.0457   0.00076  -0.00466  -0.0261   0.9359   0.9464
   0.000   0.1405   0.00073  -0.00479  -0.0345   0.9254   0.9669
   0.500   0.2397   0.00070  -0.00483  -0.0441   0.9131   0.9834
   1.000   0.3294   0.00067  -0.00478  -0.0519   0.8975   1.0000
   1.500   0.3634   0.00076  -0.00466  -0.0488   0.8709   1.0000
   2.000   0.3993   0.00090  -0.00449  -0.0455   0.8444   1.0000
   2.500   0.4419   0.00100  -0.00434  -0.0420   0.8095   1.0000
   3.000   0.4828   0.00107  -0.00445  -0.0364   0.7340   1.0000
   3.500   0.5284   0.00123  -0.00440  -0.0331   0.6345   1.0000
   4.000   0.5469   0.00344  -0.00499  -0.0274   0.0818   1.0000
   4.500   0.5895   0.00528  -0.00318  -0.0255   0.0618   1.0000
   5.000   0.6365   0.00795  -0.00055  -0.0243   0.0513   1.0000
   5.500   0.6892   0.01094   0.00282  -0.0230   0.0488   1.0000
   6.000   0.7382   0.01516   0.00774  -0.0213   0.0490   1.0000
   8.000   0.8772   0.06302   0.05882  -0.0138   0.0713   1.0000
