
 ===================================================
  XFOIL Version 6.99
  Copyright (C) 2000   Mark Drela, Harold Youngren

  This software comes with ABSOLUTELY NO WARRANTY,
    subject to the GNU General Public License.

  Caveat computor
 ===================================================

 File  xfoil.def  not found

   QUIT    Exit program

  .OPER    Direct operating point(s)
  .MDES    Complex mapping design routine
  .QDES    Surface speed design routine
  .GDES    Geometry design routine

   SAVE f  Write airfoil to labeled coordinate file
   PSAV f  Write airfoil to plain coordinate file
   ISAV f  Write airfoil to ISES coordinate file
   MSAV f  Write airfoil to MSES coordinate file
   REVE    Reverse written-airfoil node ordering

   LOAD f  Read buffer airfoil from coordinate file
   NACA i  Set NACA 4,5-digit airfoil and buffer airfoil
   INTE    Set buffer airfoil by interpolating two airfoils
   NORM    Buffer airfoil normalization toggle
   XYCM rr Change CM reference location, currently  0.25000 0.00000

   BEND    Display structural properties of current airfoil

   PCOP    Set current-airfoil panel nodes directly from buffer airfoil points
   PANE    Set current-airfoil panel nodes ( 160 ) based on curvature
  .PPAR    Show/change paneling

  .PLOP    Plotting options

   WDEF f  Write  current-settings file
   RDEF f  Reread current-settings file
   NAME s  Specify new airfoil name
   NINC    Increment name version number

   Z       Zoom    | (available in all menus)
   U       Unzoom  | 

 XFOIL   c>  
 Labeled airfoil file.  Name:  NACA 66(3)-218                                  

 Number of input coordinate points:  51
 Counterclockwise ordering
 Max thickness =     0.179965  at x =   0.451
 Max camber    =     0.010159  at x =   0.550

  LE  x,y  =  -0.00008   0.00177  |   Chord =   1.00008
  TE  x,y  =   1.00000   0.00000  |

 Current airfoil nodes set from buffer airfoil nodes (  51 )

 WARNING: Poor input coordinate distribution
          Excessive panel angle   41.6  at i =  26
          Repaneling with PANE and/or PPAR suggested
           (doing GDES,CADD before repaneling _may_
            improve excessively coarse LE spacing

 XFOIL   c>  
 XFOIL   c>  
 Sharp trailing edge

 Paneling parameters used...
   Number of panel nodes       160
   Panel bunching parameter    1.000
   TE/LE panel density ratio   0.150
   Refined-area/LE panel density ratio    0.200
   Top    side refined area x/c limits  1.000 1.000
   Bottom side refined area x/c limits  1.000 1.000

 XFOIL   c>  
.OPERi   c>  
 Xtr/c     =  1.0000    top    side
 Xtr/c     =  1.0000    bottom side
 Ncrit     =    9.00   ( 0.070 % turb. level )
 Vacc      =  0.0100

 Klag  =  5.6000     Uxwt  =    1.00
 A     =  6.7000     B     =  0.7500       KCt = 0.01485
 CtiniK=  1.8000     CtiniX=  3.3000

..VPAR   c>  
..VPAR   c>  
.OPERi   c>  
 M  =    0.0000
 Re =    300000

.OPERv   c>  
.OPERv   c>  
.OPERv   c>  
 Polar  1 newly created for accumulation
 Airfoil archived with polar: NACA 66(3)-218                                  

Enter  polar save filename  OR  <return> for no file   s>  
 New polar save file available

Enter  polar dump filename  OR  <return> for no file   s>  
 Polar dump file will NOT be written

 Polar accumulation enabled

.OPERva   c>   Calculating unit vorticity distributions ...
 Calculating wake trajectory ...
 Calculating source influence matrix ...

 Solving BL system ...

 Initializing BL ...
    side            1  ...
 MRCHUE: Inverse mode at  53     Hk =   3.800
 MRCHUE: Inverse mode at  54     Hk =   4.398
 MRCHUE: Inverse mode at  55     Hk =   4.988
 MRCHUE: Inverse mode at  56     Hk =   5.568
 MRCHUE: Inverse mode at  57     Hk =   6.142
 MRCHUE: Inverse mode at  58     Hk =   6.711
 MRCHUE: Inverse mode at  59     Hk =   7.279
 MRCHUE: Inverse mode at  60     Hk =   7.847
 MRCHUE: Inverse mode at  61     Hk =   8.416
 MRCHUE: Inverse mode at  62     Hk =   8.986
 MRCHUE: Inverse mode at  63     Hk =   9.555
 MRCHUE: Inverse mode at  64     Hk =   9.774
 MRCHUE: Inverse mode at  65     Hk =   7.116
 MRCHUE: Inverse mode at  66     Hk =   5.659
 MRCHUE: Inverse mode at  67     Hk =   4.629
 MRCHUE: Inverse mode at  68     Hk =   3.840
 MRCHUE: Inverse mode at  69     Hk =   3.216
 MRCHUE: Inverse mode at  70     Hk =   2.712
 MRCHUE: Inverse mode at  71     Hk =   2.500
 MRCHUE: Inverse mode at  72     Hk =   2.500
 MRCHUE: Inverse mode at  73     Hk =   2.500
 MRCHUE: Inverse mode at  74     Hk =   2.500
 MRCHUE: Inverse mode at  75     Hk =   2.500
 MRCHUE: Inverse mode at  76     Hk =   2.500
    side            2  ...
 MRCHUE: Inverse mode at  21     Hk =   4.231
 MRCHUE: Inverse mode at  22     Hk =   4.964
 MRCHUE: Inverse mode at  23     Hk =   5.731
 MRCHUE: Inverse mode at  24     Hk =   6.542
 MRCHUE: Inverse mode at  25     Hk =   7.402
 MRCHUE: Inverse mode at  26     Hk =   8.318
 MRCHUE: Inverse mode at  27     Hk =   9.307
 MRCHUE: Inverse mode at  28     Hk =   8.653
 MRCHUE: Inverse mode at  29     Hk =   4.110
 MRCHUE: Inverse mode at  30     Hk =   2.500
 MRCHUE: Inverse mode at  73     Hk =   2.500
 MRCHUE: Inverse mode at  74     Hk =   2.500
 MRCHUE: Inverse mode at  75     Hk =   2.500
 MRCHUE: Inverse mode at  76     Hk =   2.500
 MRCHUE: Inverse mode at  77     Hk =   2.500
 MRCHUE: Inverse mode at  78     Hk =   2.500
 MRCHUE: Inverse mode at  79     Hk =   2.500
 MRCHUE: Inverse mode at  80     Hk =   2.500
 MRCHUE: Inverse mode at  81     Hk =   2.500
 MRCHUE: Inverse mode at  82     Hk =   2.500
 MRCHUE: Inverse mode at  83     Hk =   2.500
 MRCHUE: Inverse mode at  84     Hk =   2.500
 MRCHUE: Inverse mode at  85     Hk =   2.500
 MRCHUE: Convergence failed at  86  side 2    Res =  0.3590E+01

 MRCHDU: Convergence failed at  86  side 2    Res =  0.1485E+01
 Side 1  free  transition at x/c =  0.8319   64
 Side 2  free  transition at x/c =  0.0808   28

   1   rms: 0.4205E+00   max: -.4925E+01   T at   28  2   RLX: 0.102
       a = -4.000      CL = -0.2195
      Cm = -0.0499     CD =  0.01147   =>   CDf =  0.00821    CDp =  0.00326

 MRCHDU: Convergence failed at  29  side 2    Res =  0.2483E+01
 MRCHDU: Convergence failed at  30  side 2    Res =  0.1989E+02
 Side 1  free  transition at x/c =  0.8329   64
 Side 2  free  transition at x/c =  0.0911   29

   2   rms: 0.6299E+00   max: -.5007E+01   T at   29  2   RLX: 0.100
       a = -4.000      CL = -0.1938
      Cm = -0.0575     CD =  0.01044   =>   CDf =  0.00812    CDp =  0.00232

 Side 1  free  transition at x/c =  0.8410   65
 Side 2  free  transition at x/c =  0.1131   31

   3   rms: 0.4349E+00   max: -.4468E+01   D at   31  2   RLX: 0.112
       a = -4.000      CL = -0.1709
      Cm = -0.0618     CD =  0.01001   =>   CDf =  0.00853    CDp =  0.00147

 TRCHEK2: N2 convergence failed.
 x:  0.16773  0.18091  0.18356  N:  8.206  9.000  9.217  Nx:  63.983   dN: 0.177E+00
 TRCHEK2: N2 convergence failed.
 x:  0.16773  0.18091  0.18356  N:  8.206  9.000  9.217  Nx:  64.064   dN: 0.200E+00
 TRCHEK2: N2 convergence failed.
 x:  0.16773  0.18091  0.18356  N:  8.206  9.000  9.217  Nx:  63.949   dN: 0.163E+00
 TRCHEK2: N2 convergence failed.
 x:  0.16773  0.18092  0.18356  N:  8.206  9.000  9.216  Nx:  63.821   dN: 0.135E+00
 TRCHEK2: N2 convergence failed.
 x:  0.16773  0.18094  0.18356  N:  8.206  9.000  9.215  Nx:  63.716   dN: 0.116E+00
 TRCHEK2: N2 convergence failed.
 x:  0.16773  0.18093  0.18356  N:  8.206  9.000  9.215  Nx:  63.668   dN: 0.107E+00
 TRCHEK2: N2 convergence failed.
 x:  0.16773  0.18094  0.18356  N:  8.206  9.000  9.215  Nx:  63.610   dN: 0.994E-01
 TRCHEK2: N2 convergence failed.
 x:  0.16773  0.18094  0.18356  N:  8.206  9.000  9.215  Nx:  63.576   dN: 0.119E+00
 TRCHEK2: N2 convergence failed.
 x:  0.16773  0.18095  0.18356  N:  8.206  9.000  9.100  Nx:  63.494   dN:-0.934E+00
 TRCHEK2: N2 convergence failed.
 x:  0.16773  0.18094  0.18356  N:  8.206  9.000  9.215  Nx:  63.608   dN: 0.100E+00
 TRCHEK2: N2 convergence failed.
 x:  0.16773  0.18095  0.18356  N:  8.206  9.000  9.100  Nx:  63.437   dN:-0.227E+00
 TRCHEK2: N2 convergence failed.
 x:  0.16773  0.18095  0.18356  N:  8.206  9.000  9.100  Nx:  63.461   dN:-0.309E+00
 TRCHEK2: N2 convergence failed.
 x:  0.16773  0.18095  0.18356  N:  8.206  9.000  9.100  Nx:  63.492   dN:-0.843E+00
 TRCHEK2: N2 convergence failed.
 x:  0.16773  0.18093  0.18356  N:  8.206  9.000  9.215  Nx:  63.652   dN: 0.106E+00
 TRCHEK2: N2 convergence failed.
 x:  0.16773  0.18094  0.18356  N:  8.206  9.000  9.101  Nx:  63.434   dN:-0.196E+00
 TRCHEK2: N2 convergence failed.
 x:  0.16773  0.18094  0.18356  N:  8.206  9.000  9.100  Nx:  63.407   dN:-0.182E+00
 TRCHEK2: N2 convergence failed.
 x:  0.16773  0.18094  0.18356  N:  8.206  9.000  9.100  Nx:  63.425   dN:-0.190E+00
 TRCHEK2: N2 convergence failed.
 x:  0.16773  0.18094  0.18356  N:  8.206  9.000  9.100  Nx:  63.411   dN:-0.183E+00
 TRCHEK2: N2 convergence failed.
 x:  0.16773  0.18094  0.18356  N:  8.206  9.000  9.100  Nx:  63.421   dN:-0.188E+00
 TRCHEK2: N2 convergence failed.
 x:  0.16773  0.18094  0.18356  N:  8.206  9.000  9.100  Nx:  63.414   dN:-0.184E+00
 TRCHEK2: N2 convergence failed.
 x:  0.16773  0.18094  0.18356  N:  8.206  9.000  9.100  Nx:  63.420   dN:-0.187E+00
 TRCHEK2: N2 convergence failed.
 x:  0.16773  0.18094  0.18356  N:  8.206  9.000  9.100  Nx:  63.415   dN:-0.185E+00
 TRCHEK2: N2 convergence failed.
 x:  0.16773  0.18094  0.18356  N:  8.206  9.000  9.100  Nx:  63.418   dN:-0.186E+00
 MRCHDU: Convergence failed at  33  side 2    Res =  0.2671E-03
 TRCHEK2: N2 convergence failed.
 x:  0.16773  0.18094  0.18356  N:  8.206  9.000  9.100  Nx:  63.416   dN:-0.185E+00
 Side 1  free  transition at x/c =  0.8386   65
 TRCHEK2: N2 convergence failed.
 x:  0.16773  0.18094  0.18356  N:  8.206  9.000  9.100  Nx:  63.414   dN:-0.184E+00
 Side 2  free  transition at x/c =  0.1528   33

   4   rms: 0.7669E+01   max: -.1423E+03   C at   33  2   RLX: 0.004
       a = -4.000      CL = -0.1693
      Cm = -0.0618     CD =  0.00968   =>   CDf =  0.00832    CDp =  0.00136

 TRCHEK2: N2 convergence failed.
 x:  0.16775  0.18083  0.18359  N:  8.214  9.000  9.223  Nx:  64.027   dN: 0.189E+00
 TRCHEK2: N2 convergence failed.
 x:  0.16775  0.18084  0.18359  N:  8.214  9.000  9.223  Nx:  63.789   dN: 0.131E+00
 TRCHEK2: N2 convergence failed.
 x:  0.16775  0.18084  0.18359  N:  8.214  9.000  9.222  Nx:  63.757   dN: 0.126E+00
 TRCHEK2: N2 convergence failed.
 x:  0.16775  0.18084  0.18359  N:  8.214  9.000  9.222  Nx:  63.756   dN: 0.126E+00
 TRCHEK2: N2 convergence failed.
 x:  0.16775  0.18084  0.18359  N:  8.214  9.000  9.222  Nx:  63.756   dN: 0.126E+00
 Side 1  free  transition at x/c =  0.8384   65
 TRCHEK2: N2 convergence failed.
 x:  0.16775  0.18084  0.18359  N:  8.214  9.000  9.222  Nx:  63.753   dN: 0.126E+00
 Side 2  free  transition at x/c =  0.1527   33

   5   rms: 0.4033E+01   max: -.7541E+02   C at   33  2   RLX: 0.007
       a = -4.000      CL = -0.1707
      Cm = -0.0615     CD =  0.00971   =>   CDf =  0.00832    CDp =  0.00139

 TRCHEK2: N2 convergence failed.
 x:  0.16777  0.17997  0.18360  N:  8.190  9.000  9.173  Nx:  68.462   dN:-0.131E+00
 TRCHEK2: N2 convergence failed.
 x:  0.16777  0.18071  0.18360  N:  8.190  9.000  9.241  Nx:  63.986   dN: 0.666E-01
 TRCHEK2: N2 convergence failed.
 x:  0.16777  0.18019  0.18360  N:  8.190  9.000  9.157  Nx:  66.545   dN:-0.136E+00
 TRCHEK2: N2 convergence failed.
 x:  0.16777  0.18071  0.18360  N:  8.190  9.000  9.241  Nx:  63.971   dN: 0.646E-01
 TRCHEK2: N2 convergence failed.
 x:  0.16777  0.18061  0.18360  N:  8.190  9.000  9.250  Nx:  64.382   dN: 0.103E+00
 TRCHEK2: N2 convergence failed.
 x:  0.16777  0.18061  0.18360  N:  8.190  9.000  9.250  Nx:  64.370   dN: 0.999E-01
 TRCHEK2: N2 convergence failed.
 x:  0.16777  0.18063  0.18360  N:  8.190  9.000  9.248  Nx:  64.289   dN: 0.906E-01
 TRCHEK2: N2 convergence failed.
 x:  0.16777  0.18180  0.18360  N:  8.190  9.000  9.156  Nx:  63.032   dN: 0.844E-01
 TRCHEK2: N2 convergence failed.
 x:  0.16777  0.17997  0.18360  N:  8.190  9.000  9.173  Nx:  68.914   dN:-0.149E+00
 TRCHEK2: N2 convergence failed.
 x:  0.16777  0.18071  0.18360  N:  8.190  9.000  9.241  Nx:  63.991   dN: 0.674E-01
 TRCHEK2: N2 convergence failed.
 x:  0.16777  0.18052  0.18360  N:  8.190  9.000  9.258  Nx:  64.758   dN: 0.189E+00
 TRCHEK2: N2 convergence failed.
 x:  0.16777  0.18058  0.18360  N:  8.190  9.000  9.253  Nx:  64.489   dN: 0.116E+00
 TRCHEK2: N2 convergence failed.
 x:  0.16777  0.18040  0.18360  N:  8.190  9.000  9.142  Nx:  65.304   dN:-0.545E+01
 TRCHEK2: N2 convergence failed.
 x:  0.16777  0.18069  0.18360  N:  8.190  9.000  9.243  Nx:  64.073   dN: 0.729E-01
 TRCHEK2: N2 convergence failed.
 x:  0.16777  0.18180  0.18360  N:  8.190  9.000  9.155  Nx:  63.032   dN: 0.848E-01
 TRCHEK2: N2 convergence failed.
 x:  0.16777  0.17997  0.18360  N:  8.190  9.000  9.173  Nx:  68.926   dN:-0.149E+00
 TRCHEK2: N2 convergence failed.
 x:  0.16777  0.18071  0.18360  N:  8.190  9.000  9.241  Nx:  63.992   dN: 0.674E-01
 TRCHEK2: N2 convergence failed.
 x:  0.16777  0.18052  0.18360  N:  8.190  9.000  9.258  Nx:  64.758   dN: 0.189E+00
 TRCHEK2: N2 convergence failed.
 x:  0.16777  0.18061  0.18360  N:  8.190  9.000  9.250  Nx:  64.349   dN: 0.964E-01
 TRCHEK2: N2 convergence failed.
 x:  0.16777  0.18069  0.18360  N:  8.190  9.000  9.243  Nx:  64.083   dN: 0.737E-01
 TRCHEK2: N2 convergence failed.
 x:  0.16777  0.18061  0.18360  N:  8.190  9.000  9.250  Nx:  64.384   dN: 0.103E+00
 TRCHEK2: N2 convergence failed.
 x:  0.16777  0.18061  0.18360  N:  8.190  9.000  9.250  Nx:  64.370   dN: 0.999E-01
 TRCHEK2: N2 convergence failed.
 x:  0.16777  0.18064  0.18360  N:  8.190  9.000  9.247  Nx:  64.252   dN: 0.870E-01
 TRCHEK2: N2 convergence failed.
 x:  0.16777  0.18056  0.18360  N:  8.190  9.000  9.255  Nx:  64.573   dN: 0.133E+00
 TRCHEK2: N2 convergence failed.
 x:  0.16777  0.18058  0.18360  N:  8.190  9.000  9.253  Nx:  64.474   dN: 0.113E+00
 MRCHDU: Convergence failed at  33  side 2    Res =  0.1790E-03
 TRCHEK2: N2 convergence failed.
 x:  0.16777  0.18024  0.18360  N:  8.190  9.000  9.153  Nx:  66.187   dN:-0.164E+00
 Side 1  free  transition at x/c =  0.8382   65
 TRCHEK2: N2 convergence failed.
 x:  0.16777  0.18067  0.18360  N:  8.190  9.000  9.245  Nx:  64.137   dN: 0.771E-01
 Side 2  free  transition at x/c =  0.1525   33

   6   rms: 0.4529E+01   max: -.8566E+02   C at   33  2   RLX: 0.006
       a = -4.000      CL = -0.1722
      Cm = -0.0611     CD =  0.00974   =>   CDf =  0.00834    CDp =  0.00140

 Side 1  free  transition at x/c =  0.8380   65
 Side 2  free  transition at x/c =  0.1525   33

   7   rms: 0.4361E+01   max: -.8247E+02   C at   33  2   RLX: 0.006
       a = -4.000      CL = -0.1736
      Cm = -0.0608     CD =  0.00975   =>   CDf =  0.00832    CDp =  0.00143

 Side 1  free  transition at x/c =  0.8378   65
 Side 2  free  transition at x/c =  0.1531   33

   8   rms: 0.3047E+01   max: -.5815E+02   C at   33  2   RLX: 0.009
       a = -4.000      CL = -0.1749
      Cm = -0.0606     CD =  0.00973   =>   CDf =  0.00826    CDp =  0.00148

 Side 1  free  transition at x/c =  0.8376   65
 Side 2  free  transition at x/c =  0.1537   33

   9   rms: 0.3697E+01   max: -.7060E+02   C at   33  2   RLX: 0.007
       a = -4.000      CL = -0.1761
      Cm = -0.0604     CD =  0.00970   =>   CDf =  0.00816    CDp =  0.00154

 Side 1  free  transition at x/c =  0.8374   65
 Side 2  free  transition at x/c =  0.1542   33

  10   rms: 0.4484E+01   max: -.8286E+02   C at   33  2   RLX: 0.006
       a = -4.000      CL = -0.1772
      Cm = -0.0602     CD =  0.00968   =>   CDf =  0.00809    CDp =  0.00159

 Side 1  free  transition at x/c =  0.8372   65
 Side 2  free  transition at x/c =  0.1546   33

  11   rms: 0.5199E+01   max: -.9177E+02   C at   33  2   RLX: 0.005
       a = -4.000      CL = -0.1783
      Cm = -0.0601     CD =  0.00965   =>   CDf =  0.00802    CDp =  0.00163

 Side 1  free  transition at x/c =  0.8370   65
 Side 2  free  transition at x/c =  0.1549   33

  12   rms: 0.6163E+01   max: -.1033E+03   C at   33  2   RLX: 0.005
       a = -4.000      CL = -0.1792
      Cm = -0.0599     CD =  0.00963   =>   CDf =  0.00796    CDp =  0.00167

 Side 1  free  transition at x/c =  0.8369   65
 Side 2  free  transition at x/c =  0.1552   33

  13   rms: 0.6836E+01   max: -.1089E+03   C at   33  2   RLX: 0.005
       a = -4.000      CL = -0.1802
      Cm = -0.0598     CD =  0.00960   =>   CDf =  0.00790    CDp =  0.00170

 Side 1  free  transition at x/c =  0.8368   65
 Side 2  free  transition at x/c =  0.1554   33

  14   rms: 0.7681E+01   max: -.1162E+03   C at   33  2   RLX: 0.004
       a = -4.000      CL = -0.1812
      Cm = -0.0596     CD =  0.00958   =>   CDf =  0.00785    CDp =  0.00173

 Side 1  free  transition at x/c =  0.8366   65
 Side 2  free  transition at x/c =  0.1519   33

  15   rms: 0.3136E+00   max: -.3368E+01   T at   33  2   RLX: 0.148
       a = -4.000      CL = -0.1777
      Cm = -0.0583     CD =  0.01028   =>   CDf =  0.00827    CDp =  0.00201

 Side 1  free  transition at x/c =  0.8342   65
 Side 2  free  transition at x/c =  0.1702   34

  16   rms: 0.3241E+01   max: -.6163E+02   C at   34  2   RLX: 0.008
       a = -4.000      CL = -0.1784
      Cm = -0.0584     CD =  0.01024   =>   CDf =  0.00789    CDp =  0.00235

 Side 1  free  transition at x/c =  0.8340   65
 Side 2  free  transition at x/c =  0.1707   34

  17   rms: 0.3843E+01   max: -.6911E+02   C at   34  2   RLX: 0.007
       a = -4.000      CL = -0.1795
      Cm = -0.0582     CD =  0.01023   =>   CDf =  0.00784    CDp =  0.00239

 Side 1  free  transition at x/c =  0.8338   65
 Side 2  free  transition at x/c =  0.1712   34

  18   rms: 0.4369E+01   max: -.7445E+02   C at   34  2   RLX: 0.007
       a = -4.000      CL = -0.1807
      Cm = -0.0580     CD =  0.01021   =>   CDf =  0.00778    CDp =  0.00243

 Side 1  free  transition at x/c =  0.8337   65
 Side 2  free  transition at x/c =  0.1677   34

  19   rms: 0.2486E+00   max: -.2586E+01   T at   34  2   RLX: 0.193
       a = -4.000      CL = -0.1787
      Cm = -0.0568     CD =  0.01108   =>   CDf =  0.00811    CDp =  0.00297

 Side 1  free  transition at x/c =  0.8312   64
 Side 2  free  transition at x/c =  0.1885   36

  20   rms: 0.3420E+00   max: -.3717E+01   C at   36  2   RLX: 0.135
       a = -4.000      CL = -0.1908
      Cm = -0.0540     CD =  0.01168   =>   CDf =  0.00791    CDp =  0.00377

 Side 1  free  transition at x/c =  0.8269   64
 Side 2  free  transition at x/c =  0.5258   55

  21   rms: 0.5638E+01   max: -.9710E+02   C at   55  2   RLX: 0.005
       a = -4.000      CL = -0.1952
      Cm = -0.0534     CD =  0.00978   =>   CDf =  0.00608    CDp =  0.00370

 Side 1  free  transition at x/c =  0.8267   64
 Side 2  free  transition at x/c =  0.5549   57

  22   rms: 0.7468E+01   max: -.1289E+03   C at   57  2   RLX: 0.004
       a = -4.000      CL = -0.1974
      Cm = -0.0528     CD =  0.00975   =>   CDf =  0.00592    CDp =  0.00383

 Side 1  free  transition at x/c =  0.8265   64
 Side 2  free  transition at x/c =  0.5781   59

  23   rms: 0.7215E+01   max: -.1249E+03   C at   59  2   RLX: 0.004
       a = -4.000      CL = -0.1998
      Cm = -0.0522     CD =  0.00980   =>   CDf =  0.00577    CDp =  0.00402

 Side 1  free  transition at x/c =  0.8264   64
 Side 2  free  transition at x/c =  0.5987   60

  24   rms: 0.2696E+01   max: -.4468E+02   C at   60  2   RLX: 0.011
       a = -4.000      CL = -0.2020
      Cm = -0.0517     CD =  0.00989   =>   CDf =  0.00567    CDp =  0.00422

 Side 1  free  transition at x/c =  0.8261   64
 Side 2  free  transition at x/c =  0.6182   61

  25   rms: 0.4917E+00   max: 0.5044E+01   C at   62  2   RLX: 0.297
       a = -4.000      CL = -0.2365
      Cm = -0.0469     CD =  0.01103   =>   CDf =  0.00562    CDp =  0.00541

 MRCHDU: Convergence failed at  64  side 2    Res =  0.2413E+01
 MRCHDU: Convergence failed at  65  side 2    Res =  0.1574E+01
 MRCHDU: Convergence failed at  66  side 2    Res =  0.5043E+01
 MRCHDU: Convergence failed at  67  side 2    Res =  0.2612E+02
 MRCHDU: Convergence failed at  68  side 2    Res =  0.1075E+02
 MRCHDU: Convergence failed at  69  side 2    Res =  0.1372E+02
 MRCHDU: Convergence failed at  70  side 2    Res =  0.3629E+02
 MRCHDU: Convergence failed at  71  side 2    Res =  0.4490E+02
 MRCHDU: Convergence failed at  72  side 2    Res =  0.1331E+02
 MRCHDU: Convergence failed at  73  side 2    Res =  0.8268E+01
 MRCHDU: Convergence failed at  74  side 2    Res =  0.6288E+01
 MRCHDU: Convergence failed at  75  side 2    Res =  0.5172E+01
 MRCHDU: Convergence failed at  76  side 2    Res =  0.4770E+01
 MRCHDU: Convergence failed at  77  side 2    Res =  0.5710E+01
 MRCHDU: Convergence failed at  78  side 2    Res =  0.6998E+01
 MRCHDU: Convergence failed at  79  side 2    Res =  0.8718E+01
 MRCHDU: Convergence failed at  80  side 2    Res =  0.1068E+02
 MRCHDU: Convergence failed at  81  side 2    Res =  0.1281E+02
 MRCHDU: Convergence failed at  82  side 2    Res =  0.1448E+02
 MRCHDU: Convergence failed at  83  side 2    Res =  0.1575E+02
 MRCHDU: Convergence failed at  84  side 2    Res =  0.1676E+02
 MRCHDU: Convergence failed at  85  side 2    Res =  0.1762E+02
 MRCHDU: Convergence failed at  86  side 2    Res =  0.6972E+01
 Side 1  free  transition at x/c =  0.8198   64
 Side 2 forced transition at x/c =  1.0000   86

  26   rms: 0.3967E+00   max: 0.1862E+01   D at   80  2   RLX: 0.806
       a = -4.000      CL = -0.3371
      Cm = -0.0114     CD =  0.00921   =>   CDf =  0.00560    CDp =  0.00362

 MRCHDU: Convergence failed at  69  side 2    Res =  0.1784E+01
 MRCHDU: Convergence failed at  70  side 2    Res =  0.1705E+01
 MRCHDU: Convergence failed at  71  side 2    Res =  0.1972E+01
 MRCHDU: Convergence failed at  72  side 2    Res =  0.2271E+01
 MRCHDU: Convergence failed at  73  side 2    Res =  0.2606E+01
 MRCHDU: Convergence failed at  74  side 2    Res =  0.4003E+01
 MRCHDU: Convergence failed at  75  side 2    Res =  0.2987E+01
 MRCHDU: Convergence failed at  76  side 2    Res =  0.3392E+01
 MRCHDU: Convergence failed at  77  side 2    Res =  0.3760E+01
 MRCHDU: Convergence failed at  78  side 2    Res =  0.4027E+01
 MRCHDU: Convergence failed at  79  side 2    Res =  0.4061E+01
 MRCHDU: Convergence failed at  80  side 2    Res =  0.4068E+01
 MRCHDU: Convergence failed at  81  side 2    Res =  0.5721E+01
 MRCHDU: Convergence failed at  82  side 2    Res =  0.6020E+01
 MRCHDU: Convergence failed at  83  side 2    Res =  0.6181E+01
 MRCHDU: Convergence failed at  84  side 2    Res =  0.6296E+01
 MRCHDU: Convergence failed at  85  side 2    Res =  0.6428E+01
 MRCHDU: Convergence failed at  86  side 2    Res =  0.6268E+01
 Side 1  free  transition at x/c =  0.8140   63
 Side 2  free  transition at x/c =  0.8306   74

  27   rms: 0.4600E+00   max: 0.3786E+01   C at   74  2   RLX: 0.396
       a = -4.000      CL = -0.3257
      Cm =  0.0077     CD =  0.00979   =>   CDf =  0.00495    CDp =  0.00484

 Side 1  free  transition at x/c =  0.8148   63
 Side 2  free  transition at x/c =  0.7723   71
 idif Ue xi dudx           1  0.15203039      2.58207321E-03   58.879196    
 Uenew xinew           2  1.48520926E-02  2.52246857E-04

  28   rms: 0.2663E+00   max: 0.1875E+01   T at   71  2   RLX: 0.784
       a = -4.000      CL = -0.3570
      Cm = -0.0165     CD =  0.01361   =>   CDf =  0.00581    CDp =  0.00780

 MRCHDU: Convergence failed at  72  side 2    Res =  0.6515E+01
 MRCHDU: Convergence failed at  73  side 2    Res =  0.8735E+01
 Side 1  free  transition at x/c =  0.8079   62
 Side 2  free  transition at x/c =  0.7177   68

  29   rms: 0.1643E+00   max: 0.8944E+00   D at   74  2   RLX: 0.985
       a = -4.000      CL = -0.2163
      Cm = -0.0465     CD =  0.01815   =>   CDf =  0.00489    CDp =  0.01326

 Side 1  free  transition at x/c =  0.8141   63
 Side 2  free  transition at x/c =  0.7203   68

  30   rms: 0.1467E+00   max: -.8101E+00   D at   72  2   RLX: 0.617
       a = -4.000      CL = -0.2816
      Cm = -0.0379     CD =  0.01589   =>   CDf =  0.00510    CDp =  0.01079

 MRCHDU: Convergence failed at  70  side 2    Res =  0.3833E+01
 MRCHDU: Convergence failed at  71  side 2    Res =  0.5992E+01
 MRCHDU: Convergence failed at  72  side 2    Res =  0.6597E+01
 MRCHDU: Convergence failed at  73  side 2    Res =  0.2036E+01
 MRCHDU: Convergence failed at  74  side 2    Res =  0.2080E+01
 MRCHDU: Convergence failed at  75  side 2    Res =  0.1724E+01
 MRCHDU: Convergence failed at  76  side 2    Res =  0.2129E+01
 MRCHDU: Convergence failed at  77  side 2    Res =  0.2668E+01
 MRCHDU: Convergence failed at  78  side 2    Res =  0.3361E+01
 MRCHDU: Convergence failed at  79  side 2    Res =  0.4070E+01
 MRCHDU: Convergence failed at  80  side 2    Res =  0.4858E+01
 MRCHDU: Convergence failed at  81  side 2    Res =  0.5670E+01
 MRCHDU: Convergence failed at  82  side 2    Res =  0.6559E+01
 MRCHDU: Convergence failed at  83  side 2    Res =  0.7683E+01
 MRCHDU: Convergence failed at  84  side 2    Res =  0.9205E+01
 MRCHDU: Convergence failed at  85  side 2    Res =  0.1331E+02
 MRCHDU: Convergence failed at  86  side 2    Res =  0.1626E+02
 Side 1  free  transition at x/c =  0.8099   63
 Side 2  free  transition at x/c =  0.7278   68

  31   rms: 0.2883E+00   max: 0.1674E+01   D at   86  2   RLX: 0.896
       a = -4.000      CL = -0.2615
      Cm = -0.0352     CD =  0.01246   =>   CDf =  0.00487    CDp =  0.00760

 Side 1  free  transition at x/c =  0.8120   63
 Side 2  free  transition at x/c =  0.7200   67

  32   rms: 0.8361E-01   max: 0.3560E+00   D at   80  2
       a = -4.000      CL = -0.3174
      Cm = -0.0307     CD =  0.01612   =>   CDf =  0.00528    CDp =  0.01084

 Side 1  free  transition at x/c =  0.8080   63
 Side 2  free  transition at x/c =  0.7108   67

  33   rms: 0.1531E-01   max: -.1480E+00   D at   69  2
       a = -4.000      CL = -0.3099
      Cm = -0.0322     CD =  0.01622   =>   CDf =  0.00498    CDp =  0.01124

 Side 1  free  transition at x/c =  0.8083   63
 Side 2  free  transition at x/c =  0.7135   67

  34   rms: 0.1726E-02   max: -.1743E-01   D at   68  2
       a = -4.000      CL = -0.3112
      Cm = -0.0321     CD =  0.01618   =>   CDf =  0.00502    CDp =  0.01115

 Side 1  free  transition at x/c =  0.8082   63
 Side 2  free  transition at x/c =  0.7137   67

  35   rms: 0.2615E-04   max: 0.1237E-03   T at   67  2
       a = -4.000      CL = -0.3112
      Cm = -0.0320     CD =  0.01618   =>   CDf =  0.00502    CDp =  0.01116
 plradd ia,ip,cpol            1           0  7.84436986E-03

 Point added to stored polar  1
 Point written to save file  naca663218_Re300k.base.pol                      
 Dump file unspecified or not available
 Calculating wake trajectory ...
 Calculating source influence matrix ...

 Solving BL system ...

 Side 1  free  transition at x/c =  0.8082   63
 Side 2  free  transition at x/c =  0.7137   67

   1   rms: 0.8373E-01   max: -.4561E+00   T at   67  2
       a = -3.500      CL = -0.2721
      Cm = -0.0291     CD =  0.01737   =>   CDf =  0.00502    CDp =  0.01235

 Side 1  free  transition at x/c =  0.8047   63
 Side 2  free  transition at x/c =  0.7405   69

   2   rms: 0.4322E-01   max: 0.5487E+00   D at   69  2
       a = -3.500      CL = -0.2691
      Cm = -0.0292     CD =  0.01749   =>   CDf =  0.00505    CDp =  0.01244

 Side 1  free  transition at x/c =  0.8049   63
 Side 2  free  transition at x/c =  0.7388   69

   3   rms: 0.9718E-02   max: 0.1083E+00   D at   70  2
       a = -3.500      CL = -0.2642
      Cm = -0.0298     CD =  0.01777   =>   CDf =  0.00504    CDp =  0.01273

 Side 1  free  transition at x/c =  0.8052   63
 Side 2  free  transition at x/c =  0.7380   69

   4   rms: 0.8817E-03   max: 0.1058E-01   D at   70  2
       a = -3.500      CL = -0.2639
      Cm = -0.0298     CD =  0.01779   =>   CDf =  0.00506    CDp =  0.01273

 Side 1  free  transition at x/c =  0.8052   63
 Side 2  free  transition at x/c =  0.7380   69

   5   rms: 0.2801E-04   max: 0.1593E-03   D at   70  2
       a = -3.500      CL = -0.2639
      Cm = -0.0298     CD =  0.01779   =>   CDf =  0.00506    CDp =  0.01273
 plradd ia,ip,cpol            2           0  7.84436986E-03

 Point added to stored polar  1
 Point written to save file  naca663218_Re300k.base.pol                      
 Dump file unspecified or not available
 Calculating wake trajectory ...
 Calculating source influence matrix ...

 Solving BL system ...

 Side 1  free  transition at x/c =  0.8052   63
 Side 2  free  transition at x/c =  0.7380   69

   1   rms: 0.2357E+00   max: 0.1162E+01   D at   72  2   RLX: 0.698
       a = -3.000      CL = -0.1901
      Cm = -0.0323     CD =  0.02053   =>   CDf =  0.00510    CDp =  0.01543

 Side 1  free  transition at x/c =  0.8050   64
 Side 2  free  transition at x/c =  0.7493   68

   2   rms: 0.2431E+00   max: 0.9159E+00   D at   72  2   RLX: 0.946
       a = -3.000      CL =  0.0301
      Cm = -0.0636     CD =  0.02471   =>   CDf =  0.00499    CDp =  0.01972

 Side 1  free  transition at x/c =  0.8128   65
 Side 2  free  transition at x/c =  0.7263   66

   3   rms: 0.1221E+00   max: -.5429E+00   T at   66  2   RLX: 0.921
       a = -3.000      CL = -0.0781
      Cm = -0.0470     CD =  0.02490   =>   CDf =  0.00510    CDp =  0.01980

 Side 1  free  transition at x/c =  0.8077   65
 Side 2  free  transition at x/c =  0.7389   67

   4   rms: 0.6856E-01   max: -.4336E+00   T at   67  2
       a = -3.000      CL = -0.1190
      Cm = -0.0404     CD =  0.02212   =>   CDf =  0.00499    CDp =  0.01713

 Side 1  free  transition at x/c =  0.8066   65
 Side 2  free  transition at x/c =  0.7444   67
 idif Ue xi dudx           1  0.18396938      2.88510323E-03   63.765266    
 Uenew xinew           2  4.68323007E-02  7.34448433E-04

   5   rms: 0.7218E-01   max: -.3563E+00   T at   67  2
       a = -3.000      CL = -0.1716
      Cm = -0.0323     CD =  0.02202   =>   CDf =  0.00492    CDp =  0.01710

 Side 1  free  transition at x/c =  0.8040   64
 Side 2  free  transition at x/c =  0.7528   68

   6   rms: 0.5027E-01   max: 0.3142E+00   T at   68  2
       a = -3.000      CL = -0.1246
      Cm = -0.0395     CD =  0.02206   =>   CDf =  0.00497    CDp =  0.01710

 Side 1  free  transition at x/c =  0.8063   64
 Side 2  free  transition at x/c =  0.7453   68

   7   rms: 0.4628E-01   max: -.2379E+00   T at   68  2
       a = -3.000      CL = -0.1564
      Cm = -0.0348     CD =  0.02188   =>   CDf =  0.00497    CDp =  0.01691

 Side 1  free  transition at x/c =  0.8048   64
 Side 2  free  transition at x/c =  0.7512   68

   8   rms: 0.8950E-01   max: 0.5769E+00   T at   68  2
       a = -3.000      CL = -0.0847
      Cm = -0.0450     CD =  0.02300   =>   CDf =  0.00502    CDp =  0.01798

 Side 1  free  transition at x/c =  0.8079   65
 Side 2  free  transition at x/c =  0.7366   66

   9   rms: 0.7423E-01   max: 0.4904E+00   T at   66  2
       a = -3.000      CL = -0.0244
      Cm = -0.0551     CD =  0.02300   =>   CDf =  0.00498    CDp =  0.01801

 Side 1  free  transition at x/c =  0.8111   65
 Side 2  free  transition at x/c =  0.7283   66

  10   rms: 0.7878E-01   max: -.4812E+00   T at   66  2
       a = -3.000      CL = -0.0868
      Cm = -0.0457     CD =  0.02377   =>   CDf =  0.00507    CDp =  0.01870

 Side 1  free  transition at x/c =  0.8079   65
 Side 2  free  transition at x/c =  0.7402   67
 idif Ue xi dudx           1  0.13972655      2.18772888E-03   63.868313    
 Uenew xinew           2  2.36785947E-03  3.70740891E-05

  11   rms: 0.4217E-01   max: -.2599E+00   T at   67  2
       a = -3.000      CL = -0.1229
      Cm = -0.0401     CD =  0.02233   =>   CDf =  0.00495    CDp =  0.01738

 Side 1  free  transition at x/c =  0.8063   64
 Side 2  free  transition at x/c =  0.7457   68

  12   rms: 0.5653E-01   max: 0.3446E+00   D at    2  2
       a = -3.000      CL = -0.1633
      Cm = -0.0339     CD =  0.02164   =>   CDf =  0.00497    CDp =  0.01666

 Side 1  free  transition at x/c =  0.8045   64
 Side 2  free  transition at x/c =  0.7530   68

  13   rms: 0.3872E-01   max: 0.2974E+00   T at   68  2
       a = -3.000      CL = -0.1313
      Cm = -0.0384     CD =  0.02198   =>   CDf =  0.00498    CDp =  0.01700

 Side 1  free  transition at x/c =  0.8060   64
 Side 2  free  transition at x/c =  0.7463   68

  14   rms: 0.4830E-01   max: -.2619E+00   T at   68  2
       a = -3.000      CL = -0.1645
      Cm = -0.0336     CD =  0.02167   =>   CDf =  0.00496    CDp =  0.01671

 Side 1  free  transition at x/c =  0.8044   64
 Side 2  free  transition at x/c =  0.7527   68

  15   rms: 0.4810E-01   max: 0.3322E+00   T at   68  2
       a = -3.000      CL = -0.1244
      Cm = -0.0394     CD =  0.02216   =>   CDf =  0.00498    CDp =  0.01718

 Side 1  free  transition at x/c =  0.8063   64
 Side 2  free  transition at x/c =  0.7446   68

  16   rms: 0.4149E-01   max: -.2231E+00   T at   68  2
       a = -3.000      CL = -0.1499
      Cm = -0.0358     CD =  0.02198   =>   CDf =  0.00496    CDp =  0.01701

 Side 1  free  transition at x/c =  0.8051   64
 Side 2  free  transition at x/c =  0.7502   68

  17   rms: 0.2228E+00   max: 0.1432E+01   T at   68  2   RLX: 0.847
       a = -3.000      CL = -0.0041
      Cm = -0.0563     CD =  0.02470   =>   CDf =  0.00502    CDp =  0.01968

 Side 1  free  transition at x/c =  0.8113   65
 Side 2  free  transition at x/c =  0.7234   66

  18   rms: 0.8718E-01   max: -.5459E+00   D at   66  2   RLX: 0.916
       a = -3.000      CL = -0.0597
      Cm = -0.0494     CD =  0.02505   =>   CDf =  0.00505    CDp =  0.02000

 Side 1  free  transition at x/c =  0.8089   65
 Side 2  free  transition at x/c =  0.7342   66

  19   rms: 0.9251E-01   max: 0.7677E+00   T at   66  2
       a = -3.000      CL =  0.0130
      Cm = -0.0605     CD =  0.02285   =>   CDf =  0.00501    CDp =  0.01784

 Side 1  free  transition at x/c =  0.8130   65
 Side 2  free  transition at x/c =  0.7208   66

  20   rms: 0.7227E-01   max: -.4356E+00   T at   66  2
       a = -3.000      CL = -0.0034
      Cm = -0.0593     CD =  0.02435   =>   CDf =  0.00512    CDp =  0.01923

 Side 1  free  transition at x/c =  0.8115   65
 Side 2  free  transition at x/c =  0.7262   66

  21   rms: 0.9480E-01   max: -.6095E+00   T at   66  2   RLX: 0.820
       a = -3.000      CL = -0.0687
      Cm = -0.0490     CD =  0.02364   =>   CDf =  0.00509    CDp =  0.01855

 Side 1  free  transition at x/c =  0.8087   65
 Side 2  free  transition at x/c =  0.7387   67

  22   rms: 0.7167E-01   max: -.4046E+00   T at   67  2
       a = -3.000      CL = -0.1112
      Cm = -0.0418     CD =  0.02226   =>   CDf =  0.00501    CDp =  0.01725

 Side 1  free  transition at x/c =  0.8069   65
 Side 2  free  transition at x/c =  0.7437   67
 idif Ue xi dudx           1  0.17399143      2.72715092E-03   63.799706    
 Uenew xinew           2  3.67802829E-02  5.76496124E-04

  23   rms: 0.6519E-01   max: -.3194E+00   T at   67  2
       a = -3.000      CL = -0.1606
      Cm = -0.0340     CD =  0.02208   =>   CDf =  0.00493    CDp =  0.01715

 Side 1  free  transition at x/c =  0.8045   64
 Side 2  free  transition at x/c =  0.7515   68

  24   rms: 0.6768E-01   max: 0.4297E+00   T at   68  2
       a = -3.000      CL = -0.1008
      Cm = -0.0429     CD =  0.02257   =>   CDf =  0.00501    CDp =  0.01756

 Side 1  free  transition at x/c =  0.8073   65
 Side 2  free  transition at x/c =  0.7400   67
 idif Ue xi dudx           1  0.14021131      2.19535828E-03   63.867168    
 Uenew xinew           2  2.85508484E-03  4.47034836E-05

  25   rms: 0.4763E-01   max: -.2637E+00   T at   67  2
       a = -3.000      CL = -0.1237
      Cm = -0.0397     CD =  0.02256   =>   CDf =  0.00493    CDp =  0.01763

 Side 1  free  transition at x/c =  0.8063   64
 Side 2  free  transition at x/c =  0.7451   68

  26   rms: 0.4732E-01   max: -.2708E+00   T at   68  2
       a = -3.000      CL = -0.1558
      Cm = -0.0351     CD =  0.02175   =>   CDf =  0.00497    CDp =  0.01677

 Side 1  free  transition at x/c =  0.8048   64
 Side 2  free  transition at x/c =  0.7519   68

  27   rms: 0.5190E-01   max: 0.3760E+00   T at   68  2
       a = -3.000      CL = -0.1142
      Cm = -0.0409     CD =  0.02237   =>   CDf =  0.00503    CDp =  0.01734

 Side 1  free  transition at x/c =  0.8068   65
 Side 2  free  transition at x/c =  0.7423   67
 idif Ue xi dudx           1  0.15175171      2.37774849E-03   63.821598    
 Uenew xinew           2  1.44934822E-02  2.27093697E-04

  28   rms: 0.4133E-01   max: -.2280E+00   T at   67  2
       a = -3.000      CL = -0.1363
      Cm = -0.0379     CD =  0.02226   =>   CDf =  0.00492    CDp =  0.01734

 Side 1  free  transition at x/c =  0.8057   64
 Side 2  free  transition at x/c =  0.7477   68

  29   rms: 0.7533E-01   max: -.4650E+00   T at   68  2
       a = -3.000      CL = -0.1927
      Cm = -0.0298     CD =  0.02096   =>   CDf =  0.00497    CDp =  0.01599

 Side 1  free  transition at x/c =  0.8032   64
 Side 2  free  transition at x/c =  0.7588   69

  30   rms: 0.3011E-01   max: 0.1864E+00   D at   73  2
       a = -3.000      CL = -0.1797
      Cm = -0.0317     CD =  0.02069   =>   CDf =  0.00500    CDp =  0.01568

 Side 1  free  transition at x/c =  0.8039   64
 Side 2  free  transition at x/c =  0.7562   69

  31   rms: 0.4034E-02   max: -.2579E-01   D at   69  2
       a = -3.000      CL = -0.1807
      Cm = -0.0316     CD =  0.02071   =>   CDf =  0.00500    CDp =  0.01571

 Side 1  free  transition at x/c =  0.8039   64
 Side 2  free  transition at x/c =  0.7564   69

  32   rms: 0.5280E-04   max: -.2894E-03   T at   69  2
       a = -3.000      CL = -0.1807
      Cm = -0.0316     CD =  0.02070   =>   CDf =  0.00500    CDp =  0.01569
 plradd ia,ip,cpol            3           0  7.84436986E-03

 Point added to stored polar  1
 Point written to save file  naca663218_Re300k.base.pol                      
 Dump file unspecified or not available
 Calculating wake trajectory ...
 Calculating source influence matrix ...

 Solving BL system ...

 Side 1  free  transition at x/c =  0.8039   64
 Side 2  free  transition at x/c =  0.7564   69

   1   rms: 0.1370E+00   max: 0.4625E+00   D at   75  2
       a = -2.500      CL = -0.0823
      Cm = -0.0362     CD =  0.02307   =>   CDf =  0.00505    CDp =  0.01802

 Side 1  free  transition at x/c =  0.8036   65
 Side 2  free  transition at x/c =  0.7534   67

   2   rms: 0.5936E-01   max: 0.3860E+00   T at   67  2
       a = -2.500      CL = -0.0241
      Cm = -0.0466     CD =  0.02324   =>   CDf =  0.00504    CDp =  0.01819

 Side 1  free  transition at x/c =  0.8055   65
 Side 2  free  transition at x/c =  0.7471   67

   3   rms: 0.1154E+00   max: -.7056E+00   T at   67  2   RLX: 0.709
       a = -2.500      CL = -0.1042
      Cm = -0.0331     CD =  0.02381   =>   CDf =  0.00507    CDp =  0.01874

 Side 1  free  transition at x/c =  0.8027   65
 Side 2  free  transition at x/c =  0.7599   68

   4   rms: 0.1291E-01   max: 0.9421E-01   D at   78  2
       a = -2.500      CL = -0.0940
      Cm = -0.0357     CD =  0.02239   =>   CDf =  0.00504    CDp =  0.01734

 Side 1  free  transition at x/c =  0.8029   65
 Side 2  free  transition at x/c =  0.7603   68

   5   rms: 0.5138E-03   max: 0.5319E-02   D at   75  2
       a = -2.500      CL = -0.0944
      Cm = -0.0356     CD =  0.02238   =>   CDf =  0.00506    CDp =  0.01732

 Side 1  free  transition at x/c =  0.8029   65
 Side 2  free  transition at x/c =  0.7603   68

   6   rms: 0.4119E-05   max: -.2164E-04   D at   87  2
       a = -2.500      CL = -0.0944
      Cm = -0.0356     CD =  0.02238   =>   CDf =  0.00506    CDp =  0.01732
 plradd ia,ip,cpol            4           0  1.00763924E-02

 Point added to stored polar  1
 Point written to save file  naca663218_Re300k.base.pol                      
 Dump file unspecified or not available
 Calculating wake trajectory ...
 Calculating source influence matrix ...

 Solving BL system ...

 Side 1  free  transition at x/c =  0.8029   65
 Side 2  free  transition at x/c =  0.7603   68

   1   rms: 0.9365E-01   max: -.1783E+00   T at   68  2
       a = -2.000      CL = -0.0186
      Cm = -0.0384     CD =  0.02345   =>   CDf =  0.00510    CDp =  0.01835

 Side 1  free  transition at x/c =  0.8018   66
 Side 2  free  transition at x/c =  0.7610   67

   2   rms: 0.2856E-01   max: -.1915E+00   D at   67  2
       a = -2.000      CL = -0.0334
      Cm = -0.0365     CD =  0.02329   =>   CDf =  0.00512    CDp =  0.01818

 Side 1  free  transition at x/c =  0.8012   66
 Side 2  free  transition at x/c =  0.7658   67

   3   rms: 0.4679E-01   max: -.3309E+00   T at   67  2
       a = -2.000      CL = -0.0707
      Cm = -0.0309     CD =  0.02254   =>   CDf =  0.00512    CDp =  0.01741

 Side 1  free  transition at x/c =  0.8001   66
 Side 2  free  transition at x/c =  0.7737   68

   4   rms: 0.8264E-02   max: 0.5074E-01   D at   68  2
       a = -2.000      CL = -0.0694
      Cm = -0.0312     CD =  0.02223   =>   CDf =  0.00515    CDp =  0.01707

 Side 1  free  transition at x/c =  0.8002   66
 Side 2  free  transition at x/c =  0.7735   68

   5   rms: 0.4880E-03   max: 0.3385E-02   T at   68  2
       a = -2.000      CL = -0.0690
      Cm = -0.0313     CD =  0.02225   =>   CDf =  0.00515    CDp =  0.01710

 Side 1  free  transition at x/c =  0.8002   66
 Side 2  free  transition at x/c =  0.7734   68

   6   rms: 0.8137E-05   max: -.2726E-04   D at   85  2
       a = -2.000      CL = -0.0690
      Cm = -0.0313     CD =  0.02225   =>   CDf =  0.00515    CDp =  0.01710
 plradd ia,ip,cpol            5           0  1.00763924E-02

 Point added to stored polar  1
 Point written to save file  naca663218_Re300k.base.pol                      
 Dump file unspecified or not available
 Calculating wake trajectory ...
 Calculating source influence matrix ...

 Solving BL system ...

 Side 1  free  transition at x/c =  0.8002   66
 Side 2  free  transition at x/c =  0.7734   68

   1   rms: 0.8485E-01   max: -.1343E+00   T at   68  2
       a = -1.500      CL = -0.0009
      Cm = -0.0332     CD =  0.02281   =>   CDf =  0.00515    CDp =  0.01765

 Side 1  free  transition at x/c =  0.7986   65
 Side 2  free  transition at x/c =  0.7749   68

   2   rms: 0.1322E-01   max: -.6669E-01   D at   68  2
       a = -1.500      CL = -0.0075
      Cm = -0.0322     CD =  0.02290   =>   CDf =  0.00520    CDp =  0.01770

 Side 1  free  transition at x/c =  0.7981   65
 Side 2  free  transition at x/c =  0.7759   68

   3   rms: 0.3534E-02   max: 0.1928E-01   T at   65  1
       a = -1.500      CL = -0.0102
      Cm = -0.0318     CD =  0.02301   =>   CDf =  0.00520    CDp =  0.01781

 Side 1  free  transition at x/c =  0.7978   65
 Side 2  free  transition at x/c =  0.7761   68

   4   rms: 0.8167E-03   max: -.4436E-02   D at   75  1
       a = -1.500      CL = -0.0099
      Cm = -0.0319     CD =  0.02299   =>   CDf =  0.00519    CDp =  0.01780

 Side 1  free  transition at x/c =  0.7979   65
 Side 2  free  transition at x/c =  0.7761   68

   5   rms: 0.1528E-03   max: 0.8054E-03   T at   65  1
       a = -1.500      CL = -0.0100
      Cm = -0.0318     CD =  0.02300   =>   CDf =  0.00519    CDp =  0.01781

 Side 1  free  transition at x/c =  0.7979   65
 Side 2  free  transition at x/c =  0.7761   68

   6   rms: 0.3327E-04   max: -.1755E-03   T at   65  1
       a = -1.500      CL = -0.0100
      Cm = -0.0318     CD =  0.02300   =>   CDf =  0.00519    CDp =  0.01781
 plradd ia,ip,cpol            6           0  0.50919282    

 Point added to stored polar  1
 Point written to save file  naca663218_Re300k.base.pol                      
 Dump file unspecified or not available
 Calculating wake trajectory ...
 Calculating source influence matrix ...

 Solving BL system ...

 Side 1  free  transition at x/c =  0.7979   65
 Side 2  free  transition at x/c =  0.7761   68

   1   rms: 0.2612E+00   max: -.1102E+01   D at   73  1   RLX: 0.454
       a = -1.000      CL =  0.0907
      Cm = -0.0441     CD =  0.02112   =>   CDf =  0.00522    CDp =  0.01590

 MRCHDU: Convergence failed at  69  side 1    Res =  0.9185E+00
 MRCHDU: Convergence failed at  70  side 1    Res =  0.7701E+01
 MRCHDU: Convergence failed at  71  side 1    Res =  0.3597E+01
 MRCHDU: Convergence failed at  72  side 1    Res =  0.2192E+01
 MRCHDU: Convergence failed at  73  side 1    Res =  0.2170E+01
 MRCHDU: Convergence failed at  74  side 1    Res =  0.2483E+01
 MRCHDU: Convergence failed at  75  side 1    Res =  0.2855E+01
 MRCHDU: Convergence failed at  76  side 1    Res =  0.2858E+01
 MRCHDU: Convergence failed at  77  side 1    Res =  0.3281E+01
 MRCHDU: Convergence failed at  78  side 1    Res =  0.3672E+01
 MRCHDU: Convergence failed at  79  side 1    Res =  0.3951E+01
 MRCHDU: Convergence failed at  80  side 1    Res =  0.6632E+01
 Side 1  free  transition at x/c =  0.8119   67
 Side 2  free  transition at x/c =  0.7752   67

   2   rms: 0.3500E+00   max: 0.2489E+01   D at   80  1   RLX: 0.603
       a = -1.000      CL =  0.0439
      Cm = -0.0437     CD =  0.01600   =>   CDf =  0.00526    CDp =  0.01074

 Side 1  free  transition at x/c =  0.8033   67
 Side 2  free  transition at x/c =  0.7789   67

   3   rms: 0.1660E+00   max: 0.8946E+00   D at   80  1
       a = -1.000      CL =  0.1622
      Cm = -0.0545     CD =  0.02054   =>   CDf =  0.00560    CDp =  0.01493

 Side 1  free  transition at x/c =  0.8026   68
 Side 2  free  transition at x/c =  0.7741   66
 idif Ue xi dudx           1  0.18394957      2.56967545E-03   71.584747    
 Uenew xinew           2  4.02016342E-02  5.61594963E-04

   4   rms: 0.7306E-01   max: 0.3240E+00   T at   68  1
       a = -1.000      CL =  0.0761
      Cm = -0.0377     CD =  0.02320   =>   CDf =  0.00526    CDp =  0.01794

 Side 1  free  transition at x/c =  0.7978   66
 Side 2  free  transition at x/c =  0.7775   67

   5   rms: 0.9102E-01   max: -.4949E+00   T at   66  1
       a = -1.000      CL =  0.1439
      Cm = -0.0492     CD =  0.02145   =>   CDf =  0.00525    CDp =  0.01620

 Side 1  free  transition at x/c =  0.8099   68
 Side 2  free  transition at x/c =  0.7758   66

   6   rms: 0.1095E+00   max: 0.1141E+01   D at   68  1
       a = -1.000      CL =  0.1197
      Cm = -0.0456     CD =  0.02180   =>   CDf =  0.00533    CDp =  0.01648

 Side 1  free  transition at x/c =  0.8029   68
 Side 2  free  transition at x/c =  0.7764   66
 idif Ue xi dudx           1  0.20066296      2.81548500E-03   71.271187    
 Uenew xinew           2  5.75446784E-02  8.07404518E-04

   7   rms: 0.6616E-01   max: 0.3801E+00   T at   68  1
       a = -1.000      CL =  0.0577
      Cm = -0.0341     CD =  0.02326   =>   CDf =  0.00527    CDp =  0.01799

 Side 1  free  transition at x/c =  0.7972   66
 Side 2  free  transition at x/c =  0.7791   67

   8   rms: 0.1365E+00   max: -.7408E+00   T at   66  1   RLX: 0.675
       a = -1.000      CL =  0.1364
      Cm = -0.0477     CD =  0.02165   =>   CDf =  0.00525    CDp =  0.01640

 Side 1  free  transition at x/c =  0.8093   68
 Side 2  free  transition at x/c =  0.7755   66
 idif Ue xi dudx           1  0.16796345      2.33566761E-03   71.912392    
 Uenew xinew           2  2.35575736E-02  3.27587128E-04

   9   rms: 0.1252E+00   max: 0.1125E+01   D at   69  1
       a = -1.000      CL =  0.0933
      Cm = -0.0404     CD =  0.02241   =>   CDf =  0.00532    CDp =  0.01708

 Side 1  free  transition at x/c =  0.8007   67
 Side 2  free  transition at x/c =  0.7772   67

  10   rms: 0.3709E-01   max: 0.2578E+00   T at   67  1
       a = -1.000      CL =  0.0609
      Cm = -0.0347     CD =  0.02317   =>   CDf =  0.00526    CDp =  0.01791

 Side 1  free  transition at x/c =  0.7975   66
 Side 2  free  transition at x/c =  0.7792   67

  11   rms: 0.1834E+00   max: -.1023E+01   T at   66  1   RLX: 0.489
       a = -1.000      CL =  0.1372
      Cm = -0.0478     CD =  0.02148   =>   CDf =  0.00526    CDp =  0.01621

 Side 1  free  transition at x/c =  0.8096   68
 Side 2  free  transition at x/c =  0.7755   66
 idif Ue xi dudx           1  0.15789714      2.18904018E-03   72.130768    
 Uenew xinew           2  1.30527625E-02  1.80959702E-04

  12   rms: 0.1209E+00   max: 0.1165E+01   D at   68  1
       a = -1.000      CL =  0.1043
      Cm = -0.0424     CD =  0.02208   =>   CDf =  0.00532    CDp =  0.01676

 Side 1  free  transition at x/c =  0.8019   67
 Side 2  free  transition at x/c =  0.7769   67

  13   rms: 0.5215E-01   max: 0.3284E+00   D at   68  1
       a = -1.000      CL =  0.0593
      Cm = -0.0344     CD =  0.02319   =>   CDf =  0.00527    CDp =  0.01792

 Side 1  free  transition at x/c =  0.7974   66
 Side 2  free  transition at x/c =  0.7791   67

  14   rms: 0.1522E+00   max: -.8366E+00   T at   66  1   RLX: 0.598
       a = -1.000      CL =  0.1370
      Cm = -0.0478     CD =  0.02159   =>   CDf =  0.00526    CDp =  0.01633

 Side 1  free  transition at x/c =  0.8096   68
 Side 2  free  transition at x/c =  0.7755   66
 idif Ue xi dudx           1  0.16149107      2.24137306E-03   72.050064    
 Uenew xinew           2  1.68087445E-02  2.33292580E-04

  15   rms: 0.1221E+00   max: 0.1140E+01   D at   68  1
       a = -1.000      CL =  0.1004
      Cm = -0.0417     CD =  0.02220   =>   CDf =  0.00532    CDp =  0.01688

 Side 1  free  transition at x/c =  0.8015   67
 Side 2  free  transition at x/c =  0.7770   67

  16   rms: 0.4609E-01   max: 0.3019E+00   T at   67  1
       a = -1.000      CL =  0.0603
      Cm = -0.0346     CD =  0.02317   =>   CDf =  0.00527    CDp =  0.01791

 Side 1  free  transition at x/c =  0.7975   66
 Side 2  free  transition at x/c =  0.7791   67

  17   rms: 0.1588E+00   max: -.8783E+00   T at   66  1   RLX: 0.569
       a = -1.000      CL =  0.1374
      Cm = -0.0479     CD =  0.02154   =>   CDf =  0.00526    CDp =  0.01628

 Side 1  free  transition at x/c =  0.8096   68
 Side 2  free  transition at x/c =  0.7755   66
 idif Ue xi dudx           1  0.15965533      2.21467018E-03   72.089890    
 Uenew xinew           2  1.48930289E-02  2.06589699E-04

  18   rms: 0.1214E+00   max: 0.1149E+01   D at   68  1
       a = -1.000      CL =  0.1024
      Cm = -0.0421     CD =  0.02214   =>   CDf =  0.00532    CDp =  0.01682

 Side 1  free  transition at x/c =  0.8017   67
 Side 2  free  transition at x/c =  0.7769   67

  19   rms: 0.4896E-01   max: 0.3142E+00   T at   67  1
       a = -1.000      CL =  0.0598
      Cm = -0.0345     CD =  0.02318   =>   CDf =  0.00527    CDp =  0.01791

 Side 1  free  transition at x/c =  0.7974   66
 Side 2  free  transition at x/c =  0.7791   67

  20   rms: 0.1551E+00   max: -.8554E+00   T at   66  1   RLX: 0.585
       a = -1.000      CL =  0.1373
      Cm = -0.0478     CD =  0.02158   =>   CDf =  0.00526    CDp =  0.01632

 Side 1  free  transition at x/c =  0.8096   68
 Side 2  free  transition at x/c =  0.7755   66
 idif Ue xi dudx           1  0.16046166      2.22635269E-03   72.073784    
 Uenew xinew           2  1.57317035E-02  2.18272209E-04

  21   rms: 0.1217E+00   max: 0.1145E+01   D at   68  1
       a = -1.000      CL =  0.1015
      Cm = -0.0419     CD =  0.02217   =>   CDf =  0.00532    CDp =  0.01685

 Side 1  free  transition at x/c =  0.8016   67
 Side 2  free  transition at x/c =  0.7770   67

  22   rms: 0.4767E-01   max: 0.3087E+00   T at   67  1
       a = -1.000      CL =  0.0600
      Cm = -0.0345     CD =  0.02318   =>   CDf =  0.00527    CDp =  0.01791

 Side 1  free  transition at x/c =  0.7975   66
 Side 2  free  transition at x/c =  0.7791   67

  23   rms: 0.1565E+00   max: -.8643E+00   T at   66  1   RLX: 0.579
       a = -1.000      CL =  0.1373
      Cm = -0.0478     CD =  0.02155   =>   CDf =  0.00526    CDp =  0.01629

 Side 1  free  transition at x/c =  0.8096   68
 Side 2  free  transition at x/c =  0.7755   66
 idif Ue xi dudx           1  0.16011046      2.22122669E-03   72.082001    
 Uenew xinew           2  1.53640052E-02  2.13146210E-04

  24   rms: 0.1216E+00   max: 0.1147E+01   D at   68  1
       a = -1.000      CL =  0.1019
      Cm = -0.0420     CD =  0.02216   =>   CDf =  0.00532    CDp =  0.01683

 Side 1  free  transition at x/c =  0.8016   67
 Side 2  free  transition at x/c =  0.7770   67

  25   rms: 0.4824E-01   max: 0.3112E+00   T at   67  1
       a = -1.000      CL =  0.0600
      Cm = -0.0345     CD =  0.02318   =>   CDf =  0.00527    CDp =  0.01791

 Side 1  free  transition at x/c =  0.7975   66
 Side 2  free  transition at x/c =  0.7791   67

  26   rms: 0.1557E+00   max: -.8593E+00   T at   66  1   RLX: 0.582
       a = -1.000      CL =  0.1373
      Cm = -0.0478     CD =  0.02155   =>   CDf =  0.00526    CDp =  0.01630

 Side 1  free  transition at x/c =  0.8096   68
 Side 2  free  transition at x/c =  0.7755   66
 idif Ue xi dudx           1  0.16028519      2.22384930E-03   72.075562    
 Uenew xinew           2  1.55516583E-02  2.15768814E-04

  27   rms: 0.1216E+00   max: 0.1146E+01   D at   68  1
       a = -1.000      CL =  0.1017
      Cm = -0.0420     CD =  0.02216   =>   CDf =  0.00532    CDp =  0.01684

 Side 1  free  transition at x/c =  0.8016   67
 Side 2  free  transition at x/c =  0.7770   67

  28   rms: 0.4796E-01   max: 0.3100E+00   T at   67  1
       a = -1.000      CL =  0.0600
      Cm = -0.0345     CD =  0.02318   =>   CDf =  0.00527    CDp =  0.01791

 Side 1  free  transition at x/c =  0.7975   66
 Side 2  free  transition at x/c =  0.7791   67

  29   rms: 0.1561E+00   max: -.8616E+00   T at   66  1   RLX: 0.580
       a = -1.000      CL =  0.1373
      Cm = -0.0478     CD =  0.02155   =>   CDf =  0.00526    CDp =  0.01629

 Side 1  free  transition at x/c =  0.8096   68
 Side 2  free  transition at x/c =  0.7755   66
 idif Ue xi dudx           1  0.16018663      2.22241879E-03   72.077606    
 Uenew xinew           2  1.54489921E-02  2.14338303E-04

  30   rms: 0.1216E+00   max: 0.1146E+01   D at   68  1
       a = -1.000      CL =  0.1018
      Cm = -0.0420     CD =  0.02216   =>   CDf =  0.00532    CDp =  0.01684

 Side 1  free  transition at x/c =  0.8016   67
 Side 2  free  transition at x/c =  0.7770   67

  31   rms: 0.4811E-01   max: 0.3107E+00   T at   67  1
       a = -1.000      CL =  0.0600
      Cm = -0.0345     CD =  0.02318   =>   CDf =  0.00527    CDp =  0.01791

 Side 1  free  transition at x/c =  0.7975   66
 Side 2  free  transition at x/c =  0.7791   67

  32   rms: 0.1559E+00   max: -.8603E+00   T at   66  1   RLX: 0.581
       a = -1.000      CL =  0.1373
      Cm = -0.0478     CD =  0.02155   =>   CDf =  0.00526    CDp =  0.01629

 Side 1  free  transition at x/c =  0.8096   68
 Side 2  free  transition at x/c =  0.7755   66
 idif Ue xi dudx           1  0.16023335      2.22301483E-03   72.079300    
 Uenew xinew           2  1.54923173E-02  2.14934349E-04

  33   rms: 0.1216E+00   max: 0.1146E+01   D at   68  1
       a = -1.000      CL =  0.1017
      Cm = -0.0420     CD =  0.02216   =>   CDf =  0.00532    CDp =  0.01684

 Side 1  free  transition at x/c =  0.8016   67
 Side 2  free  transition at x/c =  0.7770   67

  34   rms: 0.4804E-01   max: 0.3103E+00   T at   67  1
       a = -1.000      CL =  0.0600
      Cm = -0.0345     CD =  0.02318   =>   CDf =  0.00527    CDp =  0.01791

 Side 1  free  transition at x/c =  0.7975   66
 Side 2  free  transition at x/c =  0.7791   67

  35   rms: 0.1559E+00   max: -.8609E+00   T at   66  1   RLX: 0.581
       a = -1.000      CL =  0.1373
      Cm = -0.0478     CD =  0.02155   =>   CDf =  0.00526    CDp =  0.01629

 Side 1  free  transition at x/c =  0.8096   68
 Side 2  free  transition at x/c =  0.7755   66
 idif Ue xi dudx           1  0.16022047      2.22289562E-03   72.077370    
 Uenew xinew           2  1.54833104E-02  2.14815140E-04

  36   rms: 0.1216E+00   max: 0.1146E+01   D at   68  1
       a = -1.000      CL =  0.1017
      Cm = -0.0420     CD =  0.02216   =>   CDf =  0.00532    CDp =  0.01684

 Side 1  free  transition at x/c =  0.8016   67
 Side 2  free  transition at x/c =  0.7770   67

  37   rms: 0.4806E-01   max: 0.3104E+00   T at   67  1
       a = -1.000      CL =  0.0600
      Cm = -0.0345     CD =  0.02318   =>   CDf =  0.00527    CDp =  0.01791

 Side 1  free  transition at x/c =  0.7975   66
 Side 2  free  transition at x/c =  0.7791   67

  38   rms: 0.1559E+00   max: -.8607E+00   T at   66  1   RLX: 0.581
       a = -1.000      CL =  0.1373
      Cm = -0.0478     CD =  0.02155   =>   CDf =  0.00526    CDp =  0.01629

 Side 1  free  transition at x/c =  0.8096   68
 Side 2  free  transition at x/c =  0.7755   66
 idif Ue xi dudx           1  0.16022648      2.22301483E-03   72.076210    
 Uenew xinew           2  1.54916532E-02  2.14934349E-04

  39   rms: 0.1216E+00   max: 0.1146E+01   D at   68  1
       a = -1.000      CL =  0.1017
      Cm = -0.0420     CD =  0.02216   =>   CDf =  0.00532    CDp =  0.01684

 Side 1  free  transition at x/c =  0.8016   67
 Side 2  free  transition at x/c =  0.7770   67

  40   rms: 0.4805E-01   max: 0.3104E+00   T at   67  1
       a = -1.000      CL =  0.0600
      Cm = -0.0345     CD =  0.02318   =>   CDf =  0.00527    CDp =  0.01791

 Side 1  free  transition at x/c =  0.7975   66
 Side 2  free  transition at x/c =  0.7791   67

  41   rms: 0.1559E+00   max: -.8608E+00   T at   66  1   RLX: 0.581
       a = -1.000      CL =  0.1373
      Cm = -0.0478     CD =  0.02155   =>   CDf =  0.00526    CDp =  0.01629

 Side 1  free  transition at x/c =  0.8096   68
 Side 2  free  transition at x/c =  0.7755   66
 idif Ue xi dudx           1  0.16022792      2.22301483E-03   72.076859    
 Uenew xinew           2  1.54917929E-02  2.14934349E-04

  42   rms: 0.1216E+00   max: 0.1146E+01   D at   68  1
       a = -1.000      CL =  0.1017
      Cm = -0.0420     CD =  0.02216   =>   CDf =  0.00532    CDp =  0.01684

 Side 1  free  transition at x/c =  0.8016   67
 Side 2  free  transition at x/c =  0.7770   67

  43   rms: 0.4805E-01   max: 0.3104E+00   T at   67  1
       a = -1.000      CL =  0.0600
      Cm = -0.0345     CD =  0.02318   =>   CDf =  0.00527    CDp =  0.01791

 Side 1  free  transition at x/c =  0.7975   66
 Side 2  free  transition at x/c =  0.7791   67

  44   rms: 0.1560E+00   max: -.8609E+00   T at   66  1   RLX: 0.581
       a = -1.000      CL =  0.1373
      Cm = -0.0478     CD =  0.02155   =>   CDf =  0.00526    CDp =  0.01629

 Side 1  free  transition at x/c =  0.8096   68
 Side 2  free  transition at x/c =  0.7755   66
 idif Ue xi dudx           1  0.16022137      2.22289562E-03   72.077774    
 Uenew xinew           2  1.54833971E-02  2.14815140E-04

  45   rms: 0.1216E+00   max: 0.1146E+01   D at   68  1
       a = -1.000      CL =  0.1017
      Cm = -0.0420     CD =  0.02216   =>   CDf =  0.00532    CDp =  0.01684

 Side 1  free  transition at x/c =  0.8016   67
 Side 2  free  transition at x/c =  0.7770   67

  46   rms: 0.4806E-01   max: 0.3104E+00   T at   67  1
       a = -1.000      CL =  0.0600
      Cm = -0.0345     CD =  0.02318   =>   CDf =  0.00527    CDp =  0.01791

 Side 1  free  transition at x/c =  0.7975   66
 Side 2  free  transition at x/c =  0.7791   67

  47   rms: 0.1560E+00   max: -.8609E+00   T at   66  1   RLX: 0.581
       a = -1.000      CL =  0.1373
      Cm = -0.0478     CD =  0.02155   =>   CDf =  0.00526    CDp =  0.01629

 Side 1  free  transition at x/c =  0.8096   68
 Side 2  free  transition at x/c =  0.7755   66
 idif Ue xi dudx           1  0.16022153      2.22289562E-03   72.077850    
 Uenew xinew           2  1.54834138E-02  2.14815140E-04

  48   rms: 0.1216E+00   max: 0.1146E+01   D at   68  1
       a = -1.000      CL =  0.1017
      Cm = -0.0420     CD =  0.02216   =>   CDf =  0.00532    CDp =  0.01684

 Side 1  free  transition at x/c =  0.8016   67
 Side 2  free  transition at x/c =  0.7770   67

  49   rms: 0.4806E-01   max: 0.3104E+00   T at   67  1
       a = -1.000      CL =  0.0600
      Cm = -0.0345     CD =  0.02318   =>   CDf =  0.00527    CDp =  0.01791

 Side 1  free  transition at x/c =  0.7975   66
 Side 2  free  transition at x/c =  0.7791   67

  50   rms: 0.1560E+00   max: -.8609E+00   T at   66  1   RLX: 0.581
       a = -1.000      CL =  0.1373
      Cm = -0.0478     CD =  0.02155   =>   CDf =  0.00526    CDp =  0.01629

 Side 1  free  transition at x/c =  0.8096   68
 Side 2  free  transition at x/c =  0.7755   66
 idif Ue xi dudx           1  0.16022146      2.22289562E-03   72.077812    
 Uenew xinew           2  1.54834054E-02  2.14815140E-04

  51   rms: 0.1216E+00   max: 0.1146E+01   D at   68  1
       a = -1.000      CL =  0.1017
      Cm = -0.0420     CD =  0.02216   =>   CDf =  0.00532    CDp =  0.01684

 Side 1  free  transition at x/c =  0.8016   67
 Side 2  free  transition at x/c =  0.7770   67

  52   rms: 0.4806E-01   max: 0.3104E+00   T at   67  1
       a = -1.000      CL =  0.0600
      Cm = -0.0345     CD =  0.02318   =>   CDf =  0.00527    CDp =  0.01791

 Side 1  free  transition at x/c =  0.7975   66
 Side 2  free  transition at x/c =  0.7791   67

  53   rms: 0.1559E+00   max: -.8608E+00   T at   66  1   RLX: 0.581
       a = -1.000      CL =  0.1373
      Cm = -0.0478     CD =  0.02155   =>   CDf =  0.00526    CDp =  0.01629

 Side 1  free  transition at x/c =  0.8096   68
 Side 2  free  transition at x/c =  0.7755   66
 idif Ue xi dudx           1  0.16021541      2.22277641E-03   72.078957    
 Uenew xinew           2  1.54750589E-02  2.14695930E-04

  54   rms: 0.1216E+00   max: 0.1146E+01   D at   68  1
       a = -1.000      CL =  0.1018
      Cm = -0.0420     CD =  0.02216   =>   CDf =  0.00532    CDp =  0.01684

 Side 1  free  transition at x/c =  0.8016   67
 Side 2  free  transition at x/c =  0.7770   67

  55   rms: 0.4807E-01   max: 0.3105E+00   T at   67  1
       a = -1.000      CL =  0.0600
      Cm = -0.0345     CD =  0.02318   =>   CDf =  0.00527    CDp =  0.01791

 Side 1  free  transition at x/c =  0.7975   66
 Side 2  free  transition at x/c =  0.7791   67

  56   rms: 0.1559E+00   max: -.8607E+00   T at   66  1   RLX: 0.581
       a = -1.000      CL =  0.1373
      Cm = -0.0478     CD =  0.02155   =>   CDf =  0.00526    CDp =  0.01629

 Side 1  free  transition at x/c =  0.8096   68
 Side 2  free  transition at x/c =  0.7755   66
 idif Ue xi dudx           1  0.16022564      2.22289562E-03   72.079697    
 Uenew xinew           2  1.54838106E-02  2.14815140E-04

  57   rms: 0.1216E+00   max: 0.1146E+01   D at   68  1
       a = -1.000      CL =  0.1017
      Cm = -0.0420     CD =  0.02216   =>   CDf =  0.00532    CDp =  0.01684

 Side 1  free  transition at x/c =  0.8016   67
 Side 2  free  transition at x/c =  0.7770   67

  58   rms: 0.4805E-01   max: 0.3104E+00   T at   67  1
       a = -1.000      CL =  0.0600
      Cm = -0.0345     CD =  0.02318   =>   CDf =  0.00527    CDp =  0.01791

 Side 1  free  transition at x/c =  0.7975   66
 Side 2  free  transition at x/c =  0.7791   67

  59   rms: 0.1560E+00   max: -.8609E+00   T at   66  1   RLX: 0.581
       a = -1.000      CL =  0.1373
      Cm = -0.0478     CD =  0.02155   =>   CDf =  0.00526    CDp =  0.01629

 Side 1  free  transition at x/c =  0.8096   68
 Side 2  free  transition at x/c =  0.7755   66
 idif Ue xi dudx           1  0.16023059      2.22301483E-03   72.078056    
 Uenew xinew           2  1.54920500E-02  2.14934349E-04

  60   rms: 0.1216E+00   max: 0.1146E+01   D at   68  1
       a = -1.000      CL =  0.1017
      Cm = -0.0420     CD =  0.02216   =>   CDf =  0.00532    CDp =  0.01684

 Side 1  free  transition at x/c =  0.8016   67
 Side 2  free  transition at x/c =  0.7770   67

  61   rms: 0.4805E-01   max: 0.3104E+00   T at   67  1
       a = -1.000      CL =  0.0600
      Cm = -0.0345     CD =  0.02318   =>   CDf =  0.00527    CDp =  0.01791

 Side 1  free  transition at x/c =  0.7975   66
 Side 2  free  transition at x/c =  0.7791   67

  62   rms: 0.1559E+00   max: -.8608E+00   T at   66  1   RLX: 0.581
       a = -1.000      CL =  0.1373
      Cm = -0.0478     CD =  0.02155   =>   CDf =  0.00526    CDp =  0.01629

 Side 1  free  transition at x/c =  0.8096   68
 Side 2  free  transition at x/c =  0.7755   66
 idif Ue xi dudx           1  0.16022494      2.22289562E-03   72.079384    
 Uenew xinew           2  1.54837426E-02  2.14815140E-04

  63   rms: 0.1216E+00   max: 0.1146E+01   D at   68  1
       a = -1.000      CL =  0.1017
      Cm = -0.0420     CD =  0.02216   =>   CDf =  0.00532    CDp =  0.01684

 Side 1  free  transition at x/c =  0.8016   67
 Side 2  free  transition at x/c =  0.7770   67

  64   rms: 0.4806E-01   max: 0.3104E+00   T at   67  1
       a = -1.000      CL =  0.0600
      Cm = -0.0345     CD =  0.02318   =>   CDf =  0.00527    CDp =  0.01791

 Side 1  free  transition at x/c =  0.7975   66
 Side 2  free  transition at x/c =  0.7791   67

  65   rms: 0.1559E+00   max: -.8608E+00   T at   66  1   RLX: 0.581
       a = -1.000      CL =  0.1373
      Cm = -0.0478     CD =  0.02155   =>   CDf =  0.00526    CDp =  0.01629

 Side 1  free  transition at x/c =  0.8096   68
 Side 2  free  transition at x/c =  0.7755   66
 idif Ue xi dudx           1  0.16022025      2.22289562E-03   72.077271    
 Uenew xinew           2  1.54832890E-02  2.14815140E-04

  66   rms: 0.1216E+00   max: 0.1146E+01   D at   68  1
       a = -1.000      CL =  0.1017
      Cm = -0.0420     CD =  0.02216   =>   CDf =  0.00532    CDp =  0.01684

 Side 1  free  transition at x/c =  0.8016   67
 Side 2  free  transition at x/c =  0.7770   67

  67   rms: 0.4806E-01   max: 0.3104E+00   T at   67  1
       a = -1.000      CL =  0.0600
      Cm = -0.0345     CD =  0.02318   =>   CDf =  0.00527    CDp =  0.01791

 Side 1  free  transition at x/c =  0.7975   66
 Side 2  free  transition at x/c =  0.7791   67

  68   rms: 0.1559E+00   max: -.8608E+00   T at   66  1   RLX: 0.581
       a = -1.000      CL =  0.1373
      Cm = -0.0478     CD =  0.02155   =>   CDf =  0.00526    CDp =  0.01629

 Side 1  free  transition at x/c =  0.8096   68
 Side 2  free  transition at x/c =  0.7755   66
 idif Ue xi dudx           1  0.16022626      2.22301483E-03   72.076111    
 Uenew xinew           2  1.54916318E-02  2.14934349E-04

  69   rms: 0.1216E+00   max: 0.1146E+01   D at   68  1
       a = -1.000      CL =  0.1017
      Cm = -0.0420     CD =  0.02216   =>   CDf =  0.00532    CDp =  0.01684

 Side 1  free  transition at x/c =  0.8016   67
 Side 2  free  transition at x/c =  0.7770   67

  70   rms: 0.4805E-01   max: 0.3104E+00   T at   67  1
       a = -1.000      CL =  0.0600
      Cm = -0.0345     CD =  0.02318   =>   CDf =  0.00527    CDp =  0.01791

 Side 1  free  transition at x/c =  0.7975   66
 Side 2  free  transition at x/c =  0.7791   67

  71   rms: 0.1560E+00   max: -.8609E+00   T at   66  1   RLX: 0.581
       a = -1.000      CL =  0.1373
      Cm = -0.0478     CD =  0.02155   =>   CDf =  0.00526    CDp =  0.01629

 Side 1  free  transition at x/c =  0.8096   68
 Side 2  free  transition at x/c =  0.7755   66
 idif Ue xi dudx           1  0.16022925      2.22301483E-03   72.077454    
 Uenew xinew           2  1.54919205E-02  2.14934349E-04

  72   rms: 0.1216E+00   max: 0.1146E+01   D at   68  1
       a = -1.000      CL =  0.1017
      Cm = -0.0420     CD =  0.02216   =>   CDf =  0.00532    CDp =  0.01684

 Side 1  free  transition at x/c =  0.8016   67
 Side 2  free  transition at x/c =  0.7770   67

  73   rms: 0.4805E-01   max: 0.3104E+00   T at   67  1
       a = -1.000      CL =  0.0600
      Cm = -0.0345     CD =  0.02318   =>   CDf =  0.00527    CDp =  0.01791

 Side 1  free  transition at x/c =  0.7975   66
 Side 2  free  transition at x/c =  0.7791   67

  74   rms: 0.1560E+00   max: -.8609E+00   T at   66  1   RLX: 0.581
       a = -1.000      CL =  0.1373
      Cm = -0.0478     CD =  0.02155   =>   CDf =  0.00526    CDp =  0.01629

 Side 1  free  transition at x/c =  0.8096   68
 Side 2  free  transition at x/c =  0.7755   66
 idif Ue xi dudx           1  0.16021825      2.22289562E-03   72.076370    
 Uenew xinew           2  1.54830953E-02  2.14815140E-04

  75   rms: 0.1216E+00   max: 0.1146E+01   D at   68  1
       a = -1.000      CL =  0.1018
      Cm = -0.0420     CD =  0.02216   =>   CDf =  0.00532    CDp =  0.01684

 Side 1  free  transition at x/c =  0.8016   67
 Side 2  free  transition at x/c =  0.7770   67

  76   rms: 0.4806E-01   max: 0.3105E+00   T at   67  1
       a = -1.000      CL =  0.0600
      Cm = -0.0345     CD =  0.02318   =>   CDf =  0.00527    CDp =  0.01791

 Side 1  free  transition at x/c =  0.7975   66
 Side 2  free  transition at x/c =  0.7791   67

  77   rms: 0.1559E+00   max: -.8608E+00   T at   66  1   RLX: 0.581
       a = -1.000      CL =  0.1373
      Cm = -0.0478     CD =  0.02155   =>   CDf =  0.00526    CDp =  0.01629

 Side 1  free  transition at x/c =  0.8096   68
 Side 2  free  transition at x/c =  0.7755   66
 idif Ue xi dudx           1  0.16022462      2.22289562E-03   72.079239    
 Uenew xinew           2  1.54837118E-02  2.14815140E-04

  78   rms: 0.1216E+00   max: 0.1146E+01   D at   68  1
       a = -1.000      CL =  0.1017
      Cm = -0.0420     CD =  0.02216   =>   CDf =  0.00532    CDp =  0.01684

 Side 1  free  transition at x/c =  0.8016   67
 Side 2  free  transition at x/c =  0.7770   67

  79   rms: 0.4806E-01   max: 0.3104E+00   T at   67  1
       a = -1.000      CL =  0.0600
      Cm = -0.0345     CD =  0.02318   =>   CDf =  0.00527    CDp =  0.01791

 Side 1  free  transition at x/c =  0.7975   66
 Side 2  free  transition at x/c =  0.7791   67

  80   rms: 0.1559E+00   max: -.8608E+00   T at   66  1   RLX: 0.581
       a = -1.000      CL =  0.1373
      Cm = -0.0478     CD =  0.02155   =>   CDf =  0.00526    CDp =  0.01629

 Side 1  free  transition at x/c =  0.8096   68
 Side 2  free  transition at x/c =  0.7755   66
 idif Ue xi dudx           1  0.16022637      2.22301483E-03   72.076164    
 Uenew xinew           2  1.54916430E-02  2.14934349E-04

  81   rms: 0.1216E+00   max: 0.1146E+01   D at   68  1
       a = -1.000      CL =  0.1017
      Cm = -0.0420     CD =  0.02216   =>   CDf =  0.00532    CDp =  0.01684

 Side 1  free  transition at x/c =  0.8016   67
 Side 2  free  transition at x/c =  0.7770   67

  82   rms: 0.4805E-01   max: 0.3104E+00   T at   67  1
       a = -1.000      CL =  0.0600
      Cm = -0.0345     CD =  0.02318   =>   CDf =  0.00527    CDp =  0.01791

 Side 1  free  transition at x/c =  0.7975   66
 Side 2  free  transition at x/c =  0.7791   67

  83   rms: 0.1559E+00   max: -.8608E+00   T at   66  1   RLX: 0.581
       a = -1.000      CL =  0.1373
      Cm = -0.0478     CD =  0.02155   =>   CDf =  0.00526    CDp =  0.01629

 Side 1  free  transition at x/c =  0.8096   68
 Side 2  free  transition at x/c =  0.7755   66
 idif Ue xi dudx           1  0.16021942      2.22289562E-03   72.076897    
 Uenew xinew           2  1.54832089E-02  2.14815140E-04

  84   rms: 0.1216E+00   max: 0.1146E+01   D at   68  1
       a = -1.000      CL =  0.1017
      Cm = -0.0420     CD =  0.02216   =>   CDf =  0.00532    CDp =  0.01684

 Side 1  free  transition at x/c =  0.8016   67
 Side 2  free  transition at x/c =  0.7770   67

  85   rms: 0.4806E-01   max: 0.3104E+00   T at   67  1
       a = -1.000      CL =  0.0600
      Cm = -0.0345     CD =  0.02318   =>   CDf =  0.00527    CDp =  0.01791

 Side 1  free  transition at x/c =  0.7975   66
 Side 2  free  transition at x/c =  0.7791   67

  86   rms: 0.1559E+00   max: -.8608E+00   T at   66  1   RLX: 0.581
       a = -1.000      CL =  0.1373
      Cm = -0.0478     CD =  0.02155   =>   CDf =  0.00526    CDp =  0.01629

 Side 1  free  transition at x/c =  0.8096   68
 Side 2  free  transition at x/c =  0.7755   66
 idif Ue xi dudx           1  0.16021989      2.22289562E-03   72.077110    
 Uenew xinew           2  1.54832546E-02  2.14815140E-04

  87   rms: 0.1216E+00   max: 0.1146E+01   D at   68  1
       a = -1.000      CL =  0.1017
      Cm = -0.0420     CD =  0.02216   =>   CDf =  0.00532    CDp =  0.01684

 Side 1  free  transition at x/c =  0.8016   67
 Side 2  free  transition at x/c =  0.7770   67

  88   rms: 0.4806E-01   max: 0.3104E+00   T at   67  1
       a = -1.000      CL =  0.0600
      Cm = -0.0345     CD =  0.02318   =>   CDf =  0.00527    CDp =  0.01791

 Side 1  free  transition at x/c =  0.7975   66
 Side 2  free  transition at x/c =  0.7791   67

  89   rms: 0.1559E+00   max: -.8608E+00   T at   66  1   RLX: 0.581
       a = -1.000      CL =  0.1373
      Cm = -0.0478     CD =  0.02155   =>   CDf =  0.00526    CDp =  0.01629

 Side 1  free  transition at x/c =  0.8096   68
 Side 2  free  transition at x/c =  0.7755   66
 idif Ue xi dudx           1  0.16022304      2.22289562E-03   72.078522    
 Uenew xinew           2  1.54835582E-02  2.14815140E-04

  90   rms: 0.1216E+00   max: 0.1146E+01   D at   68  1
       a = -1.000      CL =  0.1017
      Cm = -0.0420     CD =  0.02216   =>   CDf =  0.00532    CDp =  0.01684

 Side 1  free  transition at x/c =  0.8016   67
 Side 2  free  transition at x/c =  0.7770   67

  91   rms: 0.4806E-01   max: 0.3104E+00   T at   67  1
       a = -1.000      CL =  0.0600
      Cm = -0.0345     CD =  0.02318   =>   CDf =  0.00527    CDp =  0.01791

 Side 1  free  transition at x/c =  0.7975   66
 Side 2  free  transition at x/c =  0.7791   67

  92   rms: 0.1560E+00   max: -.8609E+00   T at   66  1   RLX: 0.581
       a = -1.000      CL =  0.1373
      Cm = -0.0478     CD =  0.02155   =>   CDf =  0.00526    CDp =  0.01629

 Side 1  free  transition at x/c =  0.8096   68
 Side 2  free  transition at x/c =  0.7755   66
 idif Ue xi dudx           1  0.16022862      2.22301483E-03   72.077171    
 Uenew xinew           2  1.54918600E-02  2.14934349E-04

  93   rms: 0.1216E+00   max: 0.1146E+01   D at   68  1
       a = -1.000      CL =  0.1017
      Cm = -0.0420     CD =  0.02216   =>   CDf =  0.00532    CDp =  0.01684

 Side 1  free  transition at x/c =  0.8016   67
 Side 2  free  transition at x/c =  0.7770   67

  94   rms: 0.4805E-01   max: 0.3104E+00   T at   67  1
       a = -1.000      CL =  0.0600
      Cm = -0.0345     CD =  0.02318   =>   CDf =  0.00527    CDp =  0.01791

 Side 1  free  transition at x/c =  0.7975   66
 Side 2  free  transition at x/c =  0.7791   67

  95   rms: 0.1560E+00   max: -.8609E+00   T at   66  1   RLX: 0.581
       a = -1.000      CL =  0.1373
      Cm = -0.0478     CD =  0.02155   =>   CDf =  0.00526    CDp =  0.01629

 Side 1  free  transition at x/c =  0.8096   68
 Side 2  free  transition at x/c =  0.7755   66
 idif Ue xi dudx           1  0.16021974      2.22289562E-03   72.077042    
 Uenew xinew           2  1.54832397E-02  2.14815140E-04

  96   rms: 0.1216E+00   max: 0.1146E+01   D at   68  1
       a = -1.000      CL =  0.1017
      Cm = -0.0420     CD =  0.02216   =>   CDf =  0.00532    CDp =  0.01684

 Side 1  free  transition at x/c =  0.8016   67
 Side 2  free  transition at x/c =  0.7770   67

  97   rms: 0.4806E-01   max: 0.3105E+00   T at   67  1
       a = -1.000      CL =  0.0600
      Cm = -0.0345     CD =  0.02318   =>   CDf =  0.00527    CDp =  0.01791

 Side 1  free  transition at x/c =  0.7975   66
 Side 2  free  transition at x/c =  0.7791   67

  98   rms: 0.1559E+00   max: -.8608E+00   T at   66  1   RLX: 0.581
       a = -1.000      CL =  0.1373
      Cm = -0.0478     CD =  0.02155   =>   CDf =  0.00526    CDp =  0.01629

 Side 1  free  transition at x/c =  0.8096   68
 Side 2  free  transition at x/c =  0.7755   66
 idif Ue xi dudx           1  0.16022392      2.22289562E-03   72.078918    
 Uenew xinew           2  1.54836429E-02  2.14815140E-04

  99   rms: 0.1216E+00   max: 0.1146E+01   D at   68  1
       a = -1.000      CL =  0.1017
      Cm = -0.0420     CD =  0.02216   =>   CDf =  0.00532    CDp =  0.01684

 Side 1  free  transition at x/c =  0.8016   67
 Side 2  free  transition at x/c =  0.7770   67

 100   rms: 0.4806E-01   max: 0.3104E+00   T at   67  1
       a = -1.000      CL =  0.0600
      Cm = -0.0345     CD =  0.02318   =>   CDf =  0.00527    CDp =  0.01791

 Side 1  free  transition at x/c =  0.7975   66
 Side 2  free  transition at x/c =  0.7791   67

 101   rms: 0.1560E+00   max: -.8608E+00   T at   66  1   RLX: 0.581
       a = -1.000      CL =  0.1373
      Cm = -0.0478     CD =  0.02155   =>   CDf =  0.00526    CDp =  0.01629

 Side 1  free  transition at x/c =  0.8096   68
 Side 2  free  transition at x/c =  0.7755   66
 idif Ue xi dudx           1  0.16021915      2.22289562E-03   72.076775    
 Uenew xinew           2  1.54831829E-02  2.14815140E-04

 102   rms: 0.1216E+00   max: 0.1146E+01   D at   68  1
       a = -1.000      CL =  0.1017
      Cm = -0.0420     CD =  0.02216   =>   CDf =  0.00532    CDp =  0.01684

 Side 1  free  transition at x/c =  0.8016   67
 Side 2  free  transition at x/c =  0.7770   67

 103   rms: 0.4806E-01   max: 0.3104E+00   T at   67  1
       a = -1.000      CL =  0.0600
      Cm = -0.0345     CD =  0.02318   =>   CDf =  0.00527    CDp =  0.01791

 Side 1  free  transition at x/c =  0.7975   66
 Side 2  free  transition at x/c =  0.7791   67

 104   rms: 0.1559E+00   max: -.8607E+00   T at   66  1   RLX: 0.581
       a = -1.000      CL =  0.1373
      Cm = -0.0478     CD =  0.02155   =>   CDf =  0.00526    CDp =  0.01629

 Side 1  free  transition at x/c =  0.8096   68
 Side 2  free  transition at x/c =  0.7755   66
 idif Ue xi dudx           1  0.16022073      2.22289562E-03   72.077484    
 Uenew xinew           2  1.54833347E-02  2.14815140E-04

 105   rms: 0.1216E+00   max: 0.1146E+01   D at   68  1
       a = -1.000      CL =  0.1017
      Cm = -0.0420     CD =  0.02216   =>   CDf =  0.00532    CDp =  0.01684

 Side 1  free  transition at x/c =  0.8016   67
 Side 2  free  transition at x/c =  0.7770   67

 106   rms: 0.4806E-01   max: 0.3104E+00   T at   67  1
       a = -1.000      CL =  0.0600
      Cm = -0.0345     CD =  0.02318   =>   CDf =  0.00527    CDp =  0.01791

 Side 1  free  transition at x/c =  0.7975   66
 Side 2  free  transition at x/c =  0.7791   67

 107   rms: 0.1559E+00   max: -.8608E+00   T at   66  1   RLX: 0.581
       a = -1.000      CL =  0.1373
      Cm = -0.0478     CD =  0.02155   =>   CDf =  0.00526    CDp =  0.01629

 Side 1  free  transition at x/c =  0.8096   68
 Side 2  free  transition at x/c =  0.7755   66
 idif Ue xi dudx           1  0.16022338      2.22289562E-03   72.078682    
 Uenew xinew           2  1.54835917E-02  2.14815140E-04

 108   rms: 0.1216E+00   max: 0.1146E+01   D at   68  1
       a = -1.000      CL =  0.1017
      Cm = -0.0420     CD =  0.02216   =>   CDf =  0.00532    CDp =  0.01684

 Side 1  free  transition at x/c =  0.8016   67
 Side 2  free  transition at x/c =  0.7770   67

 109   rms: 0.4805E-01   max: 0.3104E+00   T at   67  1
       a = -1.000      CL =  0.0600
      Cm = -0.0345     CD =  0.02318   =>   CDf =  0.00527    CDp =  0.01791

 Side 1  free  transition at x/c =  0.7975   66
 Side 2  free  transition at x/c =  0.7791   67

 110   rms: 0.1559E+00   max: -.8608E+00   T at   66  1   RLX: 0.581
       a = -1.000      CL =  0.1373
      Cm = -0.0478     CD =  0.02155   =>   CDf =  0.00526    CDp =  0.01629

 Side 1  free  transition at x/c =  0.8096   68
 Side 2  free  transition at x/c =  0.7755   66
 idif Ue xi dudx           1  0.16022567      2.22289562E-03   72.079712    
 Uenew xinew           2  1.54838134E-02  2.14815140E-04

 111   rms: 0.1216E+00   max: 0.1146E+01   D at   68  1
       a = -1.000      CL =  0.1017
      Cm = -0.0420     CD =  0.02216   =>   CDf =  0.00532    CDp =  0.01684

 Side 1  free  transition at x/c =  0.8016   67
 Side 2  free  transition at x/c =  0.7770   67

 112   rms: 0.4805E-01   max: 0.3104E+00   T at   67  1
       a = -1.000      CL =  0.0600
[...]
 Side 2  free  transition at x/c =  0.9215   60

   2   rms: 0.1438E-01   max: 0.4978E-01   T at   30  1
       a = 12.500      CL =  0.9096
      Cm =  0.0445     CD =  0.03801   =>   CDf =  0.00745    CDp =  0.03056

 Side 1  free  transition at x/c =  0.0295   30
 Side 2  free  transition at x/c =  0.9235   61

   3   rms: 0.6699E-02   max: -.8766E-01   D at   60  2
       a = 12.500      CL =  0.9086
      Cm =  0.0446     CD =  0.03801   =>   CDf =  0.00740    CDp =  0.03060

 Side 1  free  transition at x/c =  0.0295   30
 Side 2  free  transition at x/c =  0.9242   61

   4   rms: 0.6351E-03   max: -.7297E-02   D at   63  2
       a = 12.500      CL =  0.9086
      Cm =  0.0446     CD =  0.03801   =>   CDf =  0.00739    CDp =  0.03062

 Side 1  free  transition at x/c =  0.0295   30
 Side 2  free  transition at x/c =  0.9240   61

   5   rms: 0.7075E-05   max: -.1111E-03   D at   63  2
       a = 12.500      CL =  0.9086
      Cm =  0.0446     CD =  0.03801   =>   CDf =  0.00739    CDp =  0.03062
 plradd ia,ip,cpol           34           0  2.36923201E-03

 Point added to stored polar  1
 Point written to save file  naca663218_Re300k.base.pol                      
 Dump file unspecified or not available
 Calculating wake trajectory ...
 Calculating source influence matrix ...

 Solving BL system ...

 Side 1  free  transition at x/c =  0.0295   30
 Side 2  free  transition at x/c =  0.9240   61

   1   rms: 0.4068E-01   max: -.1277E+00   T at   61  2   RLX: 0.591
       a = 12.750      CL =  0.9221
      Cm =  0.0449     CD =  0.03852   =>   CDf =  0.00739    CDp =  0.03113

 Side 1  free  transition at x/c =  0.0293   30
 Side 2  free  transition at x/c =  0.9271   61

   2   rms: 0.1629E-01   max: -.4969E-01   T at   61  2
       a = 12.750      CL =  0.9305
      Cm =  0.0452     CD =  0.03898   =>   CDf =  0.00730    CDp =  0.03168

 Side 1  free  transition at x/c =  0.0291   30
 Side 2  free  transition at x/c =  0.9296   61

   3   rms: 0.1641E-02   max: 0.6188E-02   D at   78  1
       a = 12.750      CL =  0.9291
      Cm =  0.0453     CD =  0.03900   =>   CDf =  0.00723    CDp =  0.03177

 Side 1  free  transition at x/c =  0.0291   30
 Side 2  free  transition at x/c =  0.9297   61

   4   rms: 0.7390E-04   max: 0.7244E-03   D at   61  2
       a = 12.750      CL =  0.9291
      Cm =  0.0453     CD =  0.03899   =>   CDf =  0.00723    CDp =  0.03177
 plradd ia,ip,cpol           35           0  2.36923201E-03

 Point added to stored polar  1
 Point written to save file  naca663218_Re300k.base.pol                      
 Dump file unspecified or not available
 Calculating wake trajectory ...
 Calculating source influence matrix ...

 Solving BL system ...

 Side 1  free  transition at x/c =  0.0291   30
 Side 2  free  transition at x/c =  0.9297   61

   1   rms: 0.3956E-01   max: -.1082E+00   T at   61  2   RLX: 0.584
       a = 13.000      CL =  0.9428
      Cm =  0.0454     CD =  0.03960   =>   CDf =  0.00723    CDp =  0.03237

 Side 1  free  transition at x/c =  0.0289   30
 Side 2  free  transition at x/c =  0.9333   61

   2   rms: 0.1570E-01   max: -.4608E-01   T at   61  2
       a = 13.000      CL =  0.9506
      Cm =  0.0457     CD =  0.04013   =>   CDf =  0.00714    CDp =  0.03299

 Side 1  free  transition at x/c =  0.0288   30
 Side 2  free  transition at x/c =  0.9365   61

   3   rms: 0.1800E-02   max: -.7988E-02   C at   61  2
       a = 13.000      CL =  0.9491
      Cm =  0.0458     CD =  0.04015   =>   CDf =  0.00708    CDp =  0.03308

 Side 1  free  transition at x/c =  0.0288   30
 Side 2  free  transition at x/c =  0.9367   61

   4   rms: 0.8441E-04   max: 0.5782E-03   C at   61  2
       a = 13.000      CL =  0.9491
      Cm =  0.0458     CD =  0.04014   =>   CDf =  0.00708    CDp =  0.03307
 plradd ia,ip,cpol           36           0  2.36923201E-03

 Point added to stored polar  1
 Point written to save file  naca663218_Re300k.base.pol                      
 Dump file unspecified or not available
 Calculating wake trajectory ...
 Calculating source influence matrix ...

 Solving BL system ...

 Side 1  free  transition at x/c =  0.0288   30
 Side 2  free  transition at x/c =  0.9367   61

   1   rms: 0.4062E-01   max: 0.9252E-01   D at   34  1   RLX: 0.578
       a = 13.250      CL =  0.9630
      Cm =  0.0458     CD =  0.04088   =>   CDf =  0.00678    CDp =  0.03410

 Side 1  free  transition at x/c =  0.0286   31
 Side 2  free  transition at x/c =  0.9402   61

   2   rms: 0.2368E-01   max: 0.2440E+00   T at    2  1
       a = 13.250      CL =  0.9692
      Cm =  0.0463     CD =  0.04143   =>   CDf =  0.00697    CDp =  0.03445

 Side 1  free  transition at x/c =  0.0285   31
 Side 2  free  transition at x/c =  0.9440   61

   3   rms: 0.1766E-02   max: -.1743E-01   D at   61  2
       a = 13.250      CL =  0.9686
      Cm =  0.0462     CD =  0.04148   =>   CDf =  0.00688    CDp =  0.03460

 Side 1  free  transition at x/c =  0.0285   31
 Side 2  free  transition at x/c =  0.9438   61

   4   rms: 0.3625E-04   max: 0.4642E-03   D at   61  2
       a = 13.250      CL =  0.9685
      Cm =  0.0463     CD =  0.04147   =>   CDf =  0.00688    CDp =  0.03459
 plradd ia,ip,cpol           37           0  2.36923201E-03

 Point added to stored polar  1
 Point written to save file  naca663218_Re300k.base.pol                      
 Dump file unspecified or not available
 Calculating wake trajectory ...
 Calculating source influence matrix ...

 Solving BL system ...

 Side 1  free  transition at x/c =  0.0285   31
 Side 2  free  transition at x/c =  0.9439   61

   1   rms: 0.4464E-01   max: -.1594E+00   C at   61  2   RLX: 0.573
       a = 13.500      CL =  0.9839
      Cm =  0.0461     CD =  0.04233   =>   CDf =  0.00688    CDp =  0.03544

 Side 1  free  transition at x/c =  0.0285   31
 Side 2  free  transition at x/c =  0.9480   61

   2   rms: 0.1815E-01   max: -.7995E-01   C at   61  2
       a = 13.500      CL =  0.9920
      Cm =  0.0462     CD =  0.04314   =>   CDf =  0.00678    CDp =  0.03637

 Side 1  free  transition at x/c =  0.0285   31
 Side 2  free  transition at x/c =  0.9508   62

   3   rms: 0.1287E-01   max: -.1993E+00   C at   62  2
       a = 13.500      CL =  0.9895
      Cm =  0.0464     CD =  0.04313   =>   CDf =  0.00670    CDp =  0.03642

 Side 1  free  transition at x/c =  0.0285   31
 Side 2  free  transition at x/c =  0.9528   62

   4   rms: 0.2335E-02   max: 0.3944E-01   C at   62  2
       a = 13.500      CL =  0.9901
      Cm =  0.0463     CD =  0.04314   =>   CDf =  0.00668    CDp =  0.03646

 Side 1  free  transition at x/c =  0.0285   31
 Side 2  free  transition at x/c =  0.9520   62

   5   rms: 0.4076E-04   max: -.3715E-03   D at   62  2
       a = 13.500      CL =  0.9901
      Cm =  0.0463     CD =  0.04314   =>   CDf =  0.00668    CDp =  0.03646
 plradd ia,ip,cpol           38           0  2.36923201E-03

 Point added to stored polar  1
 Point written to save file  naca663218_Re300k.base.pol                      
 Dump file unspecified or not available
 Calculating wake trajectory ...
 Calculating source influence matrix ...

 Solving BL system ...

 Side 1  free  transition at x/c =  0.0285   31
 Side 2  free  transition at x/c =  0.9520   62

   1   rms: 0.4457E-01   max: -.2722E+00   C at   62  2   RLX: 0.565
       a = 13.750      CL =  1.0034
      Cm =  0.0460     CD =  0.04423   =>   CDf =  0.00669    CDp =  0.03754

 Side 1  free  transition at x/c =  0.0284   31
 Side 2  free  transition at x/c =  0.9566   62

   2   rms: 0.1992E-01   max: -.1620E+00   C at   62  2
       a = 13.750      CL =  1.0107
      Cm =  0.0459     CD =  0.04523   =>   CDf =  0.00655    CDp =  0.03868

 Side 1  free  transition at x/c =  0.0283   31
 Side 2  free  transition at x/c =  0.9611   62

   3   rms: 0.2533E-02   max: -.1128E-01   C at   62  2
       a = 13.750      CL =  1.0087
      Cm =  0.0460     CD =  0.04523   =>   CDf =  0.00644    CDp =  0.03880

 Side 1  free  transition at x/c =  0.0283   31
 Side 2  free  transition at x/c =  0.9611   62

   4   rms: 0.1182E-03   max: 0.1627E-02   C at   62  2
       a = 13.750      CL =  1.0087
      Cm =  0.0460     CD =  0.04522   =>   CDf =  0.00644    CDp =  0.03878

 Side 1  free  transition at x/c =  0.0283   31
 Side 2  free  transition at x/c =  0.9611   62

   5   rms: 0.3232E-05   max: 0.2552E-04   C at   62  2
       a = 13.750      CL =  1.0087
      Cm =  0.0460     CD =  0.04522   =>   CDf =  0.00644    CDp =  0.03878
 plradd ia,ip,cpol           39           0  2.36923201E-03

 Point added to stored polar  1
 Point written to save file  naca663218_Re300k.base.pol                      
 Dump file unspecified or not available
 Calculating wake trajectory ...
 Calculating source influence matrix ...

 Solving BL system ...

 Side 1  free  transition at x/c =  0.0283   31
 Side 2  free  transition at x/c =  0.9611   62

   1   rms: 0.4917E-01   max: -.3889E+00   C at   62  2   RLX: 0.558
       a = 14.000      CL =  1.0220
      Cm =  0.0454     CD =  0.04656   =>   CDf =  0.00644    CDp =  0.04013

 Side 1  free  transition at x/c =  0.0283   31
 Side 2  free  transition at x/c =  0.9637   63

   2   rms: 0.3399E-01   max: -.5317E+00   C at   63  2   RLX: 0.940
       a = 14.000      CL =  1.0259
      Cm =  0.0454     CD =  0.04759   =>   CDf =  0.00630    CDp =  0.04129

 Side 1  free  transition at x/c =  0.0282   31
 Side 2  free  transition at x/c =  0.9721   63

   3   rms: 0.2010E-01   max: -.3280E+00   C at   63  2
       a = 14.000      CL =  1.0272
      Cm =  0.0449     CD =  0.04779   =>   CDf =  0.00618    CDp =  0.04161

 Side 1  free  transition at x/c =  0.0282   31
 Side 2  free  transition at x/c =  0.9697   63

   4   rms: 0.6073E-02   max: -.1035E+00   C at   63  2
       a = 14.000      CL =  1.0261
      Cm =  0.0451     CD =  0.04772   =>   CDf =  0.00617    CDp =  0.04156

 Side 1  free  transition at x/c =  0.0282   31
 Side 2  free  transition at x/c =  0.9712   63

   5   rms: 0.4483E-03   max: 0.7321E-02   C at   63  2
       a = 14.000      CL =  1.0262
      Cm =  0.0451     CD =  0.04772   =>   CDf =  0.00617    CDp =  0.04156

 Side 1  free  transition at x/c =  0.0282   31
 Side 2  free  transition at x/c =  0.9711   63

   6   rms: 0.8665E-05   max: -.7441E-04   C at   63  2
       a = 14.000      CL =  1.0262
      Cm =  0.0451     CD =  0.04772   =>   CDf =  0.00617    CDp =  0.04156
 plradd ia,ip,cpol           40           0  2.36923201E-03

 Point added to stored polar  1
 Point written to save file  naca663218_Re300k.base.pol                      
 Dump file unspecified or not available
 Calculating wake trajectory ...
 Calculating source influence matrix ...

 Solving BL system ...

 Side 1  free  transition at x/c =  0.0282   31
 Side 2  free  transition at x/c =  0.9711   63

   1   rms: 0.6051E-01   max: -.7222E+00   C at   63  2   RLX: 0.548
       a = 14.250      CL =  1.0375
      Cm =  0.0443     CD =  0.04931   =>   CDf =  0.00617    CDp =  0.04314

 Side 1  free  transition at x/c =  0.0282   31
 Side 2  free  transition at x/c =  0.9734   63

   2   rms: 0.3862E-01   max: -.6146E+00   C at   63  2   RLX: 0.813
       a = 14.250      CL =  1.0379
      Cm =  0.0447     CD =  0.05024   =>   CDf =  0.00602    CDp =  0.04423

 Side 1  free  transition at x/c =  0.0282   31
 Side 2  free  transition at x/c =  0.9923   65

   3   rms: 0.2291E-01   max: -.3055E+00   D at   64  2
       a = 14.250      CL =  1.0418
      Cm =  0.0435     CD =  0.05077   =>   CDf =  0.00566    CDp =  0.04511

 Side 1  free  transition at x/c =  0.0282   32
 Side 2  free  transition at x/c =  0.9763   63

   4   rms: 0.4242E-01   max: -.7491E+00   C at   63  2   RLX: 0.667
       a = 14.250      CL =  1.0397
      Cm =  0.0440     CD =  0.05066   =>   CDf =  0.00587    CDp =  0.04479

 Side 1  free  transition at x/c =  0.0282   32
 Side 2  free  transition at x/c =  0.9858   64

   5   rms: 0.1588E+00   max: -.3119E+01   C at   64  2   RLX: 0.160
       a = 14.250      CL =  1.0390
      Cm =  0.0440     CD =  0.05059   =>   CDf =  0.00588    CDp =  0.04471

 Side 1  free  transition at x/c =  0.0282   32
 Side 2  free  transition at x/c =  1.0000   65

   6   rms: 0.6945E-02   max: -.1222E+00   D at   63  2
       a = 14.250      CL =  1.0369
      Cm =  0.0446     CD =  0.05042   =>   CDf =  0.00587    CDp =  0.04454

 Side 1  free  transition at x/c =  0.0282   32
 Side 2 forced transition at x/c =  1.0000   65

   7   rms: 0.4533E-03   max: -.8101E-02   D at   63  2
       a = 14.250      CL =  1.0369
      Cm =  0.0447     CD =  0.05041   =>   CDf =  0.00590    CDp =  0.04452

 Side 1  free  transition at x/c =  0.0282   32
 Side 2 forced transition at x/c =  1.0000   65

   8   rms: 0.1274E-04   max: 0.1270E-03   D at    4  1
       a = 14.250      CL =  1.0369
      Cm =  0.0447     CD =  0.05041   =>   CDf =  0.00590    CDp =  0.04452
 plradd ia,ip,cpol           41           0  2.36923201E-03

 Point added to stored polar  1
 Point written to save file  naca663218_Re300k.base.pol                      
 Dump file unspecified or not available
 Calculating wake trajectory ...
 Calculating source influence matrix ...

 Solving BL system ...

 Side 1  free  transition at x/c =  0.0282   32
 Side 2 forced transition at x/c =  1.0000   65

   1   rms: 0.3683E-01   max: -.1611E+00   C at   65  2   RLX: 0.529
       a = 14.500      CL =  1.0403
      Cm =  0.0448     CD =  0.05191   =>   CDf =  0.00590    CDp =  0.04601

 Side 1  free  transition at x/c =  0.0281   32
 Side 2 forced transition at x/c =  1.0000   65

   2   rms: 0.1642E-01   max: -.7504E-01   C at   65  2
       a = 14.500      CL =  1.0398
      Cm =  0.0451     CD =  0.05319   =>   CDf =  0.00577    CDp =  0.04742

 Side 1  free  transition at x/c =  0.0280   32
 Side 2 forced transition at x/c =  1.0000   65

   3   rms: 0.1495E-02   max: 0.5863E-02   D at   79  2
       a = 14.500      CL =  1.0384
      Cm =  0.0453     CD =  0.05306   =>   CDf =  0.00568    CDp =  0.04738

 Side 1  free  transition at x/c =  0.0280   32
 Side 2 forced transition at x/c =  1.0000   65

   4   rms: 0.9547E-04   max: -.3630E-03   D at   80  1
       a = 14.500      CL =  1.0385
      Cm =  0.0453     CD =  0.05305   =>   CDf =  0.00568    CDp =  0.04737
 plradd ia,ip,cpol           42           0  1.41468446E-03

 Point added to stored polar  1
 Point written to save file  naca663218_Re300k.base.pol                      
 Dump file unspecified or not available
 Calculating wake trajectory ...
 Calculating source influence matrix ...

 Solving BL system ...

 Side 1  free  transition at x/c =  0.0280   32
 Side 2 forced transition at x/c =  1.0000   65

   1   rms: 0.4079E-01   max: -.1470E+00   C at   65  2   RLX: 0.512
       a = 14.750      CL =  1.0402
      Cm =  0.0454     CD =  0.05487   =>   CDf =  0.00568    CDp =  0.04919

 Side 1  free  transition at x/c =  0.0280   32
 Side 2 forced transition at x/c =  1.0000   65

   2   rms: 0.2076E-01   max: -.7230E-01   C at   65  2
       a = 14.750      CL =  1.0377
      Cm =  0.0459     CD =  0.05664   =>   CDf =  0.00555    CDp =  0.05109

 Side 1  free  transition at x/c =  0.0281   32
 Side 2 forced transition at x/c =  1.0000   65

   3   rms: 0.2668E-02   max: 0.1301E-01   D at   79  2
       a = 14.750      CL =  1.0352
      Cm =  0.0461     CD =  0.05647   =>   CDf =  0.00542    CDp =  0.05105

 Side 1  free  transition at x/c =  0.0281   32
 Side 2 forced transition at x/c =  1.0000   65

   4   rms: 0.1626E-03   max: -.6153E-03   D at   79  1
       a = 14.750      CL =  1.0353
      Cm =  0.0461     CD =  0.05644   =>   CDf =  0.00542    CDp =  0.05102

 Side 1  free  transition at x/c =  0.0281   32
 Side 2 forced transition at x/c =  1.0000   65

   5   rms: 0.1162E-04   max: -.4659E-04   C at   65  2
       a = 14.750      CL =  1.0353
      Cm =  0.0461     CD =  0.05644   =>   CDf =  0.00542    CDp =  0.05102
 plradd ia,ip,cpol           43           0  1.41468446E-03

 Point added to stored polar  1
 Point written to save file  naca663218_Re300k.base.pol                      
 Dump file unspecified or not available
 Calculating wake trajectory ...
 Calculating source influence matrix ...

 Solving BL system ...

 Side 1  free  transition at x/c =  0.0281   32
 Side 2 forced transition at x/c =  1.0000   65

   1   rms: 0.3538E-01   max: -.1396E+00   C at   65  2   RLX: 0.492
       a = 15.000      CL =  1.0341
      Cm =  0.0463     CD =  0.05812   =>   CDf =  0.00542    CDp =  0.05269

 Side 1  free  transition at x/c =  0.0281   32
 Side 2 forced transition at x/c =  1.0000   65

   2   rms: 0.1980E-01   max: -.6629E-01   C at   65  2
       a = 15.000      CL =  1.0308
      Cm =  0.0467     CD =  0.05993   =>   CDf =  0.00532    CDp =  0.05461

 Side 1  free  transition at x/c =  0.0281   32
 Side 2 forced transition at x/c =  1.0000   65

   3   rms: 0.2415E-02   max: 0.1177E-01   D at   78  1
       a = 15.000      CL =  1.0287
      Cm =  0.0468     CD =  0.05977   =>   CDf =  0.00520    CDp =  0.05457

 Side 1  free  transition at x/c =  0.0281   32
 Side 2 forced transition at x/c =  1.0000   65

   4   rms: 0.6085E-04   max: 0.4023E-03   D at   80  2
       a = 15.000      CL =  1.0287
      Cm =  0.0468     CD =  0.05974   =>   CDf =  0.00519    CDp =  0.05455
 plradd ia,ip,cpol           44           0  1.41468446E-03

 Point added to stored polar  1
 Point written to save file  naca663218_Re300k.base.pol                      
 Dump file unspecified or not available
 Calculating wake trajectory ...
 Calculating source influence matrix ...

 Solving BL system ...

 Side 1  free  transition at x/c =  0.0281   32
 Side 2 forced transition at x/c =  1.0000   65

   1   rms: 0.4238E-01   max: 0.1408E+00   D at   70  1   RLX: 0.473
       a = 15.250      CL =  1.0254
      Cm =  0.0471     CD =  0.06188   =>   CDf =  0.00520    CDp =  0.05669

 Side 1  free  transition at x/c =  0.0283   32
 Side 2 forced transition at x/c =  1.0000   65

   2   rms: 0.2238E-01   max: 0.7369E-01   D at   70  1
       a = 15.250      CL =  1.0193
      Cm =  0.0475     CD =  0.06412   =>   CDf =  0.00507    CDp =  0.05905

 Side 1  free  transition at x/c =  0.0284   32
 Side 2 forced transition at x/c =  1.0000   65

   3   rms: 0.2616E-02   max: 0.1392E-01   D at   77  1
       a = 15.250      CL =  1.0171
      Cm =  0.0476     CD =  0.06382   =>   CDf =  0.00494    CDp =  0.05888

 Side 1  free  transition at x/c =  0.0284   32
 Side 2 forced transition at x/c =  1.0000   65

   4   rms: 0.2546E-03   max: -.8269E-03   D at   78  1
       a = 15.250      CL =  1.0173
      Cm =  0.0476     CD =  0.06380   =>   CDf =  0.00495    CDp =  0.05885

 Side 1  free  transition at x/c =  0.0284   32
 Side 2 forced transition at x/c =  1.0000   65

   5   rms: 0.2215E-04   max: -.6169E-04   T at   77  1
       a = 15.250      CL =  1.0173
      Cm =  0.0476     CD =  0.06380   =>   CDf =  0.00495    CDp =  0.05886
 plradd ia,ip,cpol           45           0  2.36923201E-03

 Point added to stored polar  1
 Point written to save file  naca663218_Re300k.base.pol                      
 Dump file unspecified or not available
 Calculating wake trajectory ...
 Calculating source influence matrix ...

 Solving BL system ...

 Side 1  free  transition at x/c =  0.0284   32
 Side 2 forced transition at x/c =  1.0000   65

   1   rms: 0.4093E-01   max: 0.1386E+00   D at   70  1   RLX: 0.455
       a = 15.500      CL =  1.0137
      Cm =  0.0477     CD =  0.06594   =>   CDf =  0.00495    CDp =  0.06099

 Side 1  free  transition at x/c =  0.0286   32
 Side 2 forced transition at x/c =  1.0000   65

   2   rms: 0.2093E-01   max: 0.6985E-01   D at   69  1
       a = 15.500      CL =  1.0077
      Cm =  0.0479     CD =  0.06827   =>   CDf =  0.00484    CDp =  0.06343

 Side 1  free  transition at x/c =  0.0288   32
 Side 2 forced transition at x/c =  1.0000   65


[TIMEOUT]
