
 ===================================================
  XFOIL Version 6.99
  Copyright (C) 2000   Mark Drela, Harold Youngren

  This software comes with ABSOLUTELY NO WARRANTY,
    subject to the GNU General Public License.

  Caveat computor
 ===================================================

 File  xfoil.def  not found

   QUIT    Exit program

  .OPER    Direct operating point(s)
  .MDES    Complex mapping design routine
  .QDES    Surface speed design routine
  .GDES    Geometry design routine

   SAVE f  Write airfoil to labeled coordinate file
   PSAV f  Write airfoil to plain coordinate file
   ISAV f  Write airfoil to ISES coordinate file
   MSAV f  Write airfoil to MSES coordinate file
   REVE    Reverse written-airfoil node ordering

   LOAD f  Read buffer airfoil from coordinate file
   NACA i  Set NACA 4,5-digit airfoil and buffer airfoil
   INTE    Set buffer airfoil by interpolating two airfoils
   NORM    Buffer airfoil normalization toggle
   XYCM rr Change CM reference location, currently  0.25000 0.00000

   BEND    Display structural properties of current airfoil

   PCOP    Set current-airfoil panel nodes directly from buffer airfoil points
   PANE    Set current-airfoil panel nodes ( 160 ) based on curvature
  .PPAR    Show/change paneling

  .PLOP    Plotting options

   WDEF f  Write  current-settings file
   RDEF f  Reread current-settings file
   NAME s  Specify new airfoil name
   NINC    Increment name version number

   Z       Zoom    | (available in all menus)
   U       Unzoom  | 

 XFOIL   c>  
 Labeled airfoil file.  Name:  NACA 23015                                      

 Number of input coordinate points:  35
 Counterclockwise ordering
 Max thickness =     0.150085  at x =   0.299
 Max camber    =     0.013564  at x =   0.149

  LE  x,y  =  -0.00081   0.00575  |   Chord =   1.00082
  TE  x,y  =   1.00000   0.00000  |

 Current airfoil nodes set from buffer airfoil nodes (  35 )

 WARNING: Poor input coordinate distribution
          Excessive panel angle   59.6  at i =  18
          Repaneling with PANE and/or PPAR suggested
           (doing GDES,CADD before repaneling _may_
            improve excessively coarse LE spacing

 XFOIL   c>  
 XFOIL   c>  
 Blunt trailing edge.  Gap =  0.00320

 Paneling parameters used...
   Number of panel nodes       160
   Panel bunching parameter    1.000
   TE/LE panel density ratio   0.150
   Refined-area/LE panel density ratio    0.200
   Top    side refined area x/c limits  1.000 1.000
   Bottom side refined area x/c limits  1.000 1.000

 XFOIL   c>  
.OPERi   c>  
 Xtr/c     =  1.0000    top    side
 Xtr/c     =  1.0000    bottom side
 Ncrit     =    9.00   ( 0.070 % turb. level )
 Vacc      =  0.0100

 Klag  =  5.6000     Uxwt  =    1.00
 A     =  6.7000     B     =  0.7500       KCt = 0.01485
 CtiniK=  1.8000     CtiniX=  3.3000

..VPAR   c>  
..VPAR   c>  
.OPERi   c>  
 M  =    0.0000
 Re =    150000

.OPERv   c>  
.OPERv   c>  
.OPERv   c>  
 Polar  1 newly created for accumulation
 Airfoil archived with polar: NACA 23015                                      

Enter  polar save filename  OR  <return> for no file   s>  
 New polar save file available

Enter  polar dump filename  OR  <return> for no file   s>  
 Polar dump file will NOT be written

 Polar accumulation enabled

.OPERva   c>   Calculating unit vorticity distributions ...
 Calculating wake trajectory ...
 Calculating source influence matrix ...

 Solving BL system ...

 Initializing BL ...
    side            1  ...
 MRCHUE: Inverse mode at  56     Hk =   3.891
 MRCHUE: Inverse mode at  57     Hk =   4.259
 MRCHUE: Inverse mode at  58     Hk =   4.620
 MRCHUE: Inverse mode at  59     Hk =   4.973
 MRCHUE: Inverse mode at  60     Hk =   5.321
 MRCHUE: Inverse mode at  61     Hk =   5.663
 MRCHUE: Inverse mode at  62     Hk =   5.999
 MRCHUE: Inverse mode at  63     Hk =   6.330
 MRCHUE: Inverse mode at  64     Hk =   6.656
 MRCHUE: Inverse mode at  65     Hk =   6.977
 MRCHUE: Inverse mode at  66     Hk =   7.293
 MRCHUE: Inverse mode at  67     Hk =   7.603
 MRCHUE: Inverse mode at  68     Hk =   7.907
 MRCHUE: Inverse mode at  69     Hk =   8.203
 MRCHUE: Inverse mode at  70     Hk =   8.486
 MRCHUE: Inverse mode at  71     Hk =   8.747
 MRCHUE: Inverse mode at  72     Hk =   8.982
 MRCHUE: Inverse mode at  73     Hk =   8.479
 MRCHUE: Inverse mode at  74     Hk =   7.675
 MRCHUE: Inverse mode at  75     Hk =   7.272
    side            2  ...
 MRCHUE: Inverse mode at  27     Hk =   3.800
 MRCHUE: Inverse mode at  28     Hk =   4.276
 MRCHUE: Inverse mode at  29     Hk =   4.767
 MRCHUE: Inverse mode at  30     Hk =   5.281
 MRCHUE: Inverse mode at  31     Hk =   5.825
 MRCHUE: Inverse mode at  32     Hk =   6.401
 MRCHUE: Inverse mode at  33     Hk =   7.010
 MRCHUE: Inverse mode at  34     Hk =   7.657
 MRCHUE: Inverse mode at  35     Hk =   8.345
 MRCHUE: Inverse mode at  36     Hk =   9.076
 MRCHUE: Inverse mode at  37     Hk =   9.839
 MRCHUE: Inverse mode at  38     Hk =   8.363
 MRCHUE: Inverse mode at  39     Hk =   5.521
 MRCHUE: Inverse mode at  40     Hk =   3.882
 MRCHUE: Inverse mode at  41     Hk =   2.730
 MRCHUE: Inverse mode at  86     Hk =   2.500
 MRCHUE: Inverse mode at  87     Hk =   2.500
 MRCHUE: Inverse mode at  89     Hk =   3.228

 Side 1  free  transition at x/c =  0.9747   73
 Side 2  free  transition at x/c =  0.1354   38

   1   rms: 0.3243E+00   max: 0.1962E+01   D at   90  2   RLX: 0.444
       a = -4.000      CL = -0.3656
      Cm = -0.0097     CD =  0.01256   =>   CDf =  0.00888    CDp =  0.00368

 Side 1  free  transition at x/c =  0.9796   73
 Side 2  free  transition at x/c =  0.1471   39

   2   rms: 0.1361E+00   max: 0.6249E+00   D at   94  2   RLX: 0.827
       a = -4.000      CL = -0.3894
      Cm = -0.0013     CD =  0.01511   =>   CDf =  0.00852    CDp =  0.00659

 Side 1  free  transition at x/c =  0.9629   72
 Side 2  free  transition at x/c =  0.1583   40

   3   rms: 0.7493E-01   max: -.5513E+00   C at   40  2   RLX: 0.907
       a = -4.000      CL = -0.3773
      Cm = -0.0034     CD =  0.01631   =>   CDf =  0.00851    CDp =  0.00780

 Side 1  free  transition at x/c =  0.9562   72
 Side 2  free  transition at x/c =  0.1891   41

   4   rms: 0.6146E-01   max: -.1195E+01   C at   41  2   RLX: 0.418
       a = -4.000      CL = -0.3736
      Cm = -0.0040     CD =  0.01673   =>   CDf =  0.00813    CDp =  0.00860

 Side 1  free  transition at x/c =  0.9571   72
 Side 2  free  transition at x/c =  0.1967   42

   5   rms: 0.6097E-01   max: -.1172E+01   C at   42  2   RLX: 0.427
       a = -4.000      CL = -0.3715
      Cm = -0.0044     CD =  0.01654   =>   CDf =  0.00809    CDp =  0.00845

 Side 1  free  transition at x/c =  0.9577   72
 Side 2  free  transition at x/c =  0.2063   42

   6   rms: 0.4731E-01   max: -.9379E+00   C at   42  2   RLX: 0.533
       a = -4.000      CL = -0.3697
      Cm = -0.0048     CD =  0.01644   =>   CDf =  0.00803    CDp =  0.00841

 Side 1  free  transition at x/c =  0.9581   72
 Side 2  free  transition at x/c =  0.2388   44

   7   rms: 0.3067E-01   max: -.5848E+00   C at   44  2   RLX: 0.855
       a = -4.000      CL = -0.3706
      Cm = -0.0049     CD =  0.01608   =>   CDf =  0.00776    CDp =  0.00832

 Side 1  free  transition at x/c =  0.9584   72
 Side 2  free  transition at x/c =  0.2586   46

   8   rms: 0.1744E-02   max: 0.2723E-01   C at   46  2
       a = -4.000      CL = -0.3707
      Cm = -0.0050     CD =  0.01606   =>   CDf =  0.00762    CDp =  0.00843

 Side 1  free  transition at x/c =  0.9585   72
 Side 2  free  transition at x/c =  0.2578   46

   9   rms: 0.4172E-04   max: -.8019E-03   C at   46  2
       a = -4.000      CL = -0.3707
      Cm = -0.0050     CD =  0.01606   =>   CDf =  0.00763    CDp =  0.00842
 plradd ia,ip,cpol            1           0  1.71580482E-02

 Point added to stored polar  1
 Point written to save file  naca23015_Re150k.base.pol                       
 Dump file unspecified or not available
 Calculating wake trajectory ...
 Calculating source influence matrix ...

 Solving BL system ...

 Side 1  free  transition at x/c =  0.9585   72
 Side 2  free  transition at x/c =  0.2579   46

   1   rms: 0.1283E+01   max: -.2471E+02   C at   46  2   RLX: 0.020
       a = -3.500      CL = -0.3703
      Cm = -0.0050     CD =  0.01588   =>   CDf =  0.00763    CDp =  0.00825

 Side 1  free  transition at x/c =  0.9582   72
 Side 2  free  transition at x/c =  0.2779   47

   2   rms: 0.1222E+01   max: -.2334E+02   C at   47  2   RLX: 0.021
       a = -3.500      CL = -0.3691
      Cm = -0.0050     CD =  0.01575   =>   CDf =  0.00752    CDp =  0.00822

 Side 1  free  transition at x/c =  0.9579   72
 Side 2  free  transition at x/c =  0.3015   48

   3   rms: 0.1055E+01   max: -.1980E+02   C at   48  2   RLX: 0.025
       a = -3.500      CL = -0.3679
      Cm = -0.0050     CD =  0.01560   =>   CDf =  0.00739    CDp =  0.00821

 Side 1  free  transition at x/c =  0.9576   72
 Side 2  free  transition at x/c =  0.3380   50

   4   rms: 0.6832E+00   max: -.1228E+02   C at   50  2   RLX: 0.041
       a = -3.500      CL = -0.3667
      Cm = -0.0050     CD =  0.01539   =>   CDf =  0.00720    CDp =  0.00819

 Side 1  free  transition at x/c =  0.9570   72
 Side 2  free  transition at x/c =  0.3959   53

   5   rms: 0.3022E+00   max: 0.1970E+01   C at   55  2   RLX: 0.319
       a = -3.500      CL = -0.3401
      Cm = -0.0070     CD =  0.01525   =>   CDf =  0.00696    CDp =  0.00829

 MRCHDU: Convergence failed at  57  side 2    Res =  0.2772E+01
 MRCHDU: Convergence failed at  58  side 2    Res =  0.1109E+01
 MRCHDU: Convergence failed at  59  side 2    Res =  0.2304E+01
 MRCHDU: Convergence failed at  60  side 2    Res =  0.3674E+01
 MRCHDU: Convergence failed at  61  side 2    Res =  0.5243E+01
 MRCHDU: Convergence failed at  62  side 2    Res =  0.8134E+01
 MRCHDU: Convergence failed at  63  side 2    Res =  0.8990E+01
 MRCHDU: Convergence failed at  64  side 2    Res =  0.9005E+01
 MRCHDU: Convergence failed at  65  side 2    Res =  0.7408E+01
 MRCHDU: Convergence failed at  66  side 2    Res =  0.6620E+01
 MRCHDU: Convergence failed at  67  side 2    Res =  0.2778E+01
 MRCHDU: Convergence failed at  68  side 2    Res =  0.9309E+01
 MRCHDU: Convergence failed at  69  side 2    Res =  0.7618E+01
 MRCHDU: Convergence failed at  70  side 2    Res =  0.6540E+01
 MRCHDU: Convergence failed at  71  side 2    Res =  0.5805E+01
 MRCHDU: Convergence failed at  72  side 2    Res =  0.5293E+01
 MRCHDU: Convergence failed at  73  side 2    Res =  0.4908E+01
 MRCHDU: Convergence failed at  74  side 2    Res =  0.4613E+01
 MRCHDU: Convergence failed at  75  side 2    Res =  0.4371E+01
 MRCHDU: Convergence failed at  76  side 2    Res =  0.4198E+01
 MRCHDU: Convergence failed at  77  side 2    Res =  0.4027E+01
 MRCHDU: Convergence failed at  78  side 2    Res =  0.3875E+01
 MRCHDU: Convergence failed at  79  side 2    Res =  0.3714E+01
 MRCHDU: Convergence failed at  80  side 2    Res =  0.4035E+01
 MRCHDU: Convergence failed at  81  side 2    Res =  0.4670E+01
 MRCHDU: Convergence failed at  82  side 2    Res =  0.5650E+01
 MRCHDU: Convergence failed at  83  side 2    Res =  0.7082E+01
 MRCHDU: Convergence failed at  84  side 2    Res =  0.9332E+01
 MRCHDU: Convergence failed at  85  side 2    Res =  0.1315E+02
 MRCHDU: Convergence failed at  86  side 2    Res =  0.2136E+02
 MRCHDU: Convergence failed at  87  side 2    Res =  0.4122E+02
 Side 1  free  transition at x/c =  0.9535   71
 Side 2  free  transition at x/c =  0.6528   67

   6   rms: 0.2636E+00   max: 0.7188E+00   D at   92  2
       a = -3.500      CL = -0.2545
      Cm = -0.0151     CD =  0.01221   =>   CDf =  0.00535    CDp =  0.00686

 MRCHDU: Convergence failed at  52  side 2    Res =  0.2238E+01
 Side 1  free  transition at x/c =  0.9629   73
 Side 2  free  transition at x/c =  0.6785   67

   7   rms: 0.9017E-01   max: -.6434E+00   C at   67  2   RLX: 0.777
       a = -3.500      CL = -0.2919
      Cm = -0.0080     CD =  0.01363   =>   CDf =  0.00568    CDp =  0.00796

 Side 1  free  transition at x/c =  0.9503   72
 Side 2  free  transition at x/c =  0.5944   63
 idif Ue xi dudx           1  0.10091291      2.63273716E-03   38.330036    
 Uenew xinew           2  2.35775695E-03  6.15119934E-05

   8   rms: 0.6156E-01   max: -.5755E+00   D at   65  2   RLX: 0.869
       a = -3.500      CL = -0.3194
      Cm = -0.0039     CD =  0.01429   =>   CDf =  0.00630    CDp =  0.00799

 Side 1  free  transition at x/c =  0.9324   70
 Side 2  free  transition at x/c =  0.5704   63

   9   rms: 0.4632E-01   max: -.3642E+00   T at    2  2
       a = -3.500      CL = -0.2944
      Cm = -0.0088     CD =  0.01425   =>   CDf =  0.00616    CDp =  0.00809

 Side 1  free  transition at x/c =  0.9457   72
 Side 2  free  transition at x/c =  0.5833   62

  10   rms: 0.2272E-01   max: 0.1699E+00   D at   75  1
       a = -3.500      CL = -0.3014
      Cm = -0.0075     CD =  0.01430   =>   CDf =  0.00618    CDp =  0.00812

 Side 1  free  transition at x/c =  0.9406   72
 Side 2  free  transition at x/c =  0.5790   62

  11   rms: 0.1960E-02   max: -.1502E-01   D at   72  1
       a = -3.500      CL = -0.3012
      Cm = -0.0075     CD =  0.01432   =>   CDf =  0.00616    CDp =  0.00816

 Side 1  free  transition at x/c =  0.9409   72
 Side 2  free  transition at x/c =  0.5795   62

  12   rms: 0.2427E-04   max: 0.1775E-03   D at   88  2
       a = -3.500      CL = -0.3012
      Cm = -0.0075     CD =  0.01432   =>   CDf =  0.00616    CDp =  0.00816
 plradd ia,ip,cpol            2           0  2.01550480E-02

 Point added to stored polar  1
 Point written to save file  naca23015_Re150k.base.pol                       
 Dump file unspecified or not available
 Calculating wake trajectory ...
 Calculating source influence matrix ...

 Solving BL system ...

 Side 1  free  transition at x/c =  0.9409   72
 Side 2  free  transition at x/c =  0.5795   62

   1   rms: 0.1358E+00   max: -.5940E+00   C at   62  2   RLX: 0.842
       a = -3.000      CL = -0.2203
      Cm = -0.0134     CD =  0.01391   =>   CDf =  0.00616    CDp =  0.00775

 Side 1  free  transition at x/c =  0.9321   71
 Side 2  free  transition at x/c =  0.6408   65

   2   rms: 0.3980E-01   max: 0.2946E+00   T at   71  1
       a = -3.000      CL = -0.2391
      Cm = -0.0074     CD =  0.01395   =>   CDf =  0.00599    CDp =  0.00796

 Side 1  free  transition at x/c =  0.9138   70
 Side 2  free  transition at x/c =  0.6576   66

   3   rms: 0.3771E-01   max: -.2162E+00   D at   75  1
       a = -3.000      CL = -0.2175
      Cm = -0.0116     CD =  0.01375   =>   CDf =  0.00592    CDp =  0.00784

 Side 1  free  transition at x/c =  0.9265   72
 Side 2  free  transition at x/c =  0.6702   66

   4   rms: 0.1871E-01   max: 0.1189E+00   D at   75  1
       a = -3.000      CL = -0.2224
      Cm = -0.0106     CD =  0.01381   =>   CDf =  0.00587    CDp =  0.00794

 Side 1  free  transition at x/c =  0.9229   72
 Side 2  free  transition at x/c =  0.6671   66

   5   rms: 0.1027E-02   max: -.8042E-02   D at   72  1
       a = -3.000      CL = -0.2223
      Cm = -0.0106     CD =  0.01383   =>   CDf =  0.00589    CDp =  0.00794

 Side 1  free  transition at x/c =  0.9230   72
 Side 2  free  transition at x/c =  0.6670   66

   6   rms: 0.9414E-05   max: 0.5094E-04   D at    4  1
       a = -3.000      CL = -0.2223
      Cm = -0.0106     CD =  0.01383   =>   CDf =  0.00589    CDp =  0.00794
 plradd ia,ip,cpol            3           0  2.01550480E-02

 Point added to stored polar  1
 Point written to save file  naca23015_Re150k.base.pol                       
 Dump file unspecified or not available
 Calculating wake trajectory ...
 Calculating source influence matrix ...

 Solving BL system ...

 Side 1  free  transition at x/c =  0.9230   72
 Side 2  free  transition at x/c =  0.6670   66

   1   rms: 0.1248E+00   max: 0.5315E+00   D at   68  2
       a = -2.500      CL = -0.1335
      Cm = -0.0150     CD =  0.01332   =>   CDf =  0.00585    CDp =  0.00747

 Side 1  free  transition at x/c =  0.9119   72
 Side 2  free  transition at x/c =  0.7231   68
 idif Ue xi dudx           1  0.11633424      2.60937214E-03   44.583233    
 Uenew xinew           2  1.26703298E-02  2.84194946E-04

   2   rms: 0.4211E-01   max: 0.2372E+00   D at   74  1
       a = -2.500      CL = -0.1615
      Cm = -0.0096     CD =  0.01351   =>   CDf =  0.00590    CDp =  0.00762

 Side 1  free  transition at x/c =  0.8958   70
 Side 2  free  transition at x/c =  0.7322   69

   3   rms: 0.1545E-01   max: -.1392E+00   D at   70  1
       a = -2.500      CL = -0.1564
      Cm = -0.0106     CD =  0.01348   =>   CDf =  0.00573    CDp =  0.00775

 Side 1  free  transition at x/c =  0.9004   70
 Side 2  free  transition at x/c =  0.7353   69

   4   rms: 0.3579E-02   max: 0.2198E-01   D at   73  1
       a = -2.500      CL = -0.1585
      Cm = -0.0102     CD =  0.01352   =>   CDf =  0.00572    CDp =  0.00780

 Side 1  free  transition at x/c =  0.8988   70
 Side 2  free  transition at x/c =  0.7346   69

   5   rms: 0.3127E-03   max: -.2142E-02   D at   73  1
       a = -2.500      CL = -0.1584
      Cm = -0.0102     CD =  0.01352   =>   CDf =  0.00572    CDp =  0.00780

 Side 1  free  transition at x/c =  0.8989   70
 Side 2  free  transition at x/c =  0.7347   69

   6   rms: 0.5648E-05   max: -.3063E-04   T at   70  1
       a = -2.500      CL = -0.1584
      Cm = -0.0102     CD =  0.01352   =>   CDf =  0.00572    CDp =  0.00780
 plradd ia,ip,cpol            4           0  2.34219413E-02

 Point added to stored polar  1
 Point written to save file  naca23015_Re150k.base.pol                       
 Dump file unspecified or not available
 Calculating wake trajectory ...
 Calculating source influence matrix ...

 Solving BL system ...

 Side 1  free  transition at x/c =  0.8989   70
 Side 2  free  transition at x/c =  0.7347   69

   1   rms: 0.9103E-01   max: -.5632E+00   T at   69  2   RLX: 0.888
       a = -2.000      CL = -0.1219
      Cm = -0.0067     CD =  0.01336   =>   CDf =  0.00569    CDp =  0.00767

 MRCHDU: Convergence failed at  72  side 2    Res =  0.3970E+01
 MRCHDU: Convergence failed at  73  side 2    Res =  0.2063E+01
 MRCHDU: Convergence failed at  74  side 2    Res =  0.3300E+01
 MRCHDU: Convergence failed at  75  side 2    Res =  0.7327E+01
 MRCHDU: Convergence failed at  76  side 2    Res =  0.2953E+02
 MRCHDU: Convergence failed at  77  side 2    Res =  0.6437E+02
 MRCHDU: Convergence failed at  78  side 2    Res =  0.2731E+02
 MRCHDU: Convergence failed at  79  side 2    Res =  0.2881E+02
 MRCHDU: Convergence failed at  80  side 2    Res =  0.6276E+02
 MRCHDU: Convergence failed at  81  side 2    Res =  0.8789E+02
 MRCHDU: Convergence failed at  82  side 2    Res =  0.2416E+02
 MRCHDU: Convergence failed at  83  side 2    Res =  0.1400E+02
 MRCHDU: Convergence failed at  84  side 2    Res =  0.9363E+01
 Side 1  free  transition at x/c =  0.8669   69
 Side 2  free  transition at x/c =  0.7909   71

   2   rms: 0.2348E+00   max: 0.8725E+00   D at   84  2   RLX: 0.643
       a = -2.000      CL = -0.0177
      Cm = -0.0134     CD =  0.01102   =>   CDf =  0.00525    CDp =  0.00577

 MRCHDU: Convergence failed at  73  side 1    Res =  0.5989E+02
 MRCHDU: Convergence failed at  74  side 1    Res =  0.4688E+01
 MRCHDU: Convergence failed at  75  side 1    Res =  0.3128E+01
 MRCHDU: Convergence failed at  76  side 1    Res =  0.5277E+01
 MRCHDU: Convergence failed at  77  side 1    Res =  0.8447E+01
 MRCHDU: Convergence failed at  78  side 1    Res =  0.1215E+02
 MRCHDU: Convergence failed at  79  side 1    Res =  0.1521E+02
 Side 1  free  transition at x/c =  0.9121   73
 Side 2  free  transition at x/c =  0.7800   70
 idif Ue xi dudx           1  0.12664239      2.69901752E-03   46.921661    
 Uenew xinew           2  2.23516170E-02  4.76360321E-04

   3   rms: 0.2046E+00   max: 0.1275E+01   C at   73  1   RLX: 0.731
       a = -2.000      CL = -0.0859
      Cm = -0.0123     CD =  0.01124   =>   CDf =  0.00587    CDp =  0.00537

 Side 1  free  transition at x/c =  0.8699   70
 Side 2  free  transition at x/c =  0.7875   71

   4   rms: 0.4571E-01   max: -.4166E+00   D at   71  1
       a = -2.000      CL = -0.0994
      Cm = -0.0081     CD =  0.01334   =>   CDf =  0.00564    CDp =  0.00770

 Side 1  free  transition at x/c =  0.8747   70
 Side 2  free  transition at x/c =  0.7894   71

   5   rms: 0.7074E-02   max: 0.6598E-01   D at   72  1
       a = -2.000      CL = -0.0963
      Cm = -0.0088     CD =  0.01330   =>   CDf =  0.00561    CDp =  0.00769

 Side 1  free  transition at x/c =  0.8727   70
 Side 2  free  transition at x/c =  0.7884   71

   6   rms: 0.2757E-03   max: -.4195E-02   D at   75  1
       a = -2.000      CL = -0.0962
      Cm = -0.0088     CD =  0.01330   =>   CDf =  0.00561    CDp =  0.00768

 Side 1  free  transition at x/c =  0.8728   70
 Side 2  free  transition at x/c =  0.7884   71

   7   rms: 0.2596E-05   max: -.1239E-04   D at   75  1
       a = -2.000      CL = -0.0962
      Cm = -0.0088     CD =  0.01330   =>   CDf =  0.00561    CDp =  0.00768
 plradd ia,ip,cpol            5           0  2.34219413E-02

 Point added to stored polar  1
 Point written to save file  naca23015_Re150k.base.pol                       
 Dump file unspecified or not available
 Calculating wake trajectory ...
 Calculating source influence matrix ...

 Solving BL system ...

 Side 1  free  transition at x/c =  0.8728   70
 Side 2  free  transition at x/c =  0.7884   71

   1   rms: 0.1013E+00   max: -.5443E+00   T at   71  2   RLX: 0.919
       a = -1.500      CL = -0.0411
      Cm = -0.0073     CD =  0.01287   =>   CDf =  0.00560    CDp =  0.00727

 MRCHDU: Convergence failed at  73  side 2    Res =  0.5682E+01
 MRCHDU: Convergence failed at  74  side 2    Res =  0.6198E+01
 MRCHDU: Convergence failed at  75  side 2    Res =  0.1038E+02
 MRCHDU: Convergence failed at  76  side 2    Res =  0.5364E+01
 MRCHDU: Convergence failed at  77  side 2    Res =  0.4513E+01
 MRCHDU: Convergence failed at  78  side 2    Res =  0.4475E+01
 MRCHDU: Convergence failed at  79  side 2    Res =  0.4742E+01
 MRCHDU: Convergence failed at  80  side 2    Res =  0.5260E+01
 MRCHDU: Convergence failed at  81  side 2    Res =  0.6016E+01
 MRCHDU: Convergence failed at  82  side 2    Res =  0.7124E+01
 MRCHDU: Convergence failed at  83  side 2    Res =  0.8251E+01
 Side 1  free  transition at x/c =  0.8457   69
 Side 2  free  transition at x/c =  0.8410   73

   2   rms: 0.2025E+00   max: 0.1073E+01   T at   83  2
       a = -1.500      CL =  0.0357
      Cm = -0.0191     CD =  0.01187   =>   CDf =  0.00545    CDp =  0.00643

 Side 1  free  transition at x/c =  0.8462   70
 Side 2  free  transition at x/c =  0.8079   70
 idif Ue xi dudx           1  0.12077739      2.38370895E-03   50.667843    
 Uenew xinew           2  1.26358420E-02  2.49385834E-04

   3   rms: 0.1322E+00   max: -.8854E+00   T at   70  2   RLX: 0.565
       a = -1.500      CL =  0.0083
      Cm = -0.0186     CD =  0.01422   =>   CDf =  0.00561    CDp =  0.00861

 MRCHDU: Convergence failed at  74  side 2    Res =  0.2223E+01
 MRCHDU: Convergence failed at  75  side 2    Res =  0.3011E+02
 MRCHDU: Convergence failed at  76  side 2    Res =  0.1317E+02
 MRCHDU: Convergence failed at  77  side 2    Res =  0.1114E+02
 MRCHDU: Convergence failed at  78  side 2    Res =  0.6155E+01
 MRCHDU: Convergence failed at  79  side 2    Res =  0.5096E+01
 MRCHDU: Convergence failed at  80  side 2    Res =  0.4362E+01
 MRCHDU: Convergence failed at  81  side 2    Res =  0.4846E+01
 MRCHDU: Convergence failed at  82  side 2    Res =  0.5423E+01
 MRCHDU: Convergence failed at  83  side 2    Res =  0.6003E+01
 Side 1  free  transition at x/c =  0.8407   69
 Side 2  free  transition at x/c =  0.8519   74

   4   rms: 0.1959E+00   max: 0.1215E+01   C at   74  2
       a = -1.500      CL =  0.0214
      Cm = -0.0168     CD =  0.01243   =>   CDf =  0.00553    CDp =  0.00690

 Side 1  free  transition at x/c =  0.8404   70
 Side 2  free  transition at x/c =  0.8107   70
 idif Ue xi dudx           1  0.13523255      2.67112255E-03   50.627609    
 Uenew xinew           2  2.71768719E-02  5.36799431E-04

   5   rms: 0.1146E+00   max: -.7466E+00   D at   75  2   RLX: 0.670
       a = -1.500      CL = -0.0119
      Cm = -0.0137     CD =  0.01411   =>   CDf =  0.00565    CDp =  0.00847

 MRCHDU: Convergence failed at  74  side 2    Res =  0.5758E+01
 MRCHDU: Convergence failed at  75  side 2    Res =  0.8045E+01
 MRCHDU: Convergence failed at  76  side 2    Res =  0.4634E+01
 MRCHDU: Convergence failed at  77  side 2    Res =  0.5841E+01
 MRCHDU: Convergence failed at  78  side 2    Res =  0.7002E+01
 MRCHDU: Convergence failed at  79  side 2    Res =  0.6961E+01
 MRCHDU: Convergence failed at  80  side 2    Res =  0.6468E+01
 MRCHDU: Convergence failed at  81  side 2    Res =  0.5994E+01
 MRCHDU: Convergence failed at  82  side 2    Res =  0.4934E+01
 MRCHDU: Convergence failed at  83  side 2    Res =  0.5462E+01
 Side 1  free  transition at x/c =  0.8384   69
 Side 2  free  transition at x/c =  0.8543   74

   6   rms: 0.1951E+00   max: 0.1181E+01   C at   74  2
       a = -1.500      CL =  0.0182
      Cm = -0.0162     CD =  0.01227   =>   CDf =  0.00552    CDp =  0.00675

 Side 1  free  transition at x/c =  0.8408   70
 Side 2  free  transition at x/c =  0.8113   70
 idif Ue xi dudx           1  0.13444336      2.65395641E-03   50.657711    
 Uenew xinew           2  2.63234340E-02  5.19633293E-04

   7   rms: 0.1338E+00   max: 0.1205E+01   T at    2  1   RLX: 0.635
       a = -1.500      CL = -0.0107
      Cm = -0.0142     CD =  0.01416   =>   CDf =  0.00564    CDp =  0.00852

 MRCHDU: Convergence failed at  74  side 2    Res =  0.7756E+01
 MRCHDU: Convergence failed at  75  side 2    Res =  0.7964E+01
 MRCHDU: Convergence failed at  76  side 2    Res =  0.4654E+01
 MRCHDU: Convergence failed at  77  side 2    Res =  0.6272E+01
 MRCHDU: Convergence failed at  78  side 2    Res =  0.7842E+01
 MRCHDU: Convergence failed at  79  side 2    Res =  0.7781E+01
 MRCHDU: Convergence failed at  80  side 2    Res =  0.7111E+01
 MRCHDU: Convergence failed at  81  side 2    Res =  0.6464E+01
 MRCHDU: Convergence failed at  82  side 2    Res =  0.5978E+01
 MRCHDU: Convergence failed at  83  side 2    Res =  0.5159E+01
 Side 1  free  transition at x/c =  0.8385   69
 Side 2  free  transition at x/c =  0.8563   74

   8   rms: 0.1941E+00   max: 0.1161E+01   C at   74  2
       a = -1.500      CL =  0.0182
      Cm = -0.0161     CD =  0.01227   =>   CDf =  0.00552    CDp =  0.00675

 Side 1  free  transition at x/c =  0.8408   70
 Side 2  free  transition at x/c =  0.8107   70
 idif Ue xi dudx           1  0.13414881      2.64167786E-03   50.781666    
 Uenew xinew           2  2.57643182E-02  5.07354736E-04

   9   rms: 0.1309E+00   max: 0.1112E+01   T at    2  1   RLX: 0.636
       a = -1.500      CL = -0.0101
      Cm = -0.0143     CD =  0.01421   =>   CDf =  0.00563    CDp =  0.00858

 MRCHDU: Convergence failed at  74  side 2    Res =  0.4773E+01
 MRCHDU: Convergence failed at  75  side 2    Res =  0.9641E+01
 MRCHDU: Convergence failed at  76  side 2    Res =  0.5178E+01
 MRCHDU: Convergence failed at  77  side 2    Res =  0.5480E+01
 MRCHDU: Convergence failed at  78  side 2    Res =  0.6853E+01
 MRCHDU: Convergence failed at  79  side 2    Res =  0.6881E+01
 MRCHDU: Convergence failed at  80  side 2    Res =  0.6440E+01
 MRCHDU: Convergence failed at  81  side 2    Res =  0.5996E+01
 MRCHDU: Convergence failed at  82  side 2    Res =  0.5626E+01
 MRCHDU: Convergence failed at  83  side 2    Res =  0.5393E+01
 Side 1  free  transition at x/c =  0.8385   69
 Side 2  free  transition at x/c =  0.8548   74

  10   rms: 0.1948E+00   max: 0.1178E+01   C at   74  2
       a = -1.500      CL =  0.0186
      Cm = -0.0162     CD =  0.01229   =>   CDf =  0.00552    CDp =  0.00677

 Side 1  free  transition at x/c =  0.8407   70
 Side 2  free  transition at x/c =  0.8110   70
 idif Ue xi dudx           1  0.13460243      2.65192986E-03   50.756405    
 Uenew xinew           2  2.62718573E-02  5.17606735E-04

  11   rms: 0.1284E+00   max: 0.1047E+01   D at    2  1   RLX: 0.641
       a = -1.500      CL = -0.0107
      Cm = -0.0142     CD =  0.01418   =>   CDf =  0.00564    CDp =  0.00854

 MRCHDU: Convergence failed at  74  side 2    Res =  0.5274E+01
 MRCHDU: Convergence failed at  75  side 2    Res =  0.8687E+01
 MRCHDU: Convergence failed at  76  side 2    Res =  0.4862E+01
 MRCHDU: Convergence failed at  77  side 2    Res =  0.5891E+01
 MRCHDU: Convergence failed at  78  side 2    Res =  0.7328E+01
 MRCHDU: Convergence failed at  79  side 2    Res =  0.7269E+01
 MRCHDU: Convergence failed at  80  side 2    Res =  0.6732E+01
 MRCHDU: Convergence failed at  81  side 2    Res =  0.6211E+01
 MRCHDU: Convergence failed at  82  side 2    Res =  0.5787E+01
 MRCHDU: Convergence failed at  83  side 2    Res =  0.5289E+01
 Side 1  free  transition at x/c =  0.8385   69
 Side 2  free  transition at x/c =  0.8554   74

  12   rms: 0.1945E+00   max: 0.1171E+01   C at   74  2
       a = -1.500      CL =  0.0183
      Cm = -0.0162     CD =  0.01228   =>   CDf =  0.00552    CDp =  0.00676

 Side 1  free  transition at x/c =  0.8408   70
 Side 2  free  transition at x/c =  0.8109   70
 idif Ue xi dudx           1  0.13447759      2.64990330E-03   50.748112    
 Uenew xinew           2  2.61647198E-02  5.15580177E-04

  13   rms: 0.1302E+00   max: 0.1104E+01   D at    2  1   RLX: 0.639
       a = -1.500      CL = -0.0106
      Cm = -0.0142     CD =  0.01419   =>   CDf =  0.00564    CDp =  0.00855

 MRCHDU: Convergence failed at  74  side 2    Res =  0.5112E+01
 MRCHDU: Convergence failed at  75  side 2    Res =  0.9096E+01
 MRCHDU: Convergence failed at  76  side 2    Res =  0.4960E+01
 MRCHDU: Convergence failed at  77  side 2    Res =  0.5778E+01
 MRCHDU: Convergence failed at  78  side 2    Res =  0.7163E+01
 MRCHDU: Convergence failed at  79  side 2    Res =  0.7162E+01
 MRCHDU: Convergence failed at  80  side 2    Res =  0.6654E+01
 MRCHDU: Convergence failed at  81  side 2    Res =  0.6154E+01
 MRCHDU: Convergence failed at  82  side 2    Res =  0.5746E+01
 MRCHDU: Convergence failed at  83  side 2    Res =  0.5315E+01
 Side 1  free  transition at x/c =  0.8385   69
 Side 2  free  transition at x/c =  0.8552   74

  14   rms: 0.1946E+00   max: 0.1174E+01   C at   74  2
       a = -1.500      CL =  0.0184
      Cm = -0.0162     CD =  0.01228   =>   CDf =  0.00552    CDp =  0.00676

 Side 1  free  transition at x/c =  0.8408   70
 Side 2  free  transition at x/c =  0.8109   70
 idif Ue xi dudx           1  0.13452563      2.65038013E-03   50.757107    
 Uenew xinew           2  2.61935610E-02  5.16057014E-04

  15   rms: 0.1296E+00   max: 0.1083E+01   D at    2  1   RLX: 0.639
       a = -1.500      CL = -0.0106
      Cm = -0.0142     CD =  0.01418   =>   CDf =  0.00564    CDp =  0.00855

 MRCHDU: Convergence failed at  74  side 2    Res =  0.5066E+01
 MRCHDU: Convergence failed at  75  side 2    Res =  0.8961E+01
 MRCHDU: Convergence failed at  76  side 2    Res =  0.4928E+01
 MRCHDU: Convergence failed at  77  side 2    Res =  0.5814E+01
 MRCHDU: Convergence failed at  78  side 2    Res =  0.7203E+01
 MRCHDU: Convergence failed at  79  side 2    Res =  0.7199E+01
 MRCHDU: Convergence failed at  80  side 2    Res =  0.6681E+01
 MRCHDU: Convergence failed at  81  side 2    Res =  0.6174E+01
 MRCHDU: Convergence failed at  82  side 2    Res =  0.5760E+01
 MRCHDU: Convergence failed at  83  side 2    Res =  0.5306E+01
 Side 1  free  transition at x/c =  0.8385   69
 Side 2  free  transition at x/c =  0.8552   74

  16   rms: 0.1946E+00   max: 0.1173E+01   C at   74  2
       a = -1.500      CL =  0.0184
      Cm = -0.0162     CD =  0.01228   =>   CDf =  0.00552    CDp =  0.00676

 Side 1  free  transition at x/c =  0.8408   70
 Side 2  free  transition at x/c =  0.8109   70
 idif Ue xi dudx           1  0.13451006      2.65026093E-03   50.753513    
 Uenew xinew           2  2.61856560E-02  5.15937805E-04

  17   rms: 0.1298E+00   max: 0.1090E+01   T at    2  1   RLX: 0.639
       a = -1.500      CL = -0.0106
      Cm = -0.0142     CD =  0.01419   =>   CDf =  0.00564    CDp =  0.00855

 MRCHDU: Convergence failed at  74  side 2    Res =  0.5097E+01
 MRCHDU: Convergence failed at  75  side 2    Res =  0.9007E+01
 MRCHDU: Convergence failed at  76  side 2    Res =  0.4939E+01
 MRCHDU: Convergence failed at  77  side 2    Res =  0.5802E+01
 MRCHDU: Convergence failed at  78  side 2    Res =  0.7189E+01
 MRCHDU: Convergence failed at  79  side 2    Res =  0.7186E+01
 MRCHDU: Convergence failed at  80  side 2    Res =  0.6672E+01
 MRCHDU: Convergence failed at  81  side 2    Res =  0.6167E+01
 MRCHDU: Convergence failed at  82  side 2    Res =  0.5755E+01
 MRCHDU: Convergence failed at  83  side 2    Res =  0.5309E+01
 Side 1  free  transition at x/c =  0.8385   69
 Side 2  free  transition at x/c =  0.8552   74

  18   rms: 0.1946E+00   max: 0.1173E+01   C at   74  2
       a = -1.500      CL =  0.0184
      Cm = -0.0162     CD =  0.01228   =>   CDf =  0.00552    CDp =  0.00676

 Side 1  free  transition at x/c =  0.8408   70
 Side 2  free  transition at x/c =  0.8109   70
 idif Ue xi dudx           1  0.13451521      2.65038013E-03   50.753178    
 Uenew xinew           2  2.61915326E-02  5.16057014E-04

  19   rms: 0.1297E+00   max: 0.1089E+01   T at    2  1   RLX: 0.639
       a = -1.500      CL = -0.0106
      Cm = -0.0142     CD =  0.01419   =>   CDf =  0.00564    CDp =  0.00855

 MRCHDU: Convergence failed at  74  side 2    Res =  0.5092E+01
 MRCHDU: Convergence failed at  75  side 2    Res =  0.8991E+01
 MRCHDU: Convergence failed at  76  side 2    Res =  0.4935E+01
 MRCHDU: Convergence failed at  77  side 2    Res =  0.5806E+01
 MRCHDU: Convergence failed at  78  side 2    Res =  0.7194E+01
 MRCHDU: Convergence failed at  79  side 2    Res =  0.7191E+01
 MRCHDU: Convergence failed at  80  side 2    Res =  0.6675E+01
 MRCHDU: Convergence failed at  81  side 2    Res =  0.6170E+01
 MRCHDU: Convergence failed at  82  side 2    Res =  0.5757E+01
 MRCHDU: Convergence failed at  83  side 2    Res =  0.5308E+01
 Side 1  free  transition at x/c =  0.8385   69
 Side 2  free  transition at x/c =  0.8552   74

  20   rms: 0.1946E+00   max: 0.1173E+01   C at   74  2
       a = -1.500      CL =  0.0184
      Cm = -0.0162     CD =  0.01228   =>   CDf =  0.00552    CDp =  0.00676

 Side 1  free  transition at x/c =  0.8408   70
 Side 2  free  transition at x/c =  0.8109   70
 idif Ue xi dudx           1  0.13451284      2.65026093E-03   50.754566    
 Uenew xinew           2  2.61861999E-02  5.15937805E-04

  21   rms: 0.1297E+00   max: 0.1089E+01   T at    2  1   RLX: 0.639
       a = -1.500      CL = -0.0106
      Cm = -0.0142     CD =  0.01419   =>   CDf =  0.00564    CDp =  0.00855

 MRCHDU: Convergence failed at  74  side 2    Res =  0.5093E+01
 MRCHDU: Convergence failed at  75  side 2    Res =  0.8996E+01
 MRCHDU: Convergence failed at  76  side 2    Res =  0.4937E+01
 MRCHDU: Convergence failed at  77  side 2    Res =  0.5805E+01
 MRCHDU: Convergence failed at  78  side 2    Res =  0.7193E+01
 MRCHDU: Convergence failed at  79  side 2    Res =  0.7190E+01
 MRCHDU: Convergence failed at  80  side 2    Res =  0.6674E+01
 MRCHDU: Convergence failed at  81  side 2    Res =  0.6169E+01
 MRCHDU: Convergence failed at  82  side 2    Res =  0.5757E+01
 MRCHDU: Convergence failed at  83  side 2    Res =  0.5308E+01
 Side 1  free  transition at x/c =  0.8385   69
 Side 2  free  transition at x/c =  0.8552   74

  22   rms: 0.1946E+00   max: 0.1173E+01   C at   74  2
       a = -1.500      CL =  0.0184
      Cm = -0.0162     CD =  0.01228   =>   CDf =  0.00552    CDp =  0.00676

 Side 1  free  transition at x/c =  0.8408   70
 Side 2  free  transition at x/c =  0.8109   70
 idif Ue xi dudx           1  0.13451347      2.65026093E-03   50.754803    
 Uenew xinew           2  2.61863209E-02  5.15937805E-04

  23   rms: 0.1297E+00   max: 0.1089E+01   T at    2  1   RLX: 0.639
       a = -1.500      CL = -0.0106
      Cm = -0.0142     CD =  0.01419   =>   CDf =  0.00564    CDp =  0.00855

 MRCHDU: Convergence failed at  74  side 2    Res =  0.5093E+01
 MRCHDU: Convergence failed at  75  side 2    Res =  0.8995E+01
 MRCHDU: Convergence failed at  76  side 2    Res =  0.4936E+01
 MRCHDU: Convergence failed at  77  side 2    Res =  0.5805E+01
 MRCHDU: Convergence failed at  78  side 2    Res =  0.7193E+01
 MRCHDU: Convergence failed at  79  side 2    Res =  0.7190E+01
 MRCHDU: Convergence failed at  80  side 2    Res =  0.6674E+01
 MRCHDU: Convergence failed at  81  side 2    Res =  0.6169E+01
 MRCHDU: Convergence failed at  82  side 2    Res =  0.5757E+01
 MRCHDU: Convergence failed at  83  side 2    Res =  0.5308E+01
 Side 1  free  transition at x/c =  0.8385   69
 Side 2  free  transition at x/c =  0.8552   74

  24   rms: 0.1946E+00   max: 0.1173E+01   C at   74  2
       a = -1.500      CL =  0.0184
      Cm = -0.0162     CD =  0.01228   =>   CDf =  0.00552    CDp =  0.00676

 Side 1  free  transition at x/c =  0.8408   70
 Side 2  free  transition at x/c =  0.8109   70
 idif Ue xi dudx           1  0.13451345      2.65026093E-03   50.754795    
 Uenew xinew           2  2.61863172E-02  5.15937805E-04

  25   rms: 0.1297E+00   max: 0.1089E+01   T at    2  1   RLX: 0.639
       a = -1.500      CL = -0.0106
      Cm = -0.0142     CD =  0.01419   =>   CDf =  0.00564    CDp =  0.00855

 MRCHDU: Convergence failed at  74  side 2    Res =  0.5092E+01
 MRCHDU: Convergence failed at  75  side 2    Res =  0.8994E+01
 MRCHDU: Convergence failed at  76  side 2    Res =  0.4936E+01
 MRCHDU: Convergence failed at  77  side 2    Res =  0.5805E+01
 MRCHDU: Convergence failed at  78  side 2    Res =  0.7193E+01
 MRCHDU: Convergence failed at  79  side 2    Res =  0.7190E+01
 MRCHDU: Convergence failed at  80  side 2    Res =  0.6675E+01
 MRCHDU: Convergence failed at  81  side 2    Res =  0.6169E+01
 MRCHDU: Convergence failed at  82  side 2    Res =  0.5757E+01
 MRCHDU: Convergence failed at  83  side 2    Res =  0.5308E+01
 Side 1  free  transition at x/c =  0.8385   69
 Side 2  free  transition at x/c =  0.8552   74

  26   rms: 0.1946E+00   max: 0.1173E+01   C at   74  2
       a = -1.500      CL =  0.0184
      Cm = -0.0162     CD =  0.01228   =>   CDf =  0.00552    CDp =  0.00676

 Side 1  free  transition at x/c =  0.8408   70
 Side 2  free  transition at x/c =  0.8109   70
 idif Ue xi dudx           1  0.13451310      2.65026093E-03   50.754662    
 Uenew xinew           2  2.61862483E-02  5.15937805E-04

  27   rms: 0.1297E+00   max: 0.1089E+01   T at    2  1   RLX: 0.639
       a = -1.500      CL = -0.0106
      Cm = -0.0142     CD =  0.01419   =>   CDf =  0.00564    CDp =  0.00855

 MRCHDU: Convergence failed at  74  side 2    Res =  0.5093E+01
 MRCHDU: Convergence failed at  75  side 2    Res =  0.8995E+01
 MRCHDU: Convergence failed at  76  side 2    Res =  0.4937E+01
 MRCHDU: Convergence failed at  77  side 2    Res =  0.5805E+01
 MRCHDU: Convergence failed at  78  side 2    Res =  0.7193E+01
 MRCHDU: Convergence failed at  79  side 2    Res =  0.7190E+01
 MRCHDU: Convergence failed at  80  side 2    Res =  0.6674E+01
 MRCHDU: Convergence failed at  81  side 2    Res =  0.6169E+01
 MRCHDU: Convergence failed at  82  side 2    Res =  0.5757E+01
 MRCHDU: Convergence failed at  83  side 2    Res =  0.5308E+01
 Side 1  free  transition at x/c =  0.8385   69
 Side 2  free  transition at x/c =  0.8552   74

  28   rms: 0.1946E+00   max: 0.1173E+01   C at   74  2
       a = -1.500      CL =  0.0184
      Cm = -0.0162     CD =  0.01228   =>   CDf =  0.00552    CDp =  0.00676

 Side 1  free  transition at x/c =  0.8408   70
 Side 2  free  transition at x/c =  0.8109   70
 idif Ue xi dudx           1  0.13451378      2.65026093E-03   50.754921    
 Uenew xinew           2  2.61863824E-02  5.15937805E-04

  29   rms: 0.1297E+00   max: 0.1089E+01   T at    2  1   RLX: 0.639
       a = -1.500      CL = -0.0106
      Cm = -0.0142     CD =  0.01419   =>   CDf =  0.00564    CDp =  0.00855

 MRCHDU: Convergence failed at  74  side 2    Res =  0.5093E+01
 MRCHDU: Convergence failed at  75  side 2    Res =  0.8995E+01
 MRCHDU: Convergence failed at  76  side 2    Res =  0.4936E+01
 MRCHDU: Convergence failed at  77  side 2    Res =  0.5805E+01
 MRCHDU: Convergence failed at  78  side 2    Res =  0.7193E+01
 MRCHDU: Convergence failed at  79  side 2    Res =  0.7190E+01
 MRCHDU: Convergence failed at  80  side 2    Res =  0.6674E+01
 MRCHDU: Convergence failed at  81  side 2    Res =  0.6169E+01
 MRCHDU: Convergence failed at  82  side 2    Res =  0.5757E+01
 MRCHDU: Convergence failed at  83  side 2    Res =  0.5308E+01
 Side 1  free  transition at x/c =  0.8385   69
 Side 2  free  transition at x/c =  0.8552   74

  30   rms: 0.1946E+00   max: 0.1173E+01   C at   74  2
       a = -1.500      CL =  0.0184
      Cm = -0.0162     CD =  0.01228   =>   CDf =  0.00552    CDp =  0.00676

 Side 1  free  transition at x/c =  0.8408   70
 Side 2  free  transition at x/c =  0.8109   70
 idif Ue xi dudx           1  0.13451397      2.65026093E-03   50.754993    
 Uenew xinew           2  2.61864197E-02  5.15937805E-04

  31   rms: 0.1297E+00   max: 0.1089E+01   T at    2  1   RLX: 0.639
       a = -1.500      CL = -0.0106
      Cm = -0.0142     CD =  0.01419   =>   CDf =  0.00564    CDp =  0.00855

 MRCHDU: Convergence failed at  74  side 2    Res =  0.5093E+01
 MRCHDU: Convergence failed at  75  side 2    Res =  0.8995E+01
 MRCHDU: Convergence failed at  76  side 2    Res =  0.4936E+01
 MRCHDU: Convergence failed at  77  side 2    Res =  0.5805E+01
 MRCHDU: Convergence failed at  78  side 2    Res =  0.7193E+01
 MRCHDU: Convergence failed at  79  side 2    Res =  0.7190E+01
 MRCHDU: Convergence failed at  80  side 2    Res =  0.6674E+01
 MRCHDU: Convergence failed at  81  side 2    Res =  0.6169E+01
 MRCHDU: Convergence failed at  82  side 2    Res =  0.5757E+01
 MRCHDU: Convergence failed at  83  side 2    Res =  0.5308E+01
 Side 1  free  transition at x/c =  0.8385   69
 Side 2  free  transition at x/c =  0.8552   74

  32   rms: 0.1946E+00   max: 0.1173E+01   C at   74  2
       a = -1.500      CL =  0.0184
      Cm = -0.0162     CD =  0.01228   =>   CDf =  0.00552    CDp =  0.00676

 Side 1  free  transition at x/c =  0.8408   70
 Side 2  free  transition at x/c =  0.8109   70
 idif Ue xi dudx           1  0.13451378      2.65026093E-03   50.754921    
 Uenew xinew           2  2.61863824E-02  5.15937805E-04

  33   rms: 0.1297E+00   max: 0.1089E+01   T at    2  1   RLX: 0.639
       a = -1.500      CL = -0.0106
      Cm = -0.0142     CD =  0.01419   =>   CDf =  0.00564    CDp =  0.00855

 MRCHDU: Convergence failed at  74  side 2    Res =  0.5093E+01
 MRCHDU: Convergence failed at  75  side 2    Res =  0.8995E+01
 MRCHDU: Convergence failed at  76  side 2    Res =  0.4936E+01
 MRCHDU: Convergence failed at  77  side 2    Res =  0.5805E+01
 MRCHDU: Convergence failed at  78  side 2    Res =  0.7193E+01
 MRCHDU: Convergence failed at  79  side 2    Res =  0.7190E+01
 MRCHDU: Convergence failed at  80  side 2    Res =  0.6674E+01
 MRCHDU: Convergence failed at  81  side 2    Res =  0.6169E+01
 MRCHDU: Convergence failed at  82  side 2    Res =  0.5757E+01
 MRCHDU: Convergence failed at  83  side 2    Res =  0.5308E+01
 Side 1  free  transition at x/c =  0.8385   69
 Side 2  free  transition at x/c =  0.8552   74

  34   rms: 0.1946E+00   max: 0.1173E+01   C at   74  2
       a = -1.500      CL =  0.0184
      Cm = -0.0162     CD =  0.01228   =>   CDf =  0.00552    CDp =  0.00676

 Side 1  free  transition at x/c =  0.8408   70
 Side 2  free  transition at x/c =  0.8109   70
 idif Ue xi dudx           1  0.13451356      2.65026093E-03   50.754837    
 Uenew xinew           2  2.61863396E-02  5.15937805E-04

  35   rms: 0.1297E+00   max: 0.1089E+01   T at    2  1   RLX: 0.639
       a = -1.500      CL = -0.0106
      Cm = -0.0142     CD =  0.01419   =>   CDf =  0.00564    CDp =  0.00855

 MRCHDU: Convergence failed at  74  side 2    Res =  0.5093E+01
 MRCHDU: Convergence failed at  75  side 2    Res =  0.8994E+01
 MRCHDU: Convergence failed at  76  side 2    Res =  0.4936E+01
 MRCHDU: Convergence failed at  77  side 2    Res =  0.5805E+01
 MRCHDU: Convergence failed at  78  side 2    Res =  0.7193E+01
 MRCHDU: Convergence failed at  79  side 2    Res =  0.7190E+01
 MRCHDU: Convergence failed at  80  side 2    Res =  0.6674E+01
 MRCHDU: Convergence failed at  81  side 2    Res =  0.6169E+01
 MRCHDU: Convergence failed at  82  side 2    Res =  0.5757E+01
 MRCHDU: Convergence failed at  83  side 2    Res =  0.5308E+01
 Side 1  free  transition at x/c =  0.8385   69
 Side 2  free  transition at x/c =  0.8552   74

  36   rms: 0.1946E+00   max: 0.1173E+01   C at   74  2
       a = -1.500      CL =  0.0184
      Cm = -0.0162     CD =  0.01228   =>   CDf =  0.00552    CDp =  0.00676

 Side 1  free  transition at x/c =  0.8408   70
 Side 2  free  transition at x/c =  0.8109   70
 idif Ue xi dudx           1  0.13451342      2.65026093E-03   50.754784    
 Uenew xinew           2  2.61863116E-02  5.15937805E-04

  37   rms: 0.1297E+00   max: 0.1089E+01   T at    2  1   RLX: 0.639
       a = -1.500      CL = -0.0106
      Cm = -0.0142     CD =  0.01419   =>   CDf =  0.00564    CDp =  0.00855

 MRCHDU: Convergence failed at  74  side 2    Res =  0.5093E+01
 MRCHDU: Convergence failed at  75  side 2    Res =  0.8995E+01
 MRCHDU: Convergence failed at  76  side 2    Res =  0.4936E+01
 MRCHDU: Convergence failed at  77  side 2    Res =  0.5805E+01
 MRCHDU: Convergence failed at  78  side 2    Res =  0.7193E+01
 MRCHDU: Convergence failed at  79  side 2    Res =  0.7190E+01
 MRCHDU: Convergence failed at  80  side 2    Res =  0.6674E+01
 MRCHDU: Convergence failed at  81  side 2    Res =  0.6169E+01
 MRCHDU: Convergence failed at  82  side 2    Res =  0.5757E+01
 MRCHDU: Convergence failed at  83  side 2    Res =  0.5308E+01
 Side 1  free  transition at x/c =  0.8385   69
 Side 2  free  transition at x/c =  0.8552   74

  38   rms: 0.1946E+00   max: 0.1173E+01   C at   74  2
       a = -1.500      CL =  0.0184
      Cm = -0.0162     CD =  0.01228   =>   CDf =  0.00552    CDp =  0.00676

 Side 1  free  transition at x/c =  0.8408   70
 Side 2  free  transition at x/c =  0.8109   70
 idif Ue xi dudx           1  0.13451332      2.65026093E-03   50.754745    
 Uenew xinew           2  2.61862911E-02  5.15937805E-04

  39   rms: 0.1297E+00   max: 0.1089E+01   T at    2  1   RLX: 0.639
       a = -1.500      CL = -0.0106
      Cm = -0.0142     CD =  0.01419   =>   CDf =  0.00564    CDp =  0.00855

 MRCHDU: Convergence failed at  74  side 2    Res =  0.5093E+01
 MRCHDU: Convergence failed at  75  side 2    Res =  0.8995E+01
 MRCHDU: Convergence failed at  76  side 2    Res =  0.4936E+01
 MRCHDU: Convergence failed at  77  side 2    Res =  0.5805E+01
 MRCHDU: Convergence failed at  78  side 2    Res =  0.7193E+01
 MRCHDU: Convergence failed at  79  side 2    Res =  0.7190E+01
 MRCHDU: Convergence failed at  80  side 2    Res =  0.6674E+01
 MRCHDU: Convergence failed at  81  side 2    Res =  0.6169E+01
 MRCHDU: Convergence failed at  82  side 2    Res =  0.5757E+01
 MRCHDU: Convergence failed at  83  side 2    Res =  0.5308E+01
 Side 1  free  transition at x/c =  0.8385   69
 Side 2  free  transition at x/c =  0.8552   74

  40   rms: 0.1946E+00   max: 0.1173E+01   C at   74  2
       a = -1.500      CL =  0.0184
      Cm = -0.0162     CD =  0.01228   =>   CDf =  0.00552    CDp =  0.00676

 Side 1  free  transition at x/c =  0.8408   70
 Side 2  free  transition at x/c =  0.8109   70
 idif Ue xi dudx           1  0.13451354      2.65026093E-03   50.754829    
 Uenew xinew           2  2.61863358E-02  5.15937805E-04

  41   rms: 0.1297E+00   max: 0.1089E+01   D at    2  1   RLX: 0.639
       a = -1.500      CL = -0.0106
      Cm = -0.0142     CD =  0.01419   =>   CDf =  0.00564    CDp =  0.00855

 MRCHDU: Convergence failed at  74  side 2    Res =  0.5092E+01
 MRCHDU: Convergence failed at  75  side 2    Res =  0.8994E+01
 MRCHDU: Convergence failed at  76  side 2    Res =  0.4936E+01
 MRCHDU: Convergence failed at  77  side 2    Res =  0.5805E+01
 MRCHDU: Convergence failed at  78  side 2    Res =  0.7193E+01
 MRCHDU: Convergence failed at  79  side 2    Res =  0.7190E+01
 MRCHDU: Convergence failed at  80  side 2    Res =  0.6675E+01
 MRCHDU: Convergence failed at  81  side 2    Res =  0.6169E+01
 MRCHDU: Convergence failed at  82  side 2    Res =  0.5757E+01
 MRCHDU: Convergence failed at  83  side 2    Res =  0.5308E+01
 Side 1  free  transition at x/c =  0.8385   69
 Side 2  free  transition at x/c =  0.8552   74

  42   rms: 0.1946E+00   max: 0.1173E+01   C at   74  2
       a = -1.500      CL =  0.0184
      Cm = -0.0162     CD =  0.01228   =>   CDf =  0.00552    CDp =  0.00676

 Side 1  free  transition at x/c =  0.8408   70
 Side 2  free  transition at x/c =  0.8109   70
 idif Ue xi dudx           1  0.13451381      2.65026093E-03   50.754932    
 Uenew xinew           2  2.61863880E-02  5.15937805E-04

  43   rms: 0.1297E+00   max: 0.1089E+01   D at    2  1   RLX: 0.639
       a = -1.500      CL = -0.0106
      Cm = -0.0142     CD =  0.01419   =>   CDf =  0.00564    CDp =  0.00855

 MRCHDU: Convergence failed at  74  side 2    Res =  0.5094E+01
 MRCHDU: Convergence failed at  75  side 2    Res =  0.8996E+01
 MRCHDU: Convergence failed at  76  side 2    Res =  0.4937E+01
 MRCHDU: Convergence failed at  77  side 2    Res =  0.5805E+01
 MRCHDU: Convergence failed at  78  side 2    Res =  0.7193E+01
 MRCHDU: Convergence failed at  79  side 2    Res =  0.7189E+01
 MRCHDU: Convergence failed at  80  side 2    Res =  0.6674E+01
 MRCHDU: Convergence failed at  81  side 2    Res =  0.6169E+01
 MRCHDU: Convergence failed at  82  side 2    Res =  0.5756E+01
 MRCHDU: Convergence failed at  83  side 2    Res =  0.5308E+01
 Side 1  free  transition at x/c =  0.8385   69
 Side 2  free  transition at x/c =  0.8552   74

  44   rms: 0.1946E+00   max: 0.1173E+01   C at   74  2
       a = -1.500      CL =  0.0184
      Cm = -0.0162     CD =  0.01228   =>   CDf =  0.00552    CDp =  0.00676

 Side 1  free  transition at x/c =  0.8408   70
 Side 2  free  transition at x/c =  0.8109   70
 idif Ue xi dudx           1  0.13451387      2.65026093E-03   50.754955    
 Uenew xinew           2  2.61864010E-02  5.15937805E-04

  45   rms: 0.1297E+00   max: 0.1089E+01   T at    2  1   RLX: 0.639
       a = -1.500      CL = -0.0106
      Cm = -0.0142     CD =  0.01419   =>   CDf =  0.00564    CDp =  0.00855

 MRCHDU: Convergence failed at  74  side 2    Res =  0.5093E+01
 MRCHDU: Convergence failed at  75  side 2    Res =  0.8994E+01
 MRCHDU: Convergence failed at  76  side 2    Res =  0.4936E+01
 MRCHDU: Convergence failed at  77  side 2    Res =  0.5805E+01
 MRCHDU: Convergence failed at  78  side 2    Res =  0.7193E+01
 MRCHDU: Convergence failed at  79  side 2    Res =  0.7190E+01
 MRCHDU: Convergence failed at  80  side 2    Res =  0.6674E+01
 MRCHDU: Convergence failed at  81  side 2    Res =  0.6169E+01
 MRCHDU: Convergence failed at  82  side 2    Res =  0.5757E+01
 MRCHDU: Convergence failed at  83  side 2    Res =  0.5308E+01
 Side 1  free  transition at x/c =  0.8385   69
 Side 2  free  transition at x/c =  0.8552   74

  46   rms: 0.1946E+00   max: 0.1173E+01   C at   74  2
       a = -1.500      CL =  0.0184
      Cm = -0.0162     CD =  0.01228   =>   CDf =  0.00552    CDp =  0.00676

 Side 1  free  transition at x/c =  0.8408   70
 Side 2  free  transition at x/c =  0.8109   70
 idif Ue xi dudx           1  0.13451387      2.65026093E-03   50.754955    
 Uenew xinew           2  2.61864010E-02  5.15937805E-04

  47   rms: 0.1297E+00   max: 0.1089E+01   T at    2  1   RLX: 0.639
       a = -1.500      CL = -0.0106
      Cm = -0.0142     CD =  0.01419   =>   CDf =  0.00564    CDp =  0.00855

 MRCHDU: Convergence failed at  74  side 2    Res =  0.5093E+01
 MRCHDU: Convergence failed at  75  side 2    Res =  0.8995E+01
 MRCHDU: Convergence failed at  76  side 2    Res =  0.4936E+01
 MRCHDU: Convergence failed at  77  side 2    Res =  0.5805E+01
 MRCHDU: Convergence failed at  78  side 2    Res =  0.7193E+01
 MRCHDU: Convergence failed at  79  side 2    Res =  0.7190E+01
 MRCHDU: Convergence failed at  80  side 2    Res =  0.6674E+01
 MRCHDU: Convergence failed at  81  side 2    Res =  0.6169E+01
 MRCHDU: Convergence failed at  82  side 2    Res =  0.5757E+01
 MRCHDU: Convergence failed at  83  side 2    Res =  0.5308E+01
 Side 1  free  transition at x/c =  0.8385   69
 Side 2  free  transition at x/c =  0.8552   74

  48   rms: 0.1946E+00   max: 0.1173E+01   C at   74  2
       a = -1.500      CL =  0.0184
      Cm = -0.0162     CD =  0.01228   =>   CDf =  0.00552    CDp =  0.00676

 Side 1  free  transition at x/c =  0.8408   70
 Side 2  free  transition at x/c =  0.8109   70
 idif Ue xi dudx           1  0.13451399      2.65026093E-03   50.754997    
 Uenew xinew           2  2.61864215E-02  5.15937805E-04

  49   rms: 0.1297E+00   max: 0.1089E+01   T at    2  1   RLX: 0.639
       a = -1.500      CL = -0.0106
      Cm = -0.0142     CD =  0.01419   =>   CDf =  0.00564    CDp =  0.00855

 MRCHDU: Convergence failed at  74  side 2    Res =  0.5093E+01
 MRCHDU: Convergence failed at  75  side 2    Res =  0.8995E+01
 MRCHDU: Convergence failed at  76  side 2    Res =  0.4936E+01
 MRCHDU: Convergence failed at  77  side 2    Res =  0.5805E+01
 MRCHDU: Convergence failed at  78  side 2    Res =  0.7193E+01
 MRCHDU: Convergence failed at  79  side 2    Res =  0.7190E+01
 MRCHDU: Convergence failed at  80  side 2    Res =  0.6674E+01
 MRCHDU: Convergence failed at  81  side 2    Res =  0.6169E+01
 MRCHDU: Convergence failed at  82  side 2    Res =  0.5757E+01
 MRCHDU: Convergence failed at  83  side 2    Res =  0.5308E+01
 Side 1  free  transition at x/c =  0.8385   69
 Side 2  free  transition at x/c =  0.8552   74

  50   rms: 0.1946E+00   max: 0.1173E+01   C at   74  2
       a = -1.500      CL =  0.0184
      Cm = -0.0162     CD =  0.01228   =>   CDf =  0.00552    CDp =  0.00676

 Side 1  free  transition at x/c =  0.8408   70
 Side 2  free  transition at x/c =  0.8109   70
 idif Ue xi dudx           1  0.13451362      2.65026093E-03   50.754856    
 Uenew xinew           2  2.61863489E-02  5.15937805E-04

  51   rms: 0.1297E+00   max: 0.1089E+01   T at    2  1   RLX: 0.639
       a = -1.500      CL = -0.0106
      Cm = -0.0142     CD =  0.01419   =>   CDf =  0.00564    CDp =  0.00855

 MRCHDU: Convergence failed at  74  side 2    Res =  0.5092E+01
 MRCHDU: Convergence failed at  75  side 2    Res =  0.8994E+01
 MRCHDU: Convergence failed at  76  side 2    Res =  0.4936E+01
 MRCHDU: Convergence failed at  77  side 2    Res =  0.5805E+01
 MRCHDU: Convergence failed at  78  side 2    Res =  0.7193E+01
 MRCHDU: Convergence failed at  79  side 2    Res =  0.7190E+01
 MRCHDU: Convergence failed at  80  side 2    Res =  0.6675E+01
 MRCHDU: Convergence failed at  81  side 2    Res =  0.6169E+01
 MRCHDU: Convergence failed at  82  side 2    Res =  0.5757E+01
 MRCHDU: Convergence failed at  83  side 2    Res =  0.5308E+01
 Side 1  free  transition at x/c =  0.8385   69
 Side 2  free  transition at x/c =  0.8552   74

  52   rms: 0.1946E+00   max: 0.1173E+01   C at   74  2
       a = -1.500      CL =  0.0184
      Cm = -0.0162     CD =  0.01228   =>   CDf =  0.00552    CDp =  0.00676

 Side 1  free  transition at x/c =  0.8408   70
 Side 2  free  transition at x/c =  0.8109   70
 idif Ue xi dudx           1  0.13451298      2.65026093E-03   50.754616    
 Uenew xinew           2  2.61862259E-02  5.15937805E-04

  53   rms: 0.1297E+00   max: 0.1089E+01   T at    2  1   RLX: 0.639
       a = -1.500      CL = -0.0106
      Cm = -0.0142     CD =  0.01419   =>   CDf =  0.00564    CDp =  0.00855

 MRCHDU: Convergence failed at  74  side 2    Res =  0.5092E+01
 MRCHDU: Convergence failed at  75  side 2    Res =  0.8995E+01
 MRCHDU: Convergence failed at  76  side 2    Res =  0.4937E+01
 MRCHDU: Convergence failed at  77  side 2    Res =  0.5805E+01
 MRCHDU: Convergence failed at  78  side 2    Res =  0.7193E+01
 MRCHDU: Convergence failed at  79  side 2    Res =  0.7190E+01
 MRCHDU: Convergence failed at  80  side 2    Res =  0.6674E+01
 MRCHDU: Convergence failed at  81  side 2    Res =  0.6169E+01
 MRCHDU: Convergence failed at  82  side 2    Res =  0.5757E+01
 MRCHDU: Convergence failed at  83  side 2    Res =  0.5308E+01
 Side 1  free  transition at x/c =  0.8385   69
 Side 2  free  transition at x/c =  0.8552   74

  54   rms: 0.1946E+00   max: 0.1173E+01   C at   74  2
       a = -1.500      CL =  0.0184
      Cm = -0.0162     CD =  0.01228   =>   CDf =  0.00552    CDp =  0.00676

 Side 1  free  transition at x/c =  0.8408   70
 Side 2  free  transition at x/c =  0.8109   70
 idif Ue xi dudx           1  0.13451329      2.65026093E-03   50.754734    
 Uenew xinew           2  2.61862855E-02  5.15937805E-04

  55   rms: 0.1297E+00   max: 0.1089E+01   T at    2  1   RLX: 0.639
       a = -1.500      CL = -0.0106
      Cm = -0.0142     CD =  0.01419   =>   CDf =  0.00564    CDp =  0.00855

 MRCHDU: Convergence failed at  74  side 2    Res =  0.5093E+01
 MRCHDU: Convergence failed at  75  side 2    Res =  0.8995E+01
 MRCHDU: Convergence failed at  76  side 2    Res =  0.4937E+01
 MRCHDU: Convergence failed at  77  side 2    Res =  0.5805E+01
 MRCHDU: Convergence failed at  78  side 2    Res =  0.7193E+01
 MRCHDU: Convergence failed at  79  side 2    Res =  0.7190E+01
 MRCHDU: Convergence failed at  80  side 2    Res =  0.6674E+01
 MRCHDU: Convergence failed at  81  side 2    Res =  0.6169E+01
 MRCHDU: Convergence failed at  82  side 2    Res =  0.5757E+01
 MRCHDU: Convergence failed at  83  side 2    Res =  0.5308E+01
 Side 1  free  transition at x/c =  0.8385   69
 Side 2  free  transition at x/c =  0.8552   74

  56   rms: 0.1946E+00   max: 0.1173E+01   C at   74  2
       a = -1.500      CL =  0.0184
      Cm = -0.0162     CD =  0.01228   =>   CDf =  0.00552    CDp =  0.00676

 Side 1  free  transition at x/c =  0.8408   70
 Side 2  free  transition at x/c =  0.8109   70
 idif Ue xi dudx           1  0.13451396      2.65026093E-03   50.754986    
 Uenew xinew           2  2.61864159E-02  5.15937805E-04

  57   rms: 0.1297E+00   max: 0.1089E+01   T at    2  1   RLX: 0.639
       a = -1.500      CL = -0.0106
      Cm = -0.0142     CD =  0.01419   =>   CDf =  0.00564    CDp =  0.00855

 MRCHDU: Convergence failed at  74  side 2    Res =  0.5094E+01
 MRCHDU: Convergence failed at  75  side 2    Res =  0.8995E+01
 MRCHDU: Convergence failed at  76  side 2    Res =  0.4936E+01
 MRCHDU: Convergence failed at  77  side 2    Res =  0.5805E+01
 MRCHDU: Convergence failed at  78  side 2    Res =  0.7193E+01
 MRCHDU: Convergence failed at  79  side 2    Res =  0.7190E+01
 MRCHDU: Convergence failed at  80  side 2    Res =  0.6674E+01
 MRCHDU: Convergence failed at  81  side 2    Res =  0.6169E+01
 MRCHDU: Convergence failed at  82  side 2    Res =  0.5757E+01
 MRCHDU: Convergence failed at  83  side 2    Res =  0.5308E+01
 Side 1  free  transition at x/c =  0.8385   69
 Side 2  free  transition at x/c =  0.8552   74

  58   rms: 0.1946E+00   max: 0.1173E+01   C at   74  2
       a = -1.500      CL =  0.0184
      Cm = -0.0162     CD =  0.01228   =>   CDf =  0.00552    CDp =  0.00676

 Side 1  free  transition at x/c =  0.8408   70
 Side 2  free  transition at x/c =  0.8109   70
 idif Ue xi dudx           1  0.13451418      2.65026093E-03   50.755070    
 Uenew xinew           2  2.61864588E-02  5.15937805E-04

  59   rms: 0.1297E+00   max: 0.1089E+01   T at    2  1   RLX: 0.639
       a = -1.500      CL = -0.0106
      Cm = -0.0142     CD =  0.01419   =>   CDf =  0.00564    CDp =  0.00855

 MRCHDU: Convergence failed at  74  side 2    Res =  0.5094E+01
 MRCHDU: Convergence failed at  75  side 2    Res =  0.8995E+01
 MRCHDU: Convergence failed at  76  side 2    Res =  0.4936E+01
 MRCHDU: Convergence failed at  77  side 2    Res =  0.5805E+01
 MRCHDU: Convergence failed at  78  side 2    Res =  0.7192E+01
 MRCHDU: Convergence failed at  79  side 2    Res =  0.7189E+01
 MRCHDU: Convergence failed at  80  side 2    Res =  0.6674E+01
 MRCHDU: Convergence failed at  81  side 2    Res =  0.6169E+01
 MRCHDU: Convergence failed at  82  side 2    Res =  0.5756E+01
 MRCHDU: Convergence failed at  83  side 2    Res =  0.5308E+01
 Side 1  free  transition at x/c =  0.8385   69
 Side 2  free  transition at x/c =  0.8552   74

  60   rms: 0.1946E+00   max: 0.1173E+01   C at   74  2
       a = -1.500      CL =  0.0184
      Cm = -0.0162     CD =  0.01228   =>   CDf =  0.00552    CDp =  0.00676

 Side 1  free  transition at x/c =  0.8408   70
 Side 2  free  transition at x/c =  0.8109   70
 idif Ue xi dudx           1  0.13451365      2.65026093E-03   50.754868    
 Uenew xinew           2  2.61863545E-02  5.15937805E-04

  61   rms: 0.1297E+00   max: 0.1089E+01   T at    2  1   RLX: 0.639
       a = -1.500      CL = -0.0106
      Cm = -0.0142     CD =  0.01419   =>   CDf =  0.00564    CDp =  0.00855

 MRCHDU: Convergence failed at  74  side 2    Res =  0.5092E+01
 MRCHDU: Convergence failed at  75  side 2    Res =  0.8994E+01
 MRCHDU: Convergence failed at  76  side 2    Res =  0.4936E+01
 MRCHDU: Convergence failed at  77  side 2    Res =  0.5805E+01
 MRCHDU: Convergence failed at  78  side 2    Res =  0.7194E+01
 MRCHDU: Convergence failed at  79  side 2    Res =  0.7190E+01
 MRCHDU: Convergence failed at  80  side 2    Res =  0.6675E+01
 MRCHDU: Convergence failed at  81  side 2    Res =  0.6169E+01
 MRCHDU: Convergence failed at  82  side 2    Res =  0.5757E+01
 MRCHDU: Convergence failed at  83  side 2    Res =  0.5308E+01
 Side 1  free  transition at x/c =  0.8385   69
 Side 2  free  transition at x/c =  0.8552   74

  62   rms: 0.1946E+00   max: 0.1173E+01   C at   74  2
       a = -1.500      CL =  0.0184
      Cm = -0.0162     CD =  0.01228   =>   CDf =  0.00552    CDp =  0.00676

 Side 1  free  transition at x/c =  0.8408   70
 Side 2  free  transition at x/c =  0.8109   70
 idif Ue xi dudx           1  0.13451323      2.65026093E-03   50.754711    
 Uenew xinew           2  2.61862744E-02  5.15937805E-04

  63   rms: 0.1297E+00   max: 0.1089E+01   T at    2  1   RLX: 0.639
       a = -1.500      CL = -0.0106
      Cm = -0.0142     CD =  0.01419   =>   CDf =  0.00564    CDp =  0.00855

 MRCHDU: Convergence failed at  74  side 2    Res =  0.5094E+01
 MRCHDU: Convergence failed at  75  side 2    Res =  0.8996E+01
 MRCHDU: Convergence failed at  76  side 2    Res =  0.4937E+01
 MRCHDU: Convergence failed at  77  side 2    Res =  0.5804E+01
 MRCHDU: Convergence failed at  78  side 2    Res =  0.7192E+01
 MRCHDU: Convergence failed at  79  side 2    Res =  0.7189E+01
 MRCHDU: Convergence failed at  80  side 2    Res =  0.6674E+01
 MRCHDU: Convergence failed at  81  side 2    Res =  0.6169E+01
 MRCHDU: Convergence failed at  82  side 2    Res =  0.5756E+01
 MRCHDU: Convergence failed at  83  side 2    Res =  0.5308E+01
 Side 1  free  transition at x/c =  0.8385   69
 Side 2  free  transition at x/c =  0.8552   74

  64   rms: 0.1946E+00   max: 0.1173E+01   C at   74  2
       a = -1.500      CL =  0.0184
      Cm = -0.0162     CD =  0.01228   =>   CDf =  0.00552    CDp =  0.00676

 Side 1  free  transition at x/c =  0.8408   70
 Side 2  free  transition at x/c =  0.8109   70
 idif Ue xi dudx           1  0.13451372      2.65026093E-03   50.754898    
 Uenew xinew           2  2.61863712E-02  5.15937805E-04

  65   rms: 0.1297E+00   max: 0.1089E+01   T at    2  1   RLX: 0.639
       a = -1.500      CL = -0.0106
      Cm = -0.0142     CD =  0.01419   =>   CDf =  0.00564    CDp =  0.00855

 MRCHDU: Convergence failed at  74  side 2    Res =  0.5092E+01
 MRCHDU: Convergence failed at  75  side 2    Res =  0.8994E+01
 MRCHDU: Convergence failed at  76  side 2    Res =  0.4936E+01
 MRCHDU: Convergence failed at  77  side 2    Res =  0.5805E+01
 MRCHDU: Convergence failed at  78  side 2    Res =  0.7193E+01
 MRCHDU: Convergence failed at  79  side 2    Res =  0.7190E+01
 MRCHDU: Convergence failed at  80  side 2    Res =  0.6675E+01
 MRCHDU: Convergence failed at  81  side 2    Res =  0.6169E+01
 MRCHDU: Convergence failed at  82  side 2    Res =  0.5757E+01
 MRCHDU: Convergence failed at  83  side 2    Res =  0.5308E+01
 Side 1  free  transition at x/c =  0.8385   69
 Side 2  free  transition at x/c =  0.8552   74

  66   rms: 0.1946E+00   max: 0.1173E+01   C at   74  2
       a = -1.500      CL =  0.0184
      Cm = -0.0162     CD =  0.01228   =>   CDf =  0.00552    CDp =  0.00676

 Side 1  free  transition at x/c =  0.8408   70
 Side 2  free  transition at x/c =  0.8109   70
 idif Ue xi dudx           1  0.13451354      2.65026093E-03   50.754829    
 Uenew xinew           2  2.61863358E-02  5.15937805E-04

  67   rms: 0.1297E+00   max: 0.1089E+01   T at    2  1   RLX: 0.639
       a = -1.500      CL = -0.0106
      Cm = -0.0142     CD =  0.01419   =>   CDf =  0.00564    CDp =  0.00855

 MRCHDU: Convergence failed at  74  side 2    Res =  0.5093E+01
 MRCHDU: Convergence failed at  75  side 2    Res =  0.8996E+01
 MRCHDU: Convergence failed at  76  side 2    Res =  0.4937E+01
 MRCHDU: Convergence failed at  77  side 2    Res =  0.5805E+01
 MRCHDU: Convergence failed at  78  side 2    Res =  0.7193E+01
 MRCHDU: Convergence failed at  79  side 2    Res =  0.7190E+01
 MRCHDU: Convergence failed at  80  side 2    Res =  0.6674E+01
 MRCHDU: Convergence failed at  81  side 2    Res =  0.6169E+01
 MRCHDU: Convergence failed at  82  side 2    Res =  0.5756E+01
 MRCHDU: Convergence failed at  83  side 2    Res =  0.5308E+01
 Side 1  free  transition at x/c =  0.8385   69
 Side 2  free  transition at x/c =  0.8552   74

  68   rms: 0.1946E+00   max: 0.1173E+01   C at   74  2
       a = -1.500      CL =  0.0184
      Cm = -0.0162     CD =  0.01228   =>   CDf =  0.00552    CDp =  0.00676

 Side 1  free  transition at x/c =  0.8408   70
 Side 2  free  transition at x/c =  0.8109   70
 idif Ue xi dudx           1  0.13451375      2.65026093E-03   50.754910    
 Uenew xinew           2  2.61863768E-02  5.15937805E-04

  69   rms: 0.1297E+00   max: 0.1089E+01   D at    2  1   RLX: 0.639
       a = -1.500      CL = -0.0106
      Cm = -0.0142     CD =  0.01419   =>   CDf =  0.00564    CDp =  0.00855

 MRCHDU: Convergence failed at  74  side 2    Res =  0.5093E+01
 MRCHDU: Convergence failed at  75  side 2    Res =  0.8994E+01
 MRCHDU: Convergence failed at  76  side 2    Res =  0.4936E+01
 MRCHDU: Convergence failed at  77  side 2    Res =  0.5805E+01
 MRCHDU: Convergence failed at  78  side 2    Res =  0.7193E+01
 MRCHDU: Convergence failed at  79  side 2    Res =  0.7190E+01
 MRCHDU: Convergence failed at  80  side 2    Res =  0.6674E+01
 MRCHDU: Convergence failed at  81  side 2    Res =  0.6169E+01
 MRCHDU: Convergence failed at  82  side 2    Res =  0.5757E+01
 MRCHDU: Convergence failed at  83  side 2    Res =  0.5308E+01
 Side 1  free  transition at x/c =  0.8385   69
 Side 2  free  transition at x/c =  0.8552   74

  70   rms: 0.1946E+00   max: 0.1173E+01   C at   74  2
       a = -1.500      CL =  0.0184
      Cm = -0.0162     CD =  0.01228   =>   CDf =  0.00552    CDp =  0.00676

 Side 1  free  transition at x/c =  0.8408   70
 Side 2  free  transition at x/c =  0.8109   70
 idif Ue xi dudx           1  0.13451417      2.65026093E-03   50.755066    
 Uenew xinew           2  2.61864569E-02  5.15937805E-04

  71   rms: 0.1297E+00   max: 0.1089E+01   T at    2  1   RLX: 0.639
       a = -1.500      CL = -0.0106
      Cm = -0.0142     CD =  0.01419   =>   CDf =  0.00564    CDp =  0.00855

 MRCHDU: Convergence failed at  74  side 2    Res =  0.5094E+01
 MRCHDU: Convergence failed at  75  side 2    Res =  0.8995E+01
 MRCHDU: Convergence failed at  76  side 2    Res =  0.4937E+01
 MRCHDU: Convergence failed at  77  side 2    Res =  0.5805E+01
 MRCHDU: Convergence failed at  78  side 2    Res =  0.7192E+01
 MRCHDU: Convergence failed at  79  side 2    Res =  0.7189E+01
 MRCHDU: Convergence failed at  80  side 2    Res =  0.6674E+01
 MRCHDU: Convergence failed at  81  side 2    Res =  0.6169E+01
 MRCHDU: Convergence failed at  82  side 2    Res =  0.5756E+01
 MRCHDU: Convergence failed at  83  side 2    Res =  0.5308E+01
 Side 1  free  transition at x/c =  0.8385   69
 Side 2  free  transition at x/c =  0.8552   74

  72   rms: 0.1946E+00   max: 0.1173E+01   C at   74  2
       a = -1.500      CL =  0.0184
      Cm = -0.0162     CD =  0.01228   =>   CDf =  0.00552    CDp =  0.00676

 Side 1  free  transition at x/c =  0.8408   70
 Side 2  free  transition at x/c =  0.8109   70
 idif Ue xi dudx           1  0.13451399      2.65026093E-03   50.754997    
 Uenew xinew           2  2.61864215E-02  5.15937805E-04

  73   rms: 0.1297E+00   max: 0.1089E+01   T at    2  1   RLX: 0.639
       a = -1.500      CL = -0.0106
      Cm = -0.0142     CD =  0.01419   =>   CDf =  0.00564    CDp =  0.00855

 MRCHDU: Convergence failed at  74  side 2    Res =  0.5093E+01
 MRCHDU: Convergence failed at  75  side 2    Res =  0.8994E+01
 MRCHDU: Convergence failed at  76  side 2    Res =  0.4936E+01
 MRCHDU: Convergence failed at  77  side 2    Res =  0.5805E+01
 MRCHDU: Convergence failed at  78  side 2    Res =  0.7193E+01
 MRCHDU: Convergence failed at  79  side 2    Res =  0.7190E+01
 MRCHDU: Convergence failed at  80  side 2    Res =  0.6675E+01
 MRCHDU: Convergence failed at  81  side 2    Res =  0.6169E+01
 MRCHDU: Convergence failed at  82  side 2    Res =  0.5757E+01
 MRCHDU: Convergence failed at  83  side 2    Res =  0.5308E+01
 Side 1  free  transition at x/c =  0.8385   69
 Side 2  free  transition at x/c =  0.8552   74

  74   rms: 0.1946E+00   max: 0.1173E+01   C at   74  2
       a = -1.500      CL =  0.0184
      Cm = -0.0162     CD =  0.01228   =>   CDf =  0.00552    CDp =  0.00676

 Side 1  free  transition at x/c =  0.8408   70
 Side 2  free  transition at x/c =  0.8109   70
 idif Ue xi dudx           1  0.13451421      2.65026093E-03   50.755081    
 Uenew xinew           2  2.61864644E-02  5.15937805E-04

  75   rms: 0.1297E+00   max: 0.1089E+01   T at    2  1   RLX: 0.639
       a = -1.500      CL = -0.0106
      Cm = -0.0142     CD =  0.01419   =>   CDf =  0.00564    CDp =  0.00855

 MRCHDU: Convergence failed at  74  side 2    Res =  0.5094E+01
 MRCHDU: Convergence failed at  75  side 2    Res =  0.8995E+01
 MRCHDU: Convergence failed at  76  side 2    Res =  0.4937E+01
 MRCHDU: Convergence failed at  77  side 2    Res =  0.5805E+01
 MRCHDU: Convergence failed at  78  side 2    Res =  0.7192E+01
 MRCHDU: Convergence failed at  79  side 2    Res =  0.7189E+01
 MRCHDU: Convergence failed at  80  side 2    Res =  0.6674E+01
 MRCHDU: Convergence failed at  81  side 2    Res =  0.6169E+01
 MRCHDU: Convergence failed at  82  side 2    Res =  0.5756E+01
 MRCHDU: Convergence failed at  83  side 2    Res =  0.5308E+01
 Side 1  free  transition at x/c =  0.8385   69
 Side 2  free  transition at x/c =  0.8552   74

  76   rms: 0.1946E+00   max: 0.1173E+01   C at   74  2
       a = -1.500      CL =  0.0184
      Cm = -0.0162     CD =  0.01228   =>   CDf =  0.00552    CDp =  0.00676

 Side 1  free  transition at x/c =  0.8408   70
 Side 2  free  transition at x/c =  0.8109   70
 idif Ue xi dudx           1  0.13451384      2.65026093E-03   50.754944    
 Uenew xinew           2  2.61863936E-02  5.15937805E-04

  77   rms: 0.1297E+00   max: 0.1089E+01   T at    2  1   RLX: 0.639
       a = -1.500      CL = -0.0106
      Cm = -0.0142     CD =  0.01419   =>   CDf =  0.00564    CDp =  0.00855

 MRCHDU: Convergence failed at  74  side 2    Res =  0.5092E+01
 MRCHDU: Convergence failed at  75  side 2    Res =  0.8994E+01
 MRCHDU: Convergence failed at  76  side 2    Res =  0.4936E+01
 MRCHDU: Convergence failed at  77  side 2    Res =  0.5805E+01
 MRCHDU: Convergence failed at  78  side 2    Res =  0.7193E+01
 MRCHDU: Convergence failed at  79  side 2    Res =  0.7190E+01
 MRCHDU: Convergence failed at  80  side 2    Res =  0.6675E+01
 MRCHDU: Convergence failed at  81  side 2    Res =  0.6169E+01
 MRCHDU: Convergence failed at  82  side 2    Res =  0.5757E+01
 MRCHDU: Convergence failed at  83  side 2    Res =  0.5308E+01
 Side 1  free  transition at x/c =  0.8385   69
 Side 2  free  transition at x/c =  0.8552   74

  78   rms: 0.1946E+00   max: 0.1173E+01   C at   74  2
       a = -1.500      CL =  0.0184
      Cm = -0.0162     CD =  0.01228   =>   CDf =  0.00552    CDp =  0.00676

 Side 1  free  transition at x/c =  0.8408   70
 Side 2  free  transition at x/c =  0.8109   70
 idif Ue xi dudx           1  0.13451305      2.65026093E-03   50.754642    
 Uenew xinew           2  2.61862390E-02  5.15937805E-04

  79   rms: 0.1297E+00   max: 0.1089E+01   T at    2  1   RLX: 0.639
       a = -1.500      CL = -0.0106
      Cm = -0.0142     CD =  0.01419   =>   CDf =  0.00564    CDp =  0.00855

 MRCHDU: Convergence failed at  74  side 2    Res =  0.5093E+01
 MRCHDU: Convergence failed at  75  side 2    Res =  0.8996E+01
 MRCHDU: Convergence failed at  76  side 2    Res =  0.4937E+01
 MRCHDU: Convergence failed at  77  side 2    Res =  0.5805E+01
 MRCHDU: Convergence failed at  78  side 2    Res =  0.7193E+01
 MRCHDU: Convergence failed at  79  side 2    Res =  0.7189E+01
 MRCHDU: Convergence failed at  80  side 2    Res =  0.6674E+01
 MRCHDU: Convergence failed at  81  side 2    Res =  0.6169E+01
 MRCHDU: Convergence failed at  82  side 2    Res =  0.5756E+01
 MRCHDU: Convergence failed at  83  side 2    Res =  0.5308E+01
 Side 1  free  transition at x/c =  0.8385   69
 Side 2  free  transition at x/c =  0.8552   74

  80   rms: 0.1946E+00   max: 0.1173E+01   C at   74  2
       a = -1.500      CL =  0.0184
      Cm = -0.0162     CD =  0.01228   =>   CDf =  0.00552    CDp =  0.00676

 Side 1  free  transition at x/c =  0.8408   70
 Side 2  free  transition at x/c =  0.8109   70
 idif Ue xi dudx           1  0.13451353      2.65026093E-03   50.754826    
 Uenew xinew           2  2.61863340E-02  5.15937805E-04

  81   rms: 0.1297E+00   max: 0.1089E+01   T at    2  1   RLX: 0.639
       a = -1.500      CL = -0.0106
      Cm = -0.0142     CD =  0.01419   =>   CDf =  0.00564    CDp =  0.00855

 MRCHDU: Convergence failed at  74  side 2    Res =  0.5093E+01
 MRCHDU: Convergence failed at  75  side 2    Res =  0.8995E+01
 MRCHDU: Convergence failed at  76  side 2    Res =  0.4936E+01
 MRCHDU: Convergence failed at  77  side 2    Res =  0.5805E+01
 MRCHDU: Convergence failed at  78  side 2    Res =  0.7193E+01
 MRCHDU: Convergence failed at  79  side 2    Res =  0.7190E+01
 MRCHDU: Convergence failed at  80  side 2    Res =  0.6674E+01
 MRCHDU: Convergence failed at  81  side 2    Res =  0.6169E+01
 MRCHDU: Convergence failed at  82  side 2    Res =  0.5757E+01
 MRCHDU: Convergence failed at  83  side 2    Res =  0.5308E+01
 Side 1  free  transition at x/c =  0.8385   69
 Side 2  free  transition at x/c =  0.8552   74

  82   rms: 0.1946E+00   max: 0.1173E+01   C at   74  2
       a = -1.500      CL =  0.0184
      Cm = -0.0162     CD =  0.01228   =>   CDf =  0.00552    CDp =  0.00676

 Side 1  free  transition at x/c =  0.8408   70
 Side 2  free  transition at x/c =  0.8109   70
 idif Ue xi dudx           1  0.13451350      2.65026093E-03   50.754814    
 Uenew xinew           2  2.61863265E-02  5.15937805E-04

  83   rms: 0.1297E+00   max: 0.1089E+01   T at    2  1   RLX: 0.639
       a = -1.500      CL = -0.0106
      Cm = -0.0142     CD =  0.01419   =>   CDf =  0.00564    CDp =  0.00855

 MRCHDU: Convergence failed at  74  side 2    Res =  0.5093E+01
 MRCHDU: Convergence failed at  75  side 2    Res =  0.8995E+01
 MRCHDU: Convergence failed at  76  side 2    Res =  0.4937E+01
 MRCHDU: Convergence failed at  77  side 2    Res =  0.5805E+01
 MRCHDU: Convergence failed at  78  side 2    Res =  0.7193E+01
 MRCHDU: Convergence failed at  79  side 2    Res =  0.7189E+01
 MRCHDU: Convergence failed at  80  side 2    Res =  0.6674E+01
 MRCHDU: Convergence failed at  81  side 2    Res =  0.6169E+01
 MRCHDU: Convergence failed at  82  side 2    Res =  0.5756E+01
 MRCHDU: Convergence failed at  83  side 2    Res =  0.5308E+01
 Side 1  free  transition at x/c =  0.8385   69
 Side 2  free  transition at x/c =  0.8552   74

  84   rms: 0.1946E+00   max: 0.1173E+01   C at   74  2
       a = -1.500      CL =  0.0184
      Cm = -0.0162     CD =  0.01228   =>   CDf =  0.00552    CDp =  0.00676

 Side 1  free  transition at x/c =  0.8408   70
 Side 2  free  transition at x/c =  0.8109   70
 idif Ue xi dudx           1  0.13451424      2.65026093E-03   50.755093    
 Uenew xinew           2  2.61864718E-02  5.15937805E-04

  85   rms: 0.1297E+00   max: 0.1089E+01   T at    2  1   RLX: 0.639
       a = -1.500      CL = -0.0106
      Cm = -0.0142     CD =  0.01419   =>   CDf =  0.00564    CDp =  0.00855

 MRCHDU: Convergence failed at  74  side 2    Res =  0.5094E+01
 MRCHDU: Convergence failed at  75  side 2    Res =  0.8995E+01
 MRCHDU: Convergence failed at  76  side 2    Res =  0.4936E+01
 MRCHDU: Convergence failed at  77  side 2    Res =  0.5805E+01
 MRCHDU: Convergence failed at  78  side 2    Res =  0.7193E+01
 MRCHDU: Convergence failed at  79  side 2    Res =  0.7189E+01
 MRCHDU: Convergence failed at  80  side 2    Res =  0.6674E+01
 MRCHDU: Convergence failed at  81  side 2    Res =  0.6169E+01
 MRCHDU: Convergence failed at  82  side 2    Res =  0.5756E+01
 MRCHDU: Convergence failed at  83  side 2    Res =  0.5308E+01
 Side 1  free  transition at x/c =  0.8385   69
 Side 2  free  transition at x/c =  0.8552   74

  86   rms: 0.1946E+00   max: 0.1173E+01   C at   74  2
       a = -1.500      CL =  0.0184
      Cm = -0.0162     CD =  0.01228   =>   CDf =  0.00552    CDp =  0.00676

 Side 1  free  transition at x/c =  0.8408   70
 Side 2  free  transition at x/c =  0.8109   70
 idif Ue xi dudx           1  0.13451339      2.65026093E-03   50.754772    
 Uenew xinew           2  2.61863060E-02  5.15937805E-04

  87   rms: 0.1297E+00   max: 0.1089E+01   T at    2  1   RLX: 0.639
       a = -1.500      CL = -0.0106
      Cm = -0.0142     CD =  0.01419   =>   CDf =  0.00564    CDp =  0.00855

 MRCHDU: Convergence failed at  74  side 2    Res =  0.5092E+01
 MRCHDU: Convergence failed at  75  side 2    Res =  0.8994E+01
 MRCHDU: Convergence failed at  76  side 2    Res =  0.4936E+01
 MRCHDU: Convergence failed at  77  side 2    Res =  0.5805E+01
 MRCHDU: Convergence failed at  78  side 2    Res =  0.7193E+01
 MRCHDU: Convergence failed at  79  side 2    Res =  0.7190E+01
 MRCHDU: Convergence failed at  80  side 2    Res =  0.6675E+01
 MRCHDU: Convergence failed at  81  side 2    Res =  0.6169E+01
 MRCHDU: Convergence failed at  82  side 2    Res =  0.5757E+01
 MRCHDU: Convergence failed at  83  side 2    Res =  0.5308E+01
 Side 1  free  transition at x/c =  0.8385   69
 Side 2  free  transition at x/c =  0.8552   74

  88   rms: 0.1946E+00   max: 0.1173E+01   C at   74  2
       a = -1.500      CL =  0.0184
      Cm = -0.0162     CD =  0.01228   =>   CDf =  0.00552    CDp =  0.00676

 Side 1  free  transition at x/c =  0.8408   70
 Side 2  free  transition at x/c =  0.8109   70
 idif Ue xi dudx           1  0.13451321      2.65026093E-03   50.754707    
 Uenew xinew           2  2.61862725E-02  5.15937805E-04

  89   rms: 0.1297E+00   max: 0.1089E+01   D at    2  1   RLX: 0.639
       a = -1.500      CL = -0.0106
      Cm = -0.0142     CD =  0.01419   =>   CDf =  0.00564    CDp =  0.00855

[...]
 Point written to save file  naca23015_Re150k.base.pol                       
 Dump file unspecified or not available
 Calculating wake trajectory ...
 Calculating source influence matrix ...

 Solving BL system ...

 Side 1  free  transition at x/c =  0.1361   49
 Side 2 forced transition at x/c =  1.0000   63

   1   rms: 0.3742E-01   max: 0.1861E+00   T at   49  1
       a = 13.000      CL =  1.2959
      Cm =  0.0286     CD =  0.03690   =>   CDf =  0.00785    CDp =  0.02905

 Side 1  free  transition at x/c =  0.1322   49
 Side 2 forced transition at x/c =  1.0000   63

   2   rms: 0.8838E-02   max: -.6221E-01   D at   50  1
       a = 13.000      CL =  1.3005
      Cm =  0.0278     CD =  0.03676   =>   CDf =  0.00755    CDp =  0.02922

 Side 1  free  transition at x/c =  0.1321   49
 Side 2 forced transition at x/c =  1.0000   63

   3   rms: 0.4750E-03   max: 0.2276E-02   T at   49  1
       a = 13.000      CL =  1.3010
      Cm =  0.0277     CD =  0.03678   =>   CDf =  0.00755    CDp =  0.02923

 Side 1  free  transition at x/c =  0.1320   49
 Side 2 forced transition at x/c =  1.0000   63

   4   rms: 0.2195E-04   max: -.9119E-04   C at   63  2
       a = 13.000      CL =  1.3009
      Cm =  0.0277     CD =  0.03679   =>   CDf =  0.00755    CDp =  0.02924
 plradd ia,ip,cpol           41           0  1.22728664E-02

 Point added to stored polar  1
 Point written to save file  naca23015_Re150k.base.pol                       
 Dump file unspecified or not available
 Calculating wake trajectory ...
 Calculating source influence matrix ...

 Solving BL system ...

 Side 1  free  transition at x/c =  0.1320   49
 Side 2 forced transition at x/c =  1.0000   63

   1   rms: 0.3169E-01   max: 0.1639E+00   T at   49  1
       a = 13.250      CL =  1.3019
      Cm =  0.0300     CD =  0.03824   =>   CDf =  0.00723    CDp =  0.03101

 Side 1  free  transition at x/c =  0.1277   50
 Side 2 forced transition at x/c =  1.0000   62

   2   rms: 0.1002E-01   max: -.5536E-01   D at   51  1
       a = 13.250      CL =  1.3049
      Cm =  0.0296     CD =  0.03791   =>   CDf =  0.00749    CDp =  0.03042

 Side 1  free  transition at x/c =  0.1280   50
 Side 2 forced transition at x/c =  1.0000   62

   3   rms: 0.1235E-02   max: -.7365E-02   D at    4  1
       a = 13.250      CL =  1.3058
      Cm =  0.0295     CD =  0.03791   =>   CDf =  0.00748    CDp =  0.03044

 Side 1  free  transition at x/c =  0.1279   50
 Side 2 forced transition at x/c =  1.0000   62

   4   rms: 0.2095E-04   max: -.8112E-04   D at   94  1
       a = 13.250      CL =  1.3058
      Cm =  0.0295     CD =  0.03792   =>   CDf =  0.00748    CDp =  0.03044
 plradd ia,ip,cpol           42           0  1.22728664E-02

 Point added to stored polar  1
 Point written to save file  naca23015_Re150k.base.pol                       
 Dump file unspecified or not available
 Calculating wake trajectory ...
 Calculating source influence matrix ...

 Solving BL system ...

 Side 1  free  transition at x/c =  0.1279   50
 Side 2 forced transition at x/c =  1.0000   62

   1   rms: 0.3114E-01   max: 0.1797E+00   T at   50  1
       a = 13.500      CL =  1.3154
      Cm =  0.0308     CD =  0.03893   =>   CDf =  0.00749    CDp =  0.03144

 Side 1  free  transition at x/c =  0.1244   50
 Side 2 forced transition at x/c =  1.0000   62

   2   rms: 0.1322E-01   max: -.7420E-01   D at   50  1
       a = 13.500      CL =  1.3215
      Cm =  0.0303     CD =  0.03881   =>   CDf =  0.00760    CDp =  0.03122

 Side 1  free  transition at x/c =  0.1241   50
 Side 2 forced transition at x/c =  1.0000   62

   3   rms: 0.4190E-02   max: 0.2170E-01   T at   50  1
       a = 13.500      CL =  1.3250
      Cm =  0.0300     CD =  0.03885   =>   CDf =  0.00765    CDp =  0.03120

 Side 1  free  transition at x/c =  0.1238   49
 Side 2 forced transition at x/c =  1.0000   62

   4   rms: 0.3620E-02   max: 0.1950E-01   D at   50  1
       a = 13.500      CL =  1.3225
      Cm =  0.0302     CD =  0.03890   =>   CDf =  0.00766    CDp =  0.03124

 Side 1  free  transition at x/c =  0.1239   49
 Side 2 forced transition at x/c =  1.0000   62

   5   rms: 0.9042E-04   max: 0.7918E-03   D at   92  1
       a = 13.500      CL =  1.3224
      Cm =  0.0302     CD =  0.03889   =>   CDf =  0.00766    CDp =  0.03124
 plradd ia,ip,cpol           43           0  1.22728664E-02

 Point added to stored polar  1
 Point written to save file  naca23015_Re150k.base.pol                       
 Dump file unspecified or not available
 Calculating wake trajectory ...
 Calculating source influence matrix ...

 Solving BL system ...

 Side 1  free  transition at x/c =  0.1239   49
 Side 2 forced transition at x/c =  1.0000   62

   1   rms: 0.3988E-01   max: 0.1629E+00   T at   49  1   RLX: 0.970
       a = 13.750      CL =  1.3117
      Cm =  0.0328     CD =  0.04108   =>   CDf =  0.00766    CDp =  0.03342

 Side 1  free  transition at x/c =  0.1210   49
 Side 2 forced transition at x/c =  1.0000   62

   2   rms: 0.4804E-02   max: -.3933E-01   D at   50  1
       a = 13.750      CL =  1.3139
      Cm =  0.0325     CD =  0.04099   =>   CDf =  0.00734    CDp =  0.03365

 Side 1  free  transition at x/c =  0.1209   49
 Side 2 forced transition at x/c =  1.0000   62

   3   rms: 0.3077E-03   max: 0.1247E-02   T at   49  1
       a = 13.750      CL =  1.3142
      Cm =  0.0324     CD =  0.04100   =>   CDf =  0.00734    CDp =  0.03366

 Side 1  free  transition at x/c =  0.1209   49
 Side 2 forced transition at x/c =  1.0000   62

   4   rms: 0.1433E-04   max: 0.4148E-04   D at   75  2
       a = 13.750      CL =  1.3142
      Cm =  0.0324     CD =  0.04100   =>   CDf =  0.00733    CDp =  0.03366
 plradd ia,ip,cpol           44           0  1.22728664E-02

 Point added to stored polar  1
 Point written to save file  naca23015_Re150k.base.pol                       
 Dump file unspecified or not available
 Calculating wake trajectory ...
 Calculating source influence matrix ...

 Solving BL system ...

 Side 1  free  transition at x/c =  0.1209   49
 Side 2 forced transition at x/c =  1.0000   62

   1   rms: 0.3423E-01   max: 0.1450E+00   T at   49  1   RLX: 0.916
       a = 14.000      CL =  1.3116
      Cm =  0.0338     CD =  0.04304   =>   CDf =  0.00734    CDp =  0.03570

 Side 1  free  transition at x/c =  0.1176   49
 Side 2 forced transition at x/c =  1.0000   62

   2   rms: 0.5492E-02   max: -.4394E-01   D at   50  1
       a = 14.000      CL =  1.3132
      Cm =  0.0338     CD =  0.04286   =>   CDf =  0.00720    CDp =  0.03566

 Side 1  free  transition at x/c =  0.1176   49
 Side 2 forced transition at x/c =  1.0000   62

   3   rms: 0.7294E-03   max: -.2848E-02   D at   89  1
       a = 14.000      CL =  1.3138
      Cm =  0.0338     CD =  0.04284   =>   CDf =  0.00719    CDp =  0.03565

 Side 1  free  transition at x/c =  0.1175   49
 Side 2 forced transition at x/c =  1.0000   62

   4   rms: 0.5644E-05   max: 0.3456E-04   D at   76  2
       a = 14.000      CL =  1.3138
      Cm =  0.0338     CD =  0.04285   =>   CDf =  0.00719    CDp =  0.03566
 plradd ia,ip,cpol           45           0  1.22728664E-02

 Point added to stored polar  1
 Point written to save file  naca23015_Re150k.base.pol                       
 Dump file unspecified or not available
 Calculating wake trajectory ...
 Calculating source influence matrix ...

 Solving BL system ...

 Side 1  free  transition at x/c =  0.1175   49
 Side 2 forced transition at x/c =  1.0000   62

   1   rms: 0.3022E-01   max: 0.1502E+00   T at   49  1   RLX: 0.880
       a = 14.250      CL =  1.3178
      Cm =  0.0346     CD =  0.04438   =>   CDf =  0.00720    CDp =  0.03718

 Side 1  free  transition at x/c =  0.1146   49
 Side 2 forced transition at x/c =  1.0000   62

   2   rms: 0.8862E-02   max: -.5631E-01   D at   49  1
       a = 14.250      CL =  1.3220
      Cm =  0.0346     CD =  0.04412   =>   CDf =  0.00721    CDp =  0.03692

 Side 1  free  transition at x/c =  0.1144   49
 Side 2 forced transition at x/c =  1.0000   62

   3   rms: 0.1126E-02   max: -.4101E-02   D at   87  1
       a = 14.250      CL =  1.3229
      Cm =  0.0345     CD =  0.04412   =>   CDf =  0.00723    CDp =  0.03689

 Side 1  free  transition at x/c =  0.1143   49
 Side 2 forced transition at x/c =  1.0000   62

   4   rms: 0.4172E-04   max: -.1439E-03   D at   88  1
       a = 14.250      CL =  1.3229
      Cm =  0.0345     CD =  0.04412   =>   CDf =  0.00723    CDp =  0.03689
 plradd ia,ip,cpol           46           0  1.00922519E-02

 Point added to stored polar  1
 Point written to save file  naca23015_Re150k.base.pol                       
 Dump file unspecified or not available
 Calculating wake trajectory ...
 Calculating source influence matrix ...

 Solving BL system ...

 Side 1  free  transition at x/c =  0.1143   49
 Side 2 forced transition at x/c =  1.0000   62

   1   rms: 0.3313E-01   max: 0.2073E+00   T at   49  1   RLX: 0.864
       a = 14.500      CL =  1.3361
      Cm =  0.0350     CD =  0.04504   =>   CDf =  0.00687    CDp =  0.03817

 Side 1  free  transition at x/c =  0.1119   49
 Side 2 forced transition at x/c =  1.0000   61

   2   rms: 0.1099E-01   max: 0.5523E-01   D at   50  1
       a = 14.500      CL =  1.3291
      Cm =  0.0353     CD =  0.04605   =>   CDf =  0.00729    CDp =  0.03877

 Side 1  free  transition at x/c =  0.1114   49
 Side 2 forced transition at x/c =  1.0000   61

   3   rms: 0.1292E-02   max: -.1603E-01   D at    4  1
       a = 14.500      CL =  1.3290
      Cm =  0.0353     CD =  0.04599   =>   CDf =  0.00721    CDp =  0.03878

 Side 1  free  transition at x/c =  0.1114   49
 Side 2 forced transition at x/c =  1.0000   61

   4   rms: 0.3672E-04   max: -.1149E-03   T at   49  1
       a = 14.500      CL =  1.3290
      Cm =  0.0353     CD =  0.04599   =>   CDf =  0.00721    CDp =  0.03878
 plradd ia,ip,cpol           47           0  1.00922519E-02

 Point added to stored polar  1
 Point written to save file  naca23015_Re150k.base.pol                       
 Dump file unspecified or not available
 Calculating wake trajectory ...
 Calculating source influence matrix ...

 Solving BL system ...

 Side 1  free  transition at x/c =  0.1114   49
 Side 2 forced transition at x/c =  1.0000   61

   1   rms: 0.4074E-01   max: 0.1458E+00   D at   82  1   RLX: 0.795
       a = 14.750      CL =  1.3196
      Cm =  0.0360     CD =  0.04865   =>   CDf =  0.00722    CDp =  0.04144

 Side 1  free  transition at x/c =  0.1096   49
 Side 2 forced transition at x/c =  1.0000   61

   2   rms: 0.6557E-02   max: 0.3582E-01   D at   86  1
       a = 14.750      CL =  1.3181
      Cm =  0.0360     CD =  0.04909   =>   CDf =  0.00698    CDp =  0.04211

 Side 1  free  transition at x/c =  0.1091   49
 Side 2 forced transition at x/c =  1.0000   61

   3   rms: 0.2722E-03   max: 0.3253E-02   D at   85  1
       a = 14.750      CL =  1.3179
      Cm =  0.0360     CD =  0.04903   =>   CDf =  0.00693    CDp =  0.04210

 Side 1  free  transition at x/c =  0.1091   49
 Side 2 forced transition at x/c =  1.0000   61

   4   rms: 0.1429E-04   max: -.4274E-04   D at   80  1
       a = 14.750      CL =  1.3179
      Cm =  0.0360     CD =  0.04903   =>   CDf =  0.00693    CDp =  0.04209
 plradd ia,ip,cpol           48           0  8.13308917E-03

 Point added to stored polar  1
 Point written to save file  naca23015_Re150k.base.pol                       
 Dump file unspecified or not available
 Calculating wake trajectory ...
 Calculating source influence matrix ...

 Solving BL system ...

 Side 1  free  transition at x/c =  0.1091   49
 Side 2 forced transition at x/c =  1.0000   61

   1   rms: 0.3571E-01   max: 0.1255E+00   D at   80  1   RLX: 0.753
       a = 15.000      CL =  1.3132
      Cm =  0.0363     CD =  0.05150   =>   CDf =  0.00694    CDp =  0.04456

 Side 1  free  transition at x/c =  0.1073   49
 Side 2 forced transition at x/c =  1.0000   61

   2   rms: 0.7022E-02   max: 0.2930E-01   D at   84  1
       a = 15.000      CL =  1.3126
      Cm =  0.0363     CD =  0.05191   =>   CDf =  0.00680    CDp =  0.04512

 Side 1  free  transition at x/c =  0.1068   49
 Side 2 forced transition at x/c =  1.0000   61

   3   rms: 0.2033E-03   max: -.1173E-02   D at   85  1
       a = 15.000      CL =  1.3125
      Cm =  0.0363     CD =  0.05182   =>   CDf =  0.00677    CDp =  0.04506

 Side 1  free  transition at x/c =  0.1068   49
 Side 2 forced transition at x/c =  1.0000   61

   4   rms: 0.3286E-04   max: -.9255E-04   D at   79  1
       a = 15.000      CL =  1.3126
      Cm =  0.0363     CD =  0.05182   =>   CDf =  0.00677    CDp =  0.04506
 plradd ia,ip,cpol           49           0  6.39229733E-03

 Point added to stored polar  1
 Point written to save file  naca23015_Re150k.base.pol                       
 Dump file unspecified or not available
 Calculating wake trajectory ...
 Calculating source influence matrix ...

 Solving BL system ...

 Side 1  free  transition at x/c =  0.1068   49
 Side 2 forced transition at x/c =  1.0000   61

   1   rms: 0.3065E-01   max: 0.1255E+00   T at   49  1   RLX: 0.721
       a = 15.250      CL =  1.3126
      Cm =  0.0364     CD =  0.05385   =>   CDf =  0.00677    CDp =  0.04708

 Side 1  free  transition at x/c =  0.1050   49
 Side 2 forced transition at x/c =  1.0000   61

   2   rms: 0.7524E-02   max: 0.3465E-01   T at   49  1
       a = 15.250      CL =  1.3150
      Cm =  0.0365     CD =  0.05406   =>   CDf =  0.00672    CDp =  0.04735

 Side 1  free  transition at x/c =  0.1044   49
 Side 2 forced transition at x/c =  1.0000   61

   3   rms: 0.8837E-03   max: -.3863E-02   D at   83  1
       a = 15.250      CL =  1.3155
      Cm =  0.0365     CD =  0.05396   =>   CDf =  0.00672    CDp =  0.04724

 Side 1  free  transition at x/c =  0.1044   49
 Side 2 forced transition at x/c =  1.0000   61

   4   rms: 0.1169E-03   max: -.3612E-03   D at   74  2
       a = 15.250      CL =  1.3156
      Cm =  0.0365     CD =  0.05396   =>   CDf =  0.00672    CDp =  0.04724

 Side 1  free  transition at x/c =  0.1044   49
 Side 2 forced transition at x/c =  1.0000   61

   5   rms: 0.5842E-05   max: 0.2290E-04   T at   49  1
       a = 15.250      CL =  1.3156
      Cm =  0.0365     CD =  0.05396   =>   CDf =  0.00672    CDp =  0.04724
 plradd ia,ip,cpol           50           0  4.86088637E-03

 Point added to stored polar  1
 Point written to save file  naca23015_Re150k.base.pol                       
 Dump file unspecified or not available
 Calculating wake trajectory ...
 Calculating source influence matrix ...

 Solving BL system ...

 Side 1  free  transition at x/c =  0.1044   49
 Side 2 forced transition at x/c =  1.0000   61

   1   rms: 0.2903E-01   max: 0.1541E+00   T at   49  1   RLX: 0.705
       a = 15.500      CL =  1.3229
      Cm =  0.0366     CD =  0.05520   =>   CDf =  0.00673    CDp =  0.04847

 Side 1  free  transition at x/c =  0.1028   49
 Side 2 forced transition at x/c =  1.0000   61

   2   rms: 0.1612E-01   max: 0.7203E-01   T at   49  1
       a = 15.500      CL =  1.3340
      Cm =  0.0371     CD =  0.05474   =>   CDf =  0.00677    CDp =  0.04796

 Side 1  free  transition at x/c =  0.1019   49
 Side 2 forced transition at x/c =  1.0000   61

   3   rms: 0.3599E-02   max: 0.1511E-01   T at   49  1
       a = 15.500      CL =  1.3361
      Cm =  0.0371     CD =  0.05476   =>   CDf =  0.00686    CDp =  0.04790

 Side 1  free  transition at x/c =  0.1017   49
 Side 2 forced transition at x/c =  1.0000   61

   4   rms: 0.3735E-03   max: 0.1762E-02   T at   49  1
       a = 15.500      CL =  1.3364
      Cm =  0.0371     CD =  0.05480   =>   CDf =  0.00689    CDp =  0.04791

 Side 1  free  transition at x/c =  0.1017   49
 Side 2 forced transition at x/c =  1.0000   61

   5   rms: 0.1324E-04   max: 0.7151E-04   D at   83  1
       a = 15.500      CL =  1.3364
      Cm =  0.0371     CD =  0.05481   =>   CDf =  0.00689    CDp =  0.04792
 plradd ia,ip,cpol           51           0  3.52857425E-03

 Point added to stored polar  1
 Point written to save file  naca23015_Re150k.base.pol                       
 Dump file unspecified or not available
 Calculating wake trajectory ...
 Calculating source influence matrix ...

 Solving BL system ...

 Side 1  free  transition at x/c =  0.1017   49
 Side 2 forced transition at x/c =  1.0000   61

   1   rms: 0.6116E-01   max: 0.3417E+00   T at   49  1   RLX: 0.728
       a = 15.750      CL =  1.3671
      Cm =  0.0380     CD =  0.05474   =>   CDf =  0.00650    CDp =  0.04825

 Side 1  free  transition at x/c =  0.0994   49
 Side 2 forced transition at x/c =  1.0000   60
 idif Ue xi dudx           1  6.72321543E-02  5.86688519E-03   11.459599    
 Uenew xinew           2  1.16254319E-03  1.01447105E-04

   2   rms: 0.3762E+00   max: -.6551E+01   T at    2  1   RLX: 0.076
       a = 15.750      CL =  1.3811
      Cm =  0.0300     CD =  0.05333   =>   CDf =  0.00712    CDp =  0.04621

 Side 1  free  transition at x/c =  0.0995   48
 Side 2 forced transition at x/c =  1.0000   61

   3   rms: 0.9647E-01   max: -.1260E+01   T at    2  2   RLX: 0.397
       a = 15.750      CL =  1.3579
      Cm =  0.0327     CD =  0.05572   =>   CDf =  0.00673    CDp =  0.04899

 Side 1  free  transition at x/c =  0.0998   48
 Side 2 forced transition at x/c =  1.0000   61

   4   rms: 0.3928E-01   max: 0.1647E+00   D at   84  1
       a = 15.750      CL =  1.3216
      Cm =  0.0366     CD =  0.05939   =>   CDf =  0.00669    CDp =  0.05270

 Side 1  free  transition at x/c =  0.1004   48
 Side 2 forced transition at x/c =  1.0000   61

   5   rms: 0.2897E-02   max: 0.2852E-01   D at   82  1
       a = 15.750      CL =  1.3203
      Cm =  0.0367     CD =  0.05899   =>   CDf =  0.00663    CDp =  0.05236

 Side 1  free  transition at x/c =  0.1004   48
 Side 2 forced transition at x/c =  1.0000   61

   6   rms: 0.2078E-03   max: 0.1112E-02   D at   75  2
       a = 15.750      CL =  1.3201
      Cm =  0.0367     CD =  0.05896   =>   CDf =  0.00663    CDp =  0.05234

 Side 1  free  transition at x/c =  0.1004   48
 Side 2 forced transition at x/c =  1.0000   61

   7   rms: 0.2986E-05   max: -.1428E-04   T at   74  2
       a = 15.750      CL =  1.3201
      Cm =  0.0367     CD =  0.05896   =>   CDf =  0.00663    CDp =  0.05233
 plradd ia,ip,cpol           52           0  3.52857425E-03

 Point added to stored polar  1
 Point written to save file  naca23015_Re150k.base.pol                       
 Dump file unspecified or not available
 Calculating wake trajectory ...
 Calculating source influence matrix ...

 Solving BL system ...

 Side 1  free  transition at x/c =  0.1004   48
 Side 2 forced transition at x/c =  1.0000   61

   1   rms: 0.4466E-01   max: 0.1688E+00   D at   76  1   RLX: 0.631
       a = 16.000      CL =  1.3091
      Cm =  0.0360     CD =  0.06228   =>   CDf =  0.00663    CDp =  0.05565

 Side 1  free  transition at x/c =  0.0995   48
 Side 2 forced transition at x/c =  1.0000   61

   2   rms: 0.1852E-01   max: 0.8234E-01   D at   80  1
       a = 16.000      CL =  1.3000
      Cm =  0.0355     CD =  0.06421   =>   CDf =  0.00644    CDp =  0.05777

 Side 1  free  transition at x/c =  0.0991   48
 Side 2 forced transition at x/c =  1.0000   61

   3   rms: 0.1829E-02   max: 0.1343E-01   D at   75  2
       a = 16.000      CL =  1.2985
      Cm =  0.0355     CD =  0.06398   =>   CDf =  0.00634    CDp =  0.05764

 Side 1  free  transition at x/c =  0.0992   48
 Side 2 forced transition at x/c =  1.0000   61

   4   rms: 0.4552E-04   max: 0.5668E-03   D at   75  2
       a = 16.000      CL =  1.2985
      Cm =  0.0355     CD =  0.06396   =>   CDf =  0.00634    CDp =  0.05762
 plradd ia,ip,cpol           53           0  3.52857425E-03

 Point added to stored polar  1
 Point written to save file  naca23015_Re150k.base.pol                       
 Dump file unspecified or not available

.OPERva   c>  
 Polar accumulation disabled

.OPERv   c>  
 XFOIL   c>  
 XFOIL   c>  