  
       XFOIL         Version 6.99
  
 Calculated polar for: NACA M2                                         
  
 1 1 Reynolds number fixed          Mach number fixed         
  
 xtrf =   1.000 (top)        1.000 (bottom)  
 Mach =   0.000     Re =     0.300 e 6     Ncrit =   9.000
  
   alpha    CL        CD       CDp       CM     Top_Xtr  Bot_Xtr
  ------ -------- --------- --------- -------- -------- --------
  -4.000  -0.4565   0.01224   0.00457   0.0024   1.0000   0.0625
  -3.500  -0.4090   0.01130   0.00363   0.0040   1.0000   0.0720
  -3.000  -0.3643   0.00965   0.00281   0.0055   1.0000   0.2398
  -2.500  -0.3217   0.00797   0.00247   0.0072   1.0000   0.5555
  -2.000  -0.2765   0.00725   0.00247   0.0096   1.0000   0.7332
  -1.500  -0.2312   0.00704   0.00263   0.0125   1.0000   0.8476
  -1.000  -0.1835   0.00719   0.00294   0.0152   1.0000   0.9353
  -0.500  -0.0847   0.00754   0.00327   0.0068   1.0000   0.9877
   0.000   0.0000   0.00763   0.00334  -0.0000   1.0000   1.0000
   0.500   0.0850   0.00754   0.00327  -0.0069   0.9876   1.0000
   1.000   0.1835   0.00718   0.00294  -0.0152   0.9350   1.0000
   1.500   0.2311   0.00703   0.00263  -0.0125   0.8473   1.0000
   2.000   0.2764   0.00725   0.00247  -0.0096   0.7326   1.0000
   2.500   0.3216   0.00797   0.00247  -0.0072   0.5549   1.0000
   3.000   0.3642   0.00966   0.00281  -0.0055   0.2391   1.0000
   3.500   0.4090   0.01130   0.00364  -0.0040   0.0720   1.0000
   4.000   0.4565   0.01224   0.00457  -0.0024   0.0625   1.0000
   4.500   0.5043   0.01320   0.00561  -0.0008   0.0573   1.0000
   5.000   0.5510   0.01472   0.00714   0.0008   0.0523   1.0000
   5.500   0.5995   0.01635   0.00894   0.0022   0.0485   1.0000
   6.000   0.6490   0.01786   0.01060   0.0034   0.0430   1.0000
   6.500   0.6959   0.02114   0.01422   0.0048   0.0375   1.0000
   7.000   0.7434   0.02350   0.01695   0.0062   0.0322   1.0000
   7.500   0.7815   0.02849   0.02254   0.0081   0.0276   1.0000
   8.000   0.8137   0.03470   0.02968   0.0111   0.0254   1.0000
   8.500   0.8243   0.04481   0.04081   0.0145   0.0245   1.0000
   9.000   0.8074   0.05794   0.05471   0.0161   0.0255   1.0000
