  
       XFOIL         Version 6.99
  
 Calculated polar for: NACA 66-209                                     
  
 1 1 Reynolds number fixed          Mach number fixed         
  
 xtrf =   1.000 (top)        1.000 (bottom)  
 Mach =   0.000     Re =     0.150 e 6     Ncrit =   9.000
  
   alpha    CL        CD       CDp       CM     Top_Xtr  Bot_Xtr
  ------ -------- --------- --------- -------- -------- --------
  -4.000  -0.4574   0.02605   0.01829  -0.0133   0.9950   0.0610
  -3.500  -0.3939   0.02277   0.01408  -0.0132   0.9909   0.0545
  -3.000  -0.3317   0.01968   0.01082  -0.0144   0.9870   0.0578
  -2.500  -0.2758   0.01821   0.00930  -0.0149   0.9820   0.0663
  -2.000  -0.2160   0.01683   0.00797  -0.0167   0.9768   0.0880
  -1.500  -0.2062   0.01435   0.00871  -0.0055   0.9699   0.8637
  -1.000  -0.0359   0.01627   0.01024  -0.0224   0.9791   0.9909
  -0.500   0.0559   0.01643   0.01019  -0.0316   0.9762   1.0000
   0.000   0.1092   0.01653   0.01020  -0.0334   0.9662   1.0000
   0.500   0.1578   0.01670   0.01034  -0.0341   0.9554   1.0000
   1.000   0.2048   0.01694   0.01060  -0.0343   0.9439   1.0000
   1.500   0.2553   0.01721   0.01094  -0.0349   0.9318   1.0000
   2.000   0.3071   0.01747   0.01134  -0.0356   0.9184   1.0000
   2.500   0.5464   0.01298   0.00740  -0.0627   0.8611   1.0000
   3.000   0.5710   0.01104   0.00528  -0.0513   0.7069   1.0000
   4.000   0.5724   0.01642   0.00735  -0.0313   0.0648   1.0000
   4.500   0.5906   0.01819   0.00911  -0.0246   0.0582   1.0000
   5.000   0.6277   0.02035   0.01137  -0.0209   0.0548   1.0000
   5.500   0.6777   0.02361   0.01464  -0.0200   0.0488   1.0000
   6.000   0.7317   0.02754   0.01922  -0.0184   0.0512   1.0000
