  
       XFOIL         Version 6.99
  
 Calculated polar for: NACA 64(4)-221                                  
  
 1 1 Reynolds number fixed          Mach number fixed         
  
 xtrf =   1.000 (top)        1.000 (bottom)  
 Mach =   0.000     Re =     0.600 e 6     Ncrit =   9.000
  
   alpha    CL        CD       CDp       CM     Top_Xtr  Bot_Xtr
  ------ -------- --------- --------- -------- -------- --------
-4.000  -0.3032   0.00960   0.00377  -0.0302   0.6252   0.5240
-3.500  -0.2451   0.00964   0.00381  -0.0307   0.6164   0.5363
-3.000  -0.1864   0.00967   0.00372  -0.0315   0.6082   0.5417
-2.500  -0.1275   0.00957   0.00355  -0.0323   0.6003   0.5457
-2.000  -0.0691   0.00953   0.00345  -0.0331   0.5929   0.5502
-1.500  -0.0099   0.00951   0.00343  -0.0339   0.5870   0.5552
-1.000   0.0492   0.00951   0.00339  -0.0348   0.5809   0.5598
-0.500   0.1083   0.00958   0.00336  -0.0357   0.5752   0.5631
0.000   0.1671   0.00952   0.00334  -0.0365   0.5704   0.5681
0.500   0.2261   0.00954   0.00340  -0.0374   0.5657   0.5732
1.000   0.2852   0.00958   0.00344  -0.0383   0.5609   0.5785
1.500   0.3443   0.00971   0.00352  -0.0392   0.5566   0.5835
2.000   0.4029   0.00978   0.00368  -0.0400   0.5526   0.5899
2.500   0.4614   0.00982   0.00379  -0.0408   0.5476   0.5965
3.000   0.5202   0.00991   0.00390  -0.0416   0.5431   0.6032
3.500   0.5784   0.01001   0.00408  -0.0424   0.5390   0.6113
4.000   0.6371   0.01025   0.00436  -0.0433   0.5346   0.6196
4.500   0.6937   0.01022   0.00448  -0.0437   0.5278   0.6289
5.000   0.7505   0.01032   0.00456  -0.0441   0.5172   0.6387
5.500   0.8051   0.01023   0.00464  -0.0441   0.5066   0.6487
6.000   0.8608   0.01041   0.00485  -0.0444   0.4980   0.6594
6.500   0.9136   0.01041   0.00498  -0.0441   0.4843   0.6704
7.000   0.9659   0.01054   0.00520  -0.0437   0.4690   0.6818
7.500   1.0162   0.01070   0.00549  -0.0431   0.4517   0.6940
8.000   1.0620   0.01099   0.00582  -0.0417   0.4215   0.7062
8.500   1.0773   0.01212   0.00666  -0.0355   0.3475   0.7194
9.000   1.0647   0.01395   0.00824  -0.0253   0.2830   0.7333
9.500   1.0526   0.01653   0.01060  -0.0172   0.2277   0.7486
10.000   1.0471   0.01942   0.01334  -0.0112   0.1831   0.7650
10.250   1.0438   0.02105   0.01492  -0.0086   0.1637   0.7732
10.500   1.0442   0.02260   0.01642  -0.0065   0.1474   0.7820
10.750   1.0445   0.02419   0.01800  -0.0045   0.1328   0.7904
11.000   1.0456   0.02582   0.01961  -0.0028   0.1200   0.7999
11.250   1.0471   0.02746   0.02124  -0.0012   0.1086   0.8091
11.500   1.0490   0.02915   0.02291   0.0003   0.0983   0.8195
11.750   1.0517   0.03078   0.02457   0.0016   0.0900   0.8302
12.000   1.0554   0.03244   0.02624   0.0028   0.0818   0.8423
12.250   1.0595   0.03404   0.02789   0.0040   0.0751   0.8561
12.500   1.0623   0.03574   0.02965   0.0052   0.0689   0.8730
12.750   1.0645   0.03743   0.03141   0.0065   0.0636   0.8971
13.000   1.0758   0.03919   0.03329   0.0060   0.0578   0.9484
13.250   1.0873   0.04109   0.03520   0.0050   0.0530   1.0000
13.500   1.0924   0.04314   0.03723   0.0052   0.0502   1.0000
13.750   1.1015   0.04486   0.03898   0.0053   0.0475   1.0000
14.000   1.1064   0.04699   0.04110   0.0054   0.0451   1.0000
14.250   1.1147   0.04883   0.04297   0.0055   0.0430   1.0000
14.500   1.1215   0.05084   0.04499   0.0055   0.0413   1.0000
14.750   1.1254   0.05317   0.04732   0.0055   0.0397   1.0000
15.000   1.1331   0.05517   0.04937   0.0053   0.0383   1.0000
15.250   1.1408   0.05719   0.05143   0.0052   0.0371   1.0000
15.500   1.1458   0.05951   0.05377   0.0050   0.0358   1.0000
15.750   1.1473   0.06226   0.05653   0.0047   0.0348   1.0000
16.000   1.1563   0.06423   0.05857   0.0044   0.0338   1.0000
16.250   1.1618   0.06664   0.06103   0.0040   0.0329   1.0000
16.500   1.1680   0.06897   0.06339   0.0036   0.0319   1.0000
16.750   1.1711   0.07170   0.06614   0.0030   0.0313   1.0000
17.000   1.1710   0.07484   0.06930   0.0024   0.0305   1.0000
17.250   1.1786   0.07712   0.07166   0.0019   0.0299   1.0000
17.500   1.1834   0.07979   0.07439   0.0011   0.0291   1.0000
17.750   1.1889   0.08237   0.07702   0.0004   0.0284   1.0000
18.000   1.1921   0.08528   0.07997  -0.0004   0.0278   1.0000
18.250   1.1945   0.08833   0.08305  -0.0014   0.0273   1.0000
18.750   1.1976   0.09471   0.08954  -0.0034   0.0263   1.0000
19.250   1.2056   0.10063   0.09561  -0.0057   0.0253   1.0000
19.750   1.2114   0.10697   0.10206  -0.0082   0.0244   1.0000
20.250   1.2158   0.11354   0.10870  -0.0112   0.0236   1.0000
20.750   1.2217   0.11967   0.11490  -0.0139   0.0230   1.0000
21.250   1.2261   0.12644   0.12185  -0.0173   0.0224   1.0000
21.750   1.2296   0.13337   0.12893  -0.0211   0.0218   1.0000
22.250   1.2341   0.14001   0.13570  -0.0249   0.0213   1.0000
