
 ===================================================
  XFOIL Version 6.99
  Copyright (C) 2000   Mark Drela, Harold Youngren

  This software comes with ABSOLUTELY NO WARRANTY,
    subject to the GNU General Public License.

  Caveat computor
 ===================================================

 File  xfoil.def  not found

   QUIT    Exit program

  .OPER    Direct operating point(s)
  .MDES    Complex mapping design routine
  .QDES    Surface speed design routine
  .GDES    Geometry design routine

   SAVE f  Write airfoil to labeled coordinate file
   PSAV f  Write airfoil to plain coordinate file
   ISAV f  Write airfoil to ISES coordinate file
   MSAV f  Write airfoil to MSES coordinate file
   REVE    Reverse written-airfoil node ordering

   LOAD f  Read buffer airfoil from coordinate file
   NACA i  Set NACA 4,5-digit airfoil and buffer airfoil
   INTE    Set buffer airfoil by interpolating two airfoils
   NORM    Buffer airfoil normalization toggle
   XYCM rr Change CM reference location, currently  0.25000 0.00000

   BEND    Display structural properties of current airfoil

   PCOP    Set current-airfoil panel nodes directly from buffer airfoil points
   PANE    Set current-airfoil panel nodes ( 160 ) based on curvature
  .PPAR    Show/change paneling

  .PLOP    Plotting options

   WDEF f  Write  current-settings file
   RDEF f  Reread current-settings file
   NAME s  Specify new airfoil name
   NINC    Increment name version number

   Z       Zoom    | (available in all menus)
   U       Unzoom  | 

 XFOIL   c>  
 Labeled airfoil file.  Name:  NACA 0012-64 a=0.8 c(li)=0.2                    

 Number of input coordinate points:  33
 Counterclockwise ordering
 Max thickness =     0.109641  at x =   0.401
 Max camber    =     0.016601  at x =   0.301

  LE  x,y  =  -0.00058   0.00249  |   Chord =   1.00058
  TE  x,y  =   1.00000   0.00010  |

 Current airfoil nodes set from buffer airfoil nodes (  33 )

 WARNING: Poor input coordinate distribution
          Excessive panel angle   84.5  at i =  17
          Repaneling with PANE and/or PPAR suggested
           (doing GDES,CADD before repaneling _may_
            improve excessively coarse LE spacing

 XFOIL   c>  
 XFOIL   c>  
 Blunt trailing edge.  Gap =  0.00220

 Paneling parameters used...
   Number of panel nodes       160
   Panel bunching parameter    1.000
   TE/LE panel density ratio   0.150
   Refined-area/LE panel density ratio    0.200
   Top    side refined area x/c limits  1.000 1.000
   Bottom side refined area x/c limits  1.000 1.000

 XFOIL   c>  
.OPERi   c>  
 Xtr/c     =  1.0000    top    side
 Xtr/c     =  1.0000    bottom side
 Ncrit     =    9.00   ( 0.070 % turb. level )
 Vacc      =  0.0100

 Klag  =  5.6000     Uxwt  =    1.00
 A     =  6.7000     B     =  0.7500       KCt = 0.01485
 CtiniK=  1.8000     CtiniX=  3.3000

..VPAR   c>  
..VPAR   c>  
.OPERi   c>  
 M  =    0.0000
 Re =    400000

.OPERv   c>  
.OPERv   c>  
.OPERv   c>  
 Polar  1 newly created for accumulation
 Airfoil archived with polar: NACA 0012-64 a=0.8 c(li)=0.2                    

Enter  polar save filename  OR  <return> for no file   s>  
 New polar save file available

Enter  polar dump filename  OR  <return> for no file   s>  
 Polar dump file will NOT be written

 Polar accumulation enabled

.OPERva   c>   Calculating unit vorticity distributions ...
 Calculating wake trajectory ...
 Calculating source influence matrix ...

 Solving BL system ...

 Initializing BL ...
    side            1  ...
 MRCHUE: Inverse mode at  59     Hk =   3.800
 MRCHUE: Inverse mode at  60     Hk =   4.272
 MRCHUE: Inverse mode at  61     Hk =   4.732
 MRCHUE: Inverse mode at  62     Hk =   5.181
 MRCHUE: Inverse mode at  63     Hk =   5.624
 MRCHUE: Inverse mode at  64     Hk =   6.064
 MRCHUE: Inverse mode at  65     Hk =   6.505
 MRCHUE: Inverse mode at  66     Hk =   6.953
 MRCHUE: Inverse mode at  67     Hk =   7.399
 MRCHUE: Inverse mode at  68     Hk =   7.835
 MRCHUE: Inverse mode at  69     Hk =   8.274
 MRCHUE: Inverse mode at  70     Hk =   8.672
 MRCHUE: Inverse mode at  71     Hk =   9.014
 MRCHUE: Inverse mode at  72     Hk =   8.356
 MRCHUE: Inverse mode at  73     Hk =   7.289
 MRCHUE: Inverse mode at  74     Hk =   6.788
    side            2  ...
 MRCHUE: Inverse mode at  13     Hk =   4.064
 MRCHUE: Inverse mode at  14     Hk =   5.031
 MRCHUE: Convergence failed at  15  side 2    Res =  0.4926E+01
 MRCHUE: Inverse mode at  16     Hk =   6.299
 MRCHUE: Convergence failed at  17  side 2    Res =  0.1970E+02
 MRCHUE: Inverse mode at  18     Hk =   7.306
 MRCHUE: Inverse mode at  19     Hk =   2.500
 MRCHUE: Inverse mode at  20     Hk =   2.500
 MRCHUE: Inverse mode at  86     Hk =   2.500
 MRCHUE: Inverse mode at  87     Hk =   2.500
 MRCHUE: Convergence failed at  88  side 2    Res =  0.5743E+01
 MRCHUE: Inverse mode at  90     Hk =   3.176

 MRCHDU: Convergence failed at  17  side 2    Res =  0.9934E+01
 MRCHDU: Convergence failed at  18  side 2    Res =  0.5132E+01
 MRCHDU: Convergence failed at  19  side 2    Res =  0.5257E+01
 MRCHDU: Convergence failed at  20  side 2    Res =  0.4339E+04
 MRCHDU: Convergence failed at  21  side 2    Res =  0.3407E+02
 MRCHDU: Convergence failed at  22  side 2    Res =  0.1786E+02
 MRCHDU: Convergence failed at  23  side 2    Res =  0.1564E+03
 MRCHDU: Convergence failed at  24  side 2    Res =  0.3583E+04
 MRCHDU: Convergence failed at  25  side 2    Res =  0.3386E+02
 MRCHDU: Convergence failed at  26  side 2    Res =  0.3442E+02
 MRCHDU: Convergence failed at  27  side 2    Res =  0.4111E+02
 MRCHDU: Convergence failed at  28  side 2    Res =  0.1303E+03
 MRCHDU: Convergence failed at  29  side 2    Res =  0.6125E+02
 MRCHDU: Convergence failed at  30  side 2    Res =  0.4186E+02
 MRCHDU: Convergence failed at  31  side 2    Res =  0.1744E+02
 MRCHDU: Convergence failed at  32  side 2    Res =  0.1692E+02
 MRCHDU: Convergence failed at  33  side 2    Res =  0.1651E+02
 MRCHDU: Convergence failed at  34  side 2    Res =  0.1611E+02
 MRCHDU: Convergence failed at  35  side 2    Res =  0.1707E+02
 MRCHDU: Convergence failed at  36  side 2    Res =  0.2377E+02
 MRCHDU: Convergence failed at  37  side 2    Res =  0.2490E+02
 MRCHDU: Convergence failed at  38  side 2    Res =  0.2637E+02
 MRCHDU: Convergence failed at  39  side 2    Res =  0.3222E+02
 MRCHDU: Convergence failed at  40  side 2    Res =  0.3271E+02
 MRCHDU: Convergence failed at  41  side 2    Res =  0.2993E+02
 MRCHDU: Convergence failed at  42  side 2    Res =  0.2619E+02
 MRCHDU: Convergence failed at  43  side 2    Res =  0.2256E+02
 MRCHDU: Convergence failed at  44  side 2    Res =  0.2135E+02
 MRCHDU: Convergence failed at  45  side 2    Res =  0.2142E+02
 MRCHDU: Convergence failed at  46  side 2    Res =  0.2042E+02
 MRCHDU: Convergence failed at  47  side 2    Res =  0.2073E+02
 MRCHDU: Convergence failed at  48  side 2    Res =  0.2187E+02
 MRCHDU: Convergence failed at  49  side 2    Res =  0.2244E+02
 MRCHDU: Convergence failed at  50  side 2    Res =  0.2369E+02
 MRCHDU: Convergence failed at  51  side 2    Res =  0.2502E+02
 MRCHDU: Convergence failed at  52  side 2    Res =  0.2652E+02
 MRCHDU: Convergence failed at  53  side 2    Res =  0.2785E+02
 MRCHDU: Convergence failed at  54  side 2    Res =  0.2901E+02
 MRCHDU: Convergence failed at  55  side 2    Res =  0.3014E+02
 MRCHDU: Convergence failed at  56  side 2    Res =  0.3139E+02
 MRCHDU: Convergence failed at  57  side 2    Res =  0.3254E+02
 MRCHDU: Convergence failed at  58  side 2    Res =  0.3387E+02
 MRCHDU: Convergence failed at  59  side 2    Res =  0.3661E+02
 MRCHDU: Convergence failed at  60  side 2    Res =  0.3811E+02
 MRCHDU: Convergence failed at  61  side 2    Res =  0.4428E+02
 MRCHDU: Convergence failed at  62  side 2    Res =  0.4669E+02
 MRCHDU: Convergence failed at  63  side 2    Res =  0.4904E+02
 MRCHDU: Convergence failed at  64  side 2    Res =  0.5223E+02
 MRCHDU: Convergence failed at  65  side 2    Res =  0.5594E+02
 MRCHDU: Convergence failed at  66  side 2    Res =  0.6076E+02
 MRCHDU: Convergence failed at  67  side 2    Res =  0.6865E+02
 MRCHDU: Convergence failed at  68  side 2    Res =  0.1112E+03
 MRCHDU: Convergence failed at  69  side 2    Res =  0.9299E+02
 MRCHDU: Convergence failed at  70  side 2    Res =  0.7969E+02
 MRCHDU: Convergence failed at  71  side 2    Res =  0.7218E+02
 MRCHDU: Convergence failed at  72  side 2    Res =  0.6787E+02
 MRCHDU: Convergence failed at  73  side 2    Res =  0.6761E+02
 MRCHDU: Convergence failed at  74  side 2    Res =  0.6723E+02
 MRCHDU: Convergence failed at  75  side 2    Res =  0.1258E+03
 MRCHDU: Convergence failed at  76  side 2    Res =  0.1180E+03
 MRCHDU: Convergence failed at  77  side 2    Res =  0.1168E+03
 MRCHDU: Convergence failed at  78  side 2    Res =  0.1207E+03
 MRCHDU: Convergence failed at  79  side 2    Res =  0.1412E+03
 MRCHDU: Convergence failed at  80  side 2    Res =  0.1553E+05
 MRCHDU: Convergence failed at  81  side 2    Res =  0.1978E+04
 MRCHDU: Convergence failed at  82  side 2    Res =  0.5308E+02
 MRCHDU: Convergence failed at  83  side 2    Res =  0.6075E+02
 MRCHDU: Convergence failed at  84  side 2    Res =  0.9044E+02
 MRCHDU: Convergence failed at  85  side 2    Res =  0.4058E+03
 MRCHDU: Convergence failed at  86  side 2    Res =  0.1309E+03
 MRCHDU: Convergence failed at  87  side 2    Res =  0.7770E+02
 MRCHDU: Convergence failed at  88  side 2    Res =  0.2336E+02
 Side 1  free  transition at x/c =  0.9811   72
 Side 2  free  transition at x/c =  0.0256   19

   1   rms: 0.1490E+01   max: 0.5087E+01   D at   91  2   RLX: 0.258
       a = -4.000      CL = -2.1911
      Cm =  0.4921     CD =  0.00196   =>   CDf =  0.00164    CDp =  0.00032

 MRCHDU: Convergence failed at  19  side 2    Res =  0.1602E+01
 Side 1  free  transition at x/c =  0.9811   72
 Side 2  free  transition at x/c =  0.0219   18

   2   rms: 0.9671E+00   max: 0.3705E+01   D at   20  2   RLX: 0.270
       a = -4.000      CL = -1.5588
      Cm =  0.3096     CD =  0.00544   =>   CDf =  0.01404    CDp = -0.00861

 Side 1  free  transition at x/c =  0.9724   71
 Side 2  free  transition at x/c =  0.0200   18

   3   rms: 0.7517E+00   max: 0.1479E+01   D at   95  2   RLX: 0.427
       a = -4.000      CL = -1.0055
      Cm =  0.1612     CD =  0.00886   =>   CDf =  0.01152    CDp = -0.00266

 Side 1  free  transition at x/c =  0.9529   70
 Side 2  free  transition at x/c =  0.0205   18

   4   rms: 0.6411E+00   max: 0.1440E+01   T at   89  2   RLX: 0.500
       a = -4.000      CL = -0.8114
      Cm =  0.1027     CD =  0.01422   =>   CDf =  0.00962    CDp =  0.00460

 MRCHDU: Convergence failed at  70  side 1    Res =  0.4763E+01
 MRCHDU: Convergence failed at  71  side 1    Res =  0.7506E+01
 MRCHDU: Convergence failed at  72  side 1    Res =  0.8167E+01
 MRCHDU: Convergence failed at  73  side 1    Res =  0.1029E+02
 MRCHDU: Convergence failed at  74  side 1    Res =  0.1193E+02
 MRCHDU: Convergence failed at  22  side 2    Res =  0.6852E+03
 MRCHDU: Convergence failed at  23  side 2    Res =  0.1031E+05
 MRCHDU: Convergence failed at  24  side 2    Res =  0.2728E+03
 MRCHDU: Convergence failed at  25  side 2    Res =  0.7552E+02
 MRCHDU: Convergence failed at  26  side 2    Res =  0.9465E+02
 MRCHDU: Convergence failed at  27  side 2    Res =  0.2391E+03
 MRCHDU: Convergence failed at  28  side 2    Res =  0.9634E+02
 MRCHDU: Convergence failed at  29  side 2    Res =  0.1067E+03
 MRCHDU: Convergence failed at  30  side 2    Res =  0.6792E+02
 MRCHDU: Convergence failed at  31  side 2    Res =  0.7212E+02
 MRCHDU: Convergence failed at  32  side 2    Res =  0.1104E+03
 MRCHDU: Convergence failed at  33  side 2    Res =  0.4359E+03
 MRCHDU: Convergence failed at  34  side 2    Res =  0.4935E+03
 MRCHDU: Convergence failed at  35  side 2    Res =  0.2288E+04
 MRCHDU: Convergence failed at  36  side 2    Res =  0.1376E+05
 MRCHDU: Convergence failed at  37  side 2    Res =  0.3473E+03
 MRCHDU: Convergence failed at  38  side 2    Res =  0.2659E+03
 MRCHDU: Convergence failed at  39  side 2    Res =  0.1529E+03
 MRCHDU: Convergence failed at  40  side 2    Res =  0.2375E+03
 MRCHDU: Convergence failed at  41  side 2    Res =  0.3025E+03
 MRCHDU: Convergence failed at  42  side 2    Res =  0.2192E+03
 MRCHDU: Convergence failed at  43  side 2    Res =  0.2355E+04
 MRCHDU: Convergence failed at  44  side 2    Res =  0.1926E+03
 MRCHDU: Convergence failed at  45  side 2    Res =  0.1500E+03
 MRCHDU: Convergence failed at  46  side 2    Res =  0.1262E+03
 MRCHDU: Convergence failed at  47  side 2    Res =  0.1256E+03
 MRCHDU: Convergence failed at  48  side 2    Res =  0.1397E+03
 MRCHDU: Convergence failed at  49  side 2    Res =  0.6999E+03
 MRCHDU: Convergence failed at  50  side 2    Res =  0.1900E+03
 MRCHDU: Convergence failed at  51  side 2    Res =  0.1108E+04
 MRCHDU: Convergence failed at  52  side 2    Res =  0.3622E+04
 MRCHDU: Convergence failed at  53  side 2    Res =  0.2365E+03
 MRCHDU: Convergence failed at  54  side 2    Res =  0.3132E+03
 MRCHDU: Convergence failed at  55  side 2    Res =  0.3060E+03
 MRCHDU: Convergence failed at  56  side 2    Res =  0.2696E+03
 MRCHDU: Convergence failed at  57  side 2    Res =  0.2402E+03
 MRCHDU: Convergence failed at  58  side 2    Res =  0.1186E+03
 MRCHDU: Convergence failed at  59  side 2    Res =  0.1203E+03
 MRCHDU: Convergence failed at  60  side 2    Res =  0.1215E+03
 MRCHDU: Convergence failed at  61  side 2    Res =  0.1218E+03
 MRCHDU: Convergence failed at  62  side 2    Res =  0.1214E+03
 MRCHDU: Convergence failed at  63  side 2    Res =  0.1192E+03
 MRCHDU: Convergence failed at  64  side 2    Res =  0.2102E+03
 MRCHDU: Convergence failed at  65  side 2    Res =  0.1150E+05
 MRCHDU: Convergence failed at  66  side 2    Res =  0.9762E+03
 MRCHDU: Convergence failed at  67  side 2    Res =  0.1856E+03
 MRCHDU: Convergence failed at  68  side 2    Res =  0.3425E+03
 MRCHDU: Convergence failed at  69  side 2    Res =  0.4325E+03
 MRCHDU: Convergence failed at  70  side 2    Res =  0.4547E+03
 MRCHDU: Convergence failed at  71  side 2    Res =  0.4792E+03
 MRCHDU: Convergence failed at  72  side 2    Res =  0.5697E+03
 MRCHDU: Convergence failed at  73  side 2    Res =  0.1656E+03
 MRCHDU: Convergence failed at  74  side 2    Res =  0.1217E+04
 MRCHDU: Convergence failed at  75  side 2    Res =  0.3687E+03
 MRCHDU: Convergence failed at  76  side 2    Res =  0.1072E+04
 MRCHDU: Convergence failed at  77  side 2    Res =  0.2097E+03
 MRCHDU: Convergence failed at  78  side 2    Res =  0.2278E+03
 MRCHDU: Convergence failed at  79  side 2    Res =  0.1763E+03
 MRCHDU: Convergence failed at  80  side 2    Res =  0.2150E+03
 MRCHDU: Convergence failed at  81  side 2    Res =  0.2876E+03
 MRCHDU: Convergence failed at  82  side 2    Res =  0.2782E+03
 MRCHDU: Convergence failed at  83  side 2    Res =  0.3182E+03
 MRCHDU: Convergence failed at  84  side 2    Res =  0.2134E+03
 MRCHDU: Convergence failed at  85  side 2    Res =  0.6428E+03
 MRCHDU: Convergence failed at  86  side 2    Res =  0.4910E+03
 MRCHDU: Convergence failed at  87  side 2    Res =  0.3067E+03
 MRCHDU: Convergence failed at  88  side 2    Res =  0.3095E+03
 MRCHDU: Convergence failed at  90  side 2    Res =  0.2933E+00
 MRCHDU: Convergence failed at  91  side 2    Res =  0.1234E+01
 MRCHDU: Convergence failed at  92  side 2    Res =  0.1867E+01
 MRCHDU: Convergence failed at  93  side 2    Res =  0.2389E+01
 MRCHDU: Convergence failed at  94  side 2    Res =  0.2933E+01
 MRCHDU: Convergence failed at  95  side 2    Res =  0.3415E+01
 MRCHDU: Convergence failed at  96  side 2    Res =  0.3764E+01
 MRCHDU: Convergence failed at  97  side 2    Res =  0.3986E+01
 MRCHDU: Convergence failed at  98  side 2    Res =  0.4097E+01
 MRCHDU: Convergence failed at  99  side 2    Res =  0.4106E+01
 MRCHDU: Convergence failed at 100  side 2    Res =  0.4014E+01
 MRCHDU: Convergence failed at 101  side 2    Res =  0.3819E+01
 MRCHDU: Convergence failed at 102  side 2    Res =  0.3522E+01
 MRCHDU: Convergence failed at 103  side 2    Res =  0.3127E+01
 MRCHDU: Convergence failed at 104  side 2    Res =  0.2641E+01
 MRCHDU: Convergence failed at 105  side 2    Res =  0.2092E+01
 MRCHDU: Convergence failed at 106  side 2    Res =  0.1518E+01
 MRCHDU: Convergence failed at 107  side 2    Res =  0.9801E+00
 MRCHDU: Convergence failed at 108  side 2    Res =  0.5060E+00
 MRCHDU: Convergence failed at 109  side 2    Res =  0.8281E-01
 Side 1  free  transition at x/c =  0.9288   68
 Side 2  free  transition at x/c =  0.0570   21

   5   rms: 0.1278E+01   max: 0.4750E+01   T at   22  2   RLX: 0.113
       a = -4.000      CL = -2.1571
      Cm =  0.5110     CD =  0.00197   =>   CDf =  0.00146    CDp =  0.00051

 MRCHDU: Convergence failed at 107  side 2    Res =  0.3868E+01
 MRCHDU: Convergence failed at 108  side 2    Res =  0.4688E+01
 MRCHDU: Convergence failed at 109  side 2    Res =  0.1320E+01
 MRCHDU: Convergence failed at 110  side 2    Res =  0.1314E+01
 Side 1  free  transition at x/c =  0.9301   68
 Side 2  free  transition at x/c =  0.0531   21

   6   rms: 0.1366E+01   max: -.3314E+01   T at   21  2   RLX: 0.151
       a = -4.000      CL = -1.4112
      Cm =  0.3087     CD =  0.01005   =>   CDf =  0.00208    CDp =  0.00797

 Side 1  free  transition at x/c =  0.9268   69
 Side 2  free  transition at x/c =  0.0474   20

   7   rms: 0.1216E+01   max: 0.5979E+01   T at   20  2   RLX: 0.122
       a = -4.000      CL = -1.2031
      Cm =  0.2611     CD =  0.00485   =>   CDf =  0.00216    CDp =  0.00269

 Side 1  free  transition at x/c =  0.9279   69
 Side 2  free  transition at x/c =  0.0338   18

   8   rms: 0.3193E+01   max: -.2842E+02   T at   20  2   RLX: 0.018
       a = -4.000      CL = -1.0423
      Cm =  0.2255     CD =  0.00721   =>   CDf =  0.00225    CDp =  0.00496

 Side 1  free  transition at x/c =  0.9280   69
 Side 2  free  transition at x/c =  0.0338   18

   9   rms: 0.2556E+01   max: -.3594E+02   T at   20  2   RLX: 0.014
       a = -4.000      CL = -1.0247
      Cm =  0.2236     CD =  0.00688   =>   CDf =  0.00226    CDp =  0.00462

 Side 1  free  transition at x/c =  0.9281   69
 Side 2  free  transition at x/c =  0.0337   18

  10   rms: 0.3713E+01   max: -.5768E+02   T at   19  2   RLX: 0.009
       a = -4.000      CL = -1.0139
      Cm =  0.2237     CD =  0.00680   =>   CDf =  0.00226    CDp =  0.00454

 MRCHDU: Convergence failed at  20  side 2    Res =  0.3381E-01
 MRCHDU: Convergence failed at  21  side 2    Res =  0.2098E+00
 MRCHDU: Convergence failed at  22  side 2    Res =  0.3826E+00
 MRCHDU: Convergence failed at  23  side 2    Res =  0.2375E+00
 MRCHDU: Convergence failed at  24  side 2    Res =  0.3760E+00
 MRCHDU: Convergence failed at  25  side 2    Res =  0.2816E+00
 MRCHDU: Convergence failed at  26  side 2    Res =  0.2188E+00
 MRCHDU: Convergence failed at  27  side 2    Res =  0.2267E+00
 MRCHDU: Convergence failed at  28  side 2    Res =  0.2179E+00
 MRCHDU: Convergence failed at  29  side 2    Res =  0.2181E+00
 MRCHDU: Convergence failed at  30  side 2    Res =  0.2131E+00
 MRCHDU: Convergence failed at  31  side 2    Res =  0.2098E+00
 MRCHDU: Convergence failed at  32  side 2    Res =  0.2060E+00
 MRCHDU: Convergence failed at  33  side 2    Res =  0.2031E+00
 MRCHDU: Convergence failed at  34  side 2    Res =  0.2005E+00
 MRCHDU: Convergence failed at  35  side 2    Res =  0.1984E+00
 MRCHDU: Convergence failed at  36  side 2    Res =  0.1964E+00
 MRCHDU: Convergence failed at  37  side 2    Res =  0.1945E+00
 MRCHDU: Convergence failed at  38  side 2    Res =  0.1926E+00
 MRCHDU: Convergence failed at  39  side 2    Res =  0.1907E+00
 MRCHDU: Convergence failed at  40  side 2    Res =  0.1886E+00
 MRCHDU: Convergence failed at  41  side 2    Res =  0.3542E+01
 MRCHDU: Convergence failed at  42  side 2    Res =  0.9242E+00
 MRCHDU: Convergence failed at  43  side 2    Res =  0.9351E+00
 MRCHDU: Convergence failed at  44  side 2    Res =  0.8241E+00
 MRCHDU: Convergence failed at  45  side 2    Res =  0.6657E+00
 MRCHDU: Convergence failed at  46  side 2    Res =  0.5628E+00
 MRCHDU: Convergence failed at  47  side 2    Res =  0.4908E+00
 MRCHDU: Convergence failed at  48  side 2    Res =  0.4346E+00
 MRCHDU: Convergence failed at  49  side 2    Res =  0.3836E+00
 MRCHDU: Convergence failed at  50  side 2    Res =  0.3627E+00
 MRCHDU: Convergence failed at  51  side 2    Res =  0.2271E+00
 MRCHDU: Convergence failed at  52  side 2    Res =  0.2049E+00
 MRCHDU: Convergence failed at  53  side 2    Res =  0.2001E+00
 MRCHDU: Convergence failed at  54  side 2    Res =  0.1942E+00
 MRCHDU: Convergence failed at  55  side 2    Res =  0.1860E+00
 MRCHDU: Convergence failed at  56  side 2    Res =  0.1775E+00
 MRCHDU: Convergence failed at  57  side 2    Res =  0.1691E+00
 MRCHDU: Convergence failed at  58  side 2    Res =  0.1609E+00
 MRCHDU: Convergence failed at  59  side 2    Res =  0.1531E+00
 MRCHDU: Convergence failed at  60  side 2    Res =  0.1458E+00
 MRCHDU: Convergence failed at  61  side 2    Res =  0.1389E+00
 MRCHDU: Convergence failed at  62  side 2    Res =  0.1326E+00
 MRCHDU: Convergence failed at  63  side 2    Res =  0.1269E+00
 MRCHDU: Convergence failed at  64  side 2    Res =  0.1217E+00
 MRCHDU: Convergence failed at  65  side 2    Res =  0.1170E+00
 MRCHDU: Convergence failed at  66  side 2    Res =  0.1129E+00
 MRCHDU: Convergence failed at  67  side 2    Res =  0.1100E+00
 MRCHDU: Convergence failed at  68  side 2    Res =  0.1060E+00
 MRCHDU: Convergence failed at  69  side 2    Res =  0.1014E+00
 MRCHDU: Convergence failed at  70  side 2    Res =  0.9727E-01
 Side 1  free  transition at x/c =  0.9281   69
 Side 2  free  transition at x/c =  0.0337   18

  11   rms: 0.1229E+02   max: 0.1997E+03   T at   45  2   RLX: 0.003
       a = -4.000      CL = -1.0980
      Cm =  0.2515     CD =  0.00699   =>   CDf =  0.00220    CDp =  0.00479

 MRCHDU: Convergence failed at  20  side 2    Res =  0.3316E-01
 MRCHDU: Convergence failed at  21  side 2    Res =  0.5485E-01
 MRCHDU: Convergence failed at  22  side 2    Res =  0.2216E-01
 MRCHDU: Convergence failed at  23  side 2    Res =  0.1410E-01
 MRCHDU: Convergence failed at  24  side 2    Res =  0.1030E-01
 MRCHDU: Convergence failed at  25  side 2    Res =  0.8520E-02
 MRCHDU: Convergence failed at  26  side 2    Res =  0.7211E-02
 MRCHDU: Convergence failed at  27  side 2    Res =  0.6272E-02
 MRCHDU: Convergence failed at  28  side 2    Res =  0.5767E-02
 MRCHDU: Convergence failed at  29  side 2    Res =  0.5183E-02
 MRCHDU: Convergence failed at  30  side 2    Res =  0.4589E-02
 MRCHDU: Convergence failed at  31  side 2    Res =  0.4232E-02
 MRCHDU: Convergence failed at  32  side 2    Res =  0.3946E-02
 MRCHDU: Convergence failed at  33  side 2    Res =  0.3785E-02
 MRCHDU: Convergence failed at  34  side 2    Res =  0.3269E-02
 MRCHDU: Convergence failed at  35  side 2    Res =  0.2986E-02
 MRCHDU: Convergence failed at  36  side 2    Res =  0.3348E-02
 MRCHDU: Convergence failed at  37  side 2    Res =  0.2740E-02
 MRCHDU: Convergence failed at  38  side 2    Res =  0.2612E-02
 MRCHDU: Convergence failed at  39  side 2    Res =  0.3053E-02
 MRCHDU: Convergence failed at  40  side 2    Res =  0.2276E-02
 MRCHDU: Convergence failed at  41  side 2    Res =  0.1949E-02
 MRCHDU: Convergence failed at  42  side 2    Res =  0.2096E-02
 MRCHDU: Convergence failed at  43  side 2    Res =  0.2526E-02
 MRCHDU: Convergence failed at  44  side 2    Res =  0.2868E-02
 MRCHDU: Convergence failed at  45  side 2    Res =  0.3927E-02
 MRCHDU: Convergence failed at  46  side 2    Res =  0.1573E-02
 MRCHDU: Convergence failed at  47  side 2    Res =  0.1429E-02
 MRCHDU: Convergence failed at  48  side 2    Res =  0.8948E-03
 MRCHDU: Convergence failed at  49  side 2    Res =  0.1042E-02
 MRCHDU: Convergence failed at  50  side 2    Res =  0.1654E-02
 MRCHDU: Convergence failed at  51  side 2    Res =  0.1383E-02
 MRCHDU: Convergence failed at  52  side 2    Res =  0.1552E-02
 MRCHDU: Convergence failed at  53  side 2    Res =  0.1404E-02
 MRCHDU: Convergence failed at  54  side 2    Res =  0.1445E-02
 MRCHDU: Convergence failed at  55  side 2    Res =  0.1601E-02
 MRCHDU: Convergence failed at  56  side 2    Res =  0.1374E-02
 MRCHDU: Convergence failed at  57  side 2    Res =  0.1283E-02
 MRCHDU: Convergence failed at  58  side 2    Res =  0.1242E-02
 MRCHDU: Convergence failed at  59  side 2    Res =  0.1254E-02
 MRCHDU: Convergence failed at  60  side 2    Res =  0.1266E-02
 MRCHDU: Convergence failed at  61  side 2    Res =  0.1187E-02
 MRCHDU: Convergence failed at  62  side 2    Res =  0.1149E-02
 MRCHDU: Convergence failed at  63  side 2    Res =  0.1156E-02
 MRCHDU: Convergence failed at  64  side 2    Res =  0.1160E-02
 MRCHDU: Convergence failed at  65  side 2    Res =  0.1128E-02
 MRCHDU: Convergence failed at  66  side 2    Res =  0.1078E-02
 MRCHDU: Convergence failed at  67  side 2    Res =  0.1032E-02
 MRCHDU: Convergence failed at  68  side 2    Res =  0.9967E-03
 MRCHDU: Convergence failed at  69  side 2    Res =  0.9956E-03
 MRCHDU: Convergence failed at  70  side 2    Res =  0.4399E-02
 Side 1  free  transition at x/c =  0.9282   69
 Side 2  free  transition at x/c =  0.0337   18

  12   rms: 0.1952E+02   max: 0.3260E+03   T at   48  2   RLX: 0.005
       a = -4.000      CL = -1.0768
      Cm =  0.2460     CD =  0.03239   =>   CDf =  0.00227    CDp =  0.03012

 MRCHDU: Convergence failed at  20  side 2    Res =  0.3284E-01
 MRCHDU: Convergence failed at  21  side 2    Res =  0.5503E-01
 MRCHDU: Convergence failed at  22  side 2    Res =  0.2216E-01
 MRCHDU: Convergence failed at  23  side 2    Res =  0.1384E-01
 MRCHDU: Convergence failed at  24  side 2    Res =  0.1022E-01
 MRCHDU: Convergence failed at  25  side 2    Res =  0.8620E-02
 MRCHDU: Convergence failed at  26  side 2    Res =  0.7097E-02
 MRCHDU: Convergence failed at  27  side 2    Res =  0.6173E-02
 MRCHDU: Convergence failed at  28  side 2    Res =  0.5840E-02
 MRCHDU: Convergence failed at  29  side 2    Res =  0.5465E-02
 MRCHDU: Convergence failed at  30  side 2    Res =  0.4939E-02
 MRCHDU: Convergence failed at  31  side 2    Res =  0.4386E-02
 MRCHDU: Convergence failed at  32  side 2    Res =  0.4000E-02
 MRCHDU: Convergence failed at  33  side 2    Res =  0.3955E-02
 MRCHDU: Convergence failed at  34  side 2    Res =  0.3083E-02
 MRCHDU: Convergence failed at  35  side 2    Res =  0.2593E-02
 MRCHDU: Convergence failed at  36  side 2    Res =  0.2988E-02
 MRCHDU: Convergence failed at  37  side 2    Res =  0.2591E-02
 MRCHDU: Convergence failed at  38  side 2    Res =  0.2713E-02
 MRCHDU: Convergence failed at  39  side 2    Res =  0.3325E-02
 MRCHDU: Convergence failed at  40  side 2    Res =  0.1851E-02
 MRCHDU: Convergence failed at  41  side 2    Res =  0.1495E-02
 MRCHDU: Convergence failed at  42  side 2    Res =  0.2061E-02
 MRCHDU: Convergence failed at  43  side 2    Res =  0.3153E-02
 MRCHDU: Convergence failed at  44  side 2    Res =  0.3119E-02
 MRCHDU: Convergence failed at  45  side 2    Res =  0.3441E-02
 MRCHDU: Convergence failed at  46  side 2    Res =  0.1036E-02
 MRCHDU: Convergence failed at  47  side 2    Res =  0.1145E-02
 MRCHDU: Convergence failed at  48  side 2    Res =  0.2741E-02
 MRCHDU: Convergence failed at  49  side 2    Res =  0.3431E-02
 MRCHDU: Convergence failed at  50  side 2    Res =  0.3037E-02
 MRCHDU: Convergence failed at  51  side 2    Res =  0.2383E-02
 MRCHDU: Convergence failed at  52  side 2    Res =  0.3818E-02
 MRCHDU: Convergence failed at  53  side 2    Res =  0.5081E-02
 MRCHDU: Convergence failed at  54  side 2    Res =  0.4251E-02
 MRCHDU: Convergence failed at  55  side 2    Res =  0.5100E-02
 MRCHDU: Convergence failed at  56  side 2    Res =  0.5699E-02
 MRCHDU: Convergence failed at  57  side 2    Res =  0.7801E-02
 MRCHDU: Convergence failed at  58  side 2    Res =  0.3348E-02
 MRCHDU: Convergence failed at  59  side 2    Res =  0.1760E-02
 MRCHDU: Convergence failed at  60  side 2    Res =  0.1711E-02
 MRCHDU: Convergence failed at  61  side 2    Res =  0.1801E-02
 MRCHDU: Convergence failed at  62  side 2    Res =  0.1071E-02
 MRCHDU: Convergence failed at  63  side 2    Res =  0.9680E-03
 MRCHDU: Convergence failed at  64  side 2    Res =  0.1012E-02
 MRCHDU: Convergence failed at  65  side 2    Res =  0.9848E-03
 MRCHDU: Convergence failed at  66  side 2    Res =  0.9379E-03
 MRCHDU: Convergence failed at  67  side 2    Res =  0.7348E-03
 MRCHDU: Convergence failed at  68  side 2    Res =  0.7518E-03
 MRCHDU: Convergence failed at  69  side 2    Res =  0.8831E-03
 MRCHDU: Convergence failed at  70  side 2    Res =  0.3230E-02
 Side 1  free  transition at x/c =  0.9285   69
 Side 2  free  transition at x/c =  0.0337   18

  13   rms: 0.9923E+01   max: 0.1246E+03   T at   46  2   RLX: 0.007
       a = -4.000      CL = -1.0680
      Cm =  0.2434     CD =  0.03174   =>   CDf =  0.00227    CDp =  0.02947

 MRCHDU: Convergence failed at  20  side 2    Res =  0.3745E-01
 MRCHDU: Convergence failed at  21  side 2    Res =  0.5106E-01
 MRCHDU: Convergence failed at  22  side 2    Res =  0.2181E-01
 MRCHDU: Convergence failed at  23  side 2    Res =  0.1381E-01
 MRCHDU: Convergence failed at  24  side 2    Res =  0.1046E-01
 MRCHDU: Convergence failed at  25  side 2    Res =  0.8464E-02
 MRCHDU: Convergence failed at  26  side 2    Res =  0.7602E-02
 MRCHDU: Convergence failed at  27  side 2    Res =  0.7149E-02
 MRCHDU: Convergence failed at  28  side 2    Res =  0.6217E-02
 MRCHDU: Convergence failed at  29  side 2    Res =  0.5624E-02
 MRCHDU: Convergence failed at  30  side 2    Res =  0.5538E-02
 MRCHDU: Convergence failed at  31  side 2    Res =  0.5235E-02
 MRCHDU: Convergence failed at  32  side 2    Res =  0.4253E-02
 MRCHDU: Convergence failed at  33  side 2    Res =  0.4249E-02
 MRCHDU: Convergence failed at  34  side 2    Res =  0.3450E-02
 MRCHDU: Convergence failed at  35  side 2    Res =  0.2167E-02
 MRCHDU: Convergence failed at  36  side 2    Res =  0.1931E-02
 MRCHDU: Convergence failed at  37  side 2    Res =  0.1399E-02
 MRCHDU: Convergence failed at  38  side 2    Res =  0.1590E-02
 MRCHDU: Convergence failed at  39  side 2    Res =  0.2582E-02
 MRCHDU: Convergence failed at  40  side 2    Res =  0.1910E-02
 MRCHDU: Convergence failed at  41  side 2    Res =  0.2221E-02
 MRCHDU: Convergence failed at  42  side 2    Res =  0.3418E-02
 MRCHDU: Convergence failed at  43  side 2    Res =  0.3553E-02
 MRCHDU: Convergence failed at  44  side 2    Res =  0.4529E-02
 MRCHDU: Convergence failed at  45  side 2    Res =  0.1278E-01
 MRCHDU: Convergence failed at  46  side 2    Res =  0.3222E-02
 MRCHDU: Convergence failed at  47  side 2    Res =  0.2698E-02
 MRCHDU: Convergence failed at  48  side 2    Res =  0.5679E-02
 MRCHDU: Convergence failed at  49  side 2    Res =  0.8382E-02
 MRCHDU: Convergence failed at  50  side 2    Res =  0.3110E-02
 MRCHDU: Convergence failed at  51  side 2    Res =  0.2216E-02
 MRCHDU: Convergence failed at  52  side 2    Res =  0.5530E-02
 MRCHDU: Convergence failed at  56  side 2    Res =  0.1765E-01
 MRCHDU: Convergence failed at  57  side 2    Res =  0.9484E-01
 MRCHDU: Convergence failed at  58  side 2    Res =  0.1684E-01
 MRCHDU: Convergence failed at  59  side 2    Res =  0.4774E-02
 MRCHDU: Convergence failed at  60  side 2    Res =  0.3986E-02
 MRCHDU: Convergence failed at  61  side 2    Res =  0.1747E-02
 MRCHDU: Convergence failed at  62  side 2    Res =  0.4691E-03
 MRCHDU: Convergence failed at  63  side 2    Res =  0.5927E-03
 MRCHDU: Convergence failed at  64  side 2    Res =  0.1218E-02
 MRCHDU: Convergence failed at  65  side 2    Res =  0.1279E-02
 MRCHDU: Convergence failed at  66  side 2    Res =  0.1561E-02
 MRCHDU: Convergence failed at  67  side 2    Res =  0.1666E-02
 MRCHDU: Convergence failed at  68  side 2    Res =  0.1105E-02
 MRCHDU: Convergence failed at  69  side 2    Res =  0.1040E-02
 MRCHDU: Convergence failed at  70  side 2    Res =  0.6276E-02
 Side 1  free  transition at x/c =  0.9290   69
 Side 2  free  transition at x/c =  0.0337   18

  14   rms: 0.3041E+02   max: -.7096E+03   C at   57  2   RLX: 0.001
       a = -4.000      CL = -1.0673
      Cm =  0.2433     CD =  0.03148   =>   CDf =  0.00227    CDp =  0.02921

 MRCHDU: Convergence failed at  20  side 2    Res =  0.3687E-01
 MRCHDU: Convergence failed at  21  side 2    Res =  0.5112E-01
 MRCHDU: Convergence failed at  22  side 2    Res =  0.2178E-01
 MRCHDU: Convergence failed at  23  side 2    Res =  0.1393E-01
 MRCHDU: Convergence failed at  24  side 2    Res =  0.1050E-01
 MRCHDU: Convergence failed at  25  side 2    Res =  0.8469E-02
 MRCHDU: Convergence failed at  26  side 2    Res =  0.7601E-02
 MRCHDU: Convergence failed at  27  side 2    Res =  0.7146E-02
 MRCHDU: Convergence failed at  28  side 2    Res =  0.6230E-02
 MRCHDU: Convergence failed at  29  side 2    Res =  0.5636E-02
 MRCHDU: Convergence failed at  30  side 2    Res =  0.5534E-02
 MRCHDU: Convergence failed at  31  side 2    Res =  0.5265E-02
 MRCHDU: Convergence failed at  32  side 2    Res =  0.4272E-02
 MRCHDU: Convergence failed at  33  side 2    Res =  0.4217E-02
 MRCHDU: Convergence failed at  34  side 2    Res =  0.3416E-02
 MRCHDU: Convergence failed at  35  side 2    Res =  0.2235E-02
 MRCHDU: Convergence failed at  36  side 2    Res =  0.2014E-02
 MRCHDU: Convergence failed at  37  side 2    Res =  0.1409E-02
 MRCHDU: Convergence failed at  38  side 2    Res =  0.1581E-02
 MRCHDU: Convergence failed at  39  side 2    Res =  0.2536E-02
 MRCHDU: Convergence failed at  40  side 2    Res =  0.1868E-02
 MRCHDU: Convergence failed at  41  side 2    Res =  0.2161E-02
 MRCHDU: Convergence failed at  42  side 2    Res =  0.3339E-02
 MRCHDU: Convergence failed at  43  side 2    Res =  0.3516E-02
 MRCHDU: Convergence failed at  44  side 2    Res =  0.4575E-02
 MRCHDU: Convergence failed at  45  side 2    Res =  0.1353E-01
 MRCHDU: Convergence failed at  46  side 2    Res =  0.2971E-02
 MRCHDU: Convergence failed at  47  side 2    Res =  0.2566E-02
 MRCHDU: Convergence failed at  48  side 2    Res =  0.5616E-02
 MRCHDU: Convergence failed at  49  side 2    Res =  0.7688E-02
 MRCHDU: Convergence failed at  50  side 2    Res =  0.2702E-02
 MRCHDU: Convergence failed at  51  side 2    Res =  0.2165E-02
 MRCHDU: Convergence failed at  52  side 2    Res =  0.6610E-02
 MRCHDU: Convergence failed at  56  side 2    Res =  0.1709E-01
 MRCHDU: Convergence failed at  57  side 2    Res =  0.1133E+00
 MRCHDU: Convergence failed at  58  side 2    Res =  0.2484E-01
 MRCHDU: Convergence failed at  59  side 2    Res =  0.5739E-02
 MRCHDU: Convergence failed at  60  side 2    Res =  0.4912E-02
 MRCHDU: Convergence failed at  61  side 2    Res =  0.1907E-02
 MRCHDU: Convergence failed at  62  side 2    Res =  0.4858E-03
 MRCHDU: Convergence failed at  63  side 2    Res =  0.6094E-03
 MRCHDU: Convergence failed at  64  side 2    Res =  0.1290E-02
 MRCHDU: Convergence failed at  65  side 2    Res =  0.1312E-02
 MRCHDU: Convergence failed at  66  side 2    Res =  0.1548E-02
 MRCHDU: Convergence failed at  67  side 2    Res =  0.1673E-02
 MRCHDU: Convergence failed at  68  side 2    Res =  0.1103E-02
 MRCHDU: Convergence failed at  69  side 2    Res =  0.1030E-02
 MRCHDU: Convergence failed at  70  side 2    Res =  0.5550E-02
 Side 1  free  transition at x/c =  0.9291   69
 Side 2  free  transition at x/c =  0.0337   18

  15   rms: 0.1914E+02   max: -.2019E+03   C at   57  2   RLX: 0.002
       a = -4.000      CL = -1.0650
      Cm =  0.2430     CD =  0.03493   =>   CDf =  0.00227    CDp =  0.03266

 MRCHDU: Convergence failed at  20  side 2    Res =  0.3480E-01
 MRCHDU: Convergence failed at  21  side 2    Res =  0.5236E-01
 MRCHDU: Convergence failed at  22  side 2    Res =  0.2269E-01
 MRCHDU: Convergence failed at  23  side 2    Res =  0.1493E-01
 MRCHDU: Convergence failed at  24  side 2    Res =  0.1074E-01
 MRCHDU: Convergence failed at  25  side 2    Res =  0.8614E-02
 MRCHDU: Convergence failed at  26  side 2    Res =  0.7666E-02
 MRCHDU: Convergence failed at  27  side 2    Res =  0.7202E-02
 MRCHDU: Convergence failed at  28  side 2    Res =  0.6251E-02
 MRCHDU: Convergence failed at  29  side 2    Res =  0.5547E-02
 MRCHDU: Convergence failed at  30  side 2    Res =  0.5386E-02
 MRCHDU: Convergence failed at  31  side 2    Res =  0.5147E-02
 MRCHDU: Convergence failed at  32  side 2    Res =  0.4276E-02
 MRCHDU: Convergence failed at  33  side 2    Res =  0.4316E-02
 MRCHDU: Convergence failed at  34  side 2    Res =  0.3655E-02
 MRCHDU: Convergence failed at  35  side 2    Res =  0.2595E-02
 MRCHDU: Convergence failed at  36  side 2    Res =  0.2330E-02
 MRCHDU: Convergence failed at  37  side 2    Res =  0.1775E-02
 MRCHDU: Convergence failed at  38  side 2    Res =  0.1989E-02
 MRCHDU: Convergence failed at  39  side 2    Res =  0.3068E-02
 MRCHDU: Convergence failed at  40  side 2    Res =  0.2676E-02
 MRCHDU: Convergence failed at  41  side 2    Res =  0.2808E-02
 MRCHDU: Convergence failed at  42  side 2    Res =  0.3214E-02
 MRCHDU: Convergence failed at  43  side 2    Res =  0.3181E-02
 MRCHDU: Convergence failed at  44  side 2    Res =  0.4019E-02
 MRCHDU: Convergence failed at  45  side 2    Res =  0.1052E-01
 MRCHDU: Convergence failed at  46  side 2    Res =  0.2808E-02
 MRCHDU: Convergence failed at  47  side 2    Res =  0.2652E-02
 MRCHDU: Convergence failed at  48  side 2    Res =  0.1258E-01
 MRCHDU: Convergence failed at  49  side 2    Res =  0.3286E-01
 MRCHDU: Convergence failed at  50  side 2    Res =  0.3525E-02
 MRCHDU: Convergence failed at  51  side 2    Res =  0.3218E-02
 MRCHDU: Convergence failed at  52  side 2    Res =  0.6313E+00
 MRCHDU: Convergence failed at  53  side 2    Res =  0.2109E-01
 MRCHDU: Convergence failed at  54  side 2    Res =  0.6650E-02
 MRCHDU: Convergence failed at  55  side 2    Res =  0.4290E-02
 MRCHDU: Convergence failed at  56  side 2    Res =  0.1496E-01
 Side 1  free  transition at x/c =  0.9295   69
 Side 2  free  transition at x/c =  0.0337   18

  16   rms: 0.2361E+02   max: -.2988E+03   T at   61  2   RLX: 0.002
       a = -4.000      CL = -1.0633
      Cm =  0.2427     CD =  0.02494   =>   CDf =  0.00228    CDp =  0.02267

 MRCHDU: Convergence failed at  20  side 2    Res =  0.3423E-01
 MRCHDU: Convergence failed at  21  side 2    Res =  0.5282E-01
 MRCHDU: Convergence failed at  22  side 2    Res =  0.2274E-01
 MRCHDU: Convergence failed at  23  side 2    Res =  0.1490E-01
 MRCHDU: Convergence failed at  24  side 2    Res =  0.1075E-01
 MRCHDU: Convergence failed at  25  side 2    Res =  0.8646E-02
 MRCHDU: Convergence failed at  26  side 2    Res =  0.7720E-02
 MRCHDU: Convergence failed at  27  side 2    Res =  0.7234E-02
 MRCHDU: Convergence failed at  28  side 2    Res =  0.6239E-02
 MRCHDU: Convergence failed at  29  side 2    Res =  0.5539E-02
 MRCHDU: Convergence failed at  30  side 2    Res =  0.5383E-02
 MRCHDU: Convergence failed at  31  side 2    Res =  0.5104E-02
 MRCHDU: Convergence failed at  32  side 2    Res =  0.4244E-02
 MRCHDU: Convergence failed at  33  side 2    Res =  0.4316E-02
 MRCHDU: Convergence failed at  34  side 2    Res =  0.3510E-02
 MRCHDU: Convergence failed at  35  side 2    Res =  0.2558E-02
 MRCHDU: Convergence failed at  36  side 2    Res =  0.2333E-02
 MRCHDU: Convergence failed at  37  side 2    Res =  0.1694E-02
 MRCHDU: Convergence failed at  38  side 2    Res =  0.1872E-02
 MRCHDU: Convergence failed at  39  side 2    Res =  0.2821E-02
 MRCHDU: Convergence failed at  40  side 2    Res =  0.2340E-02
 MRCHDU: Convergence failed at  41  side 2    Res =  0.2487E-02
 MRCHDU: Convergence failed at  42  side 2    Res =  0.3190E-02
 MRCHDU: Convergence failed at  43  side 2    Res =  0.3344E-02
 MRCHDU: Convergence failed at  44  side 2    Res =  0.4140E-02
 MRCHDU: Convergence failed at  45  side 2    Res =  0.1230E-01
 MRCHDU: Convergence failed at  46  side 2    Res =  0.3934E-02
 MRCHDU: Convergence failed at  47  side 2    Res =  0.3330E-02
 MRCHDU: Convergence failed at  48  side 2    Res =  0.1362E-01
 MRCHDU: Convergence failed at  49  side 2    Res =  0.7548E-01
 MRCHDU: Convergence failed at  50  side 2    Res =  0.2286E-02
 MRCHDU: Convergence failed at  51  side 2    Res =  0.2127E-02
 MRCHDU: Convergence failed at  52  side 2    Res =  0.5509E-02
 MRCHDU: Convergence failed at  53  side 2    Res =  0.9093E-02
 MRCHDU: Convergence failed at  54  side 2    Res =  0.6673E-02
 MRCHDU: Convergence failed at  55  side 2    Res =  0.4453E-02
 MRCHDU: Convergence failed at  56  side 2    Res =  0.1398E-01
 Side 1  free  transition at x/c =  0.9298   69
 Side 2  free  transition at x/c =  0.0337   18

  17   rms: 0.2594E+03   max: -.2028E+04   T at   62  2   RLX: 0.000
       a = -4.000      CL = -1.0625
      Cm =  0.2425     CD =  0.03503   =>   CDf =  0.00228    CDp =  0.03276

 MRCHDU: Convergence failed at  20  side 2    Res =  0.3418E-01
 MRCHDU: Convergence failed at  21  side 2    Res =  0.5282E-01
 MRCHDU: Convergence failed at  22  side 2    Res =  0.2275E-01
 MRCHDU: Convergence failed at  23  side 2    Res =  0.1491E-01
 MRCHDU: Convergence failed at  24  side 2    Res =  0.1077E-01
 MRCHDU: Convergence failed at  25  side 2    Res =  0.8644E-02
 MRCHDU: Convergence failed at  26  side 2    Res =  0.7712E-02
 MRCHDU: Convergence failed at  27  side 2    Res =  0.7249E-02
 MRCHDU: Convergence failed at  28  side 2    Res =  0.6252E-02
 MRCHDU: Convergence failed at  29  side 2    Res =  0.5548E-02
 MRCHDU: Convergence failed at  30  side 2    Res =  0.5404E-02
 MRCHDU: Convergence failed at  31  side 2    Res =  0.5123E-02
 MRCHDU: Convergence failed at  32  side 2    Res =  0.4255E-02
 MRCHDU: Convergence failed at  33  side 2    Res =  0.4324E-02
 MRCHDU: Convergence failed at  34  side 2    Res =  0.3530E-02
 MRCHDU: Convergence failed at  35  side 2    Res =  0.2578E-02
 MRCHDU: Convergence failed at  36  side 2    Res =  0.2340E-02
 MRCHDU: Convergence failed at  37  side 2    Res =  0.1694E-02
 MRCHDU: Convergence failed at  38  side 2    Res =  0.1874E-02
 MRCHDU: Convergence failed at  39  side 2    Res =  0.2816E-02
 MRCHDU: Convergence failed at  40  side 2    Res =  0.2309E-02
 MRCHDU: Convergence failed at  41  side 2    Res =  0.2442E-02
 MRCHDU: Convergence failed at  42  side 2    Res =  0.3136E-02
 MRCHDU: Convergence failed at  43  side 2    Res =  0.3286E-02
 MRCHDU: Convergence failed at  44  side 2    Res =  0.4035E-02
 MRCHDU: Convergence failed at  45  side 2    Res =  0.1157E-01
 MRCHDU: Convergence failed at  46  side 2    Res =  0.4017E-02
 MRCHDU: Convergence failed at  47  side 2    Res =  0.3387E-02
 MRCHDU: Convergence failed at  48  side 2    Res =  0.1379E-01
 MRCHDU: Convergence failed at  49  side 2    Res =  0.8030E-01
 MRCHDU: Convergence failed at  50  side 2    Res =  0.2226E-02
 MRCHDU: Convergence failed at  51  side 2    Res =  0.2081E-02
 MRCHDU: Convergence failed at  52  side 2    Res =  0.5127E-02
 MRCHDU: Convergence failed at  53  side 2    Res =  0.7880E-02
 MRCHDU: Convergence failed at  54  side 2    Res =  0.6441E-02
 MRCHDU: Convergence failed at  55  side 2    Res =  0.4612E-02
 MRCHDU: Convergence failed at  56  side 2    Res =  0.1558E-01
 Side 1  free  transition at x/c =  0.9303   69
 Side 2  free  transition at x/c =  0.0337   18

  18   rms: 0.1792E+03   max: -.1124E+04   C at   57  2   RLX: 0.000
       a = -4.000      CL = -1.0624
      Cm =  0.2425     CD =  0.02315   =>   CDf =  0.00228    CDp =  0.02087

 MRCHDU: Convergence failed at  20  side 2    Res =  0.3412E-01
 MRCHDU: Convergence failed at  21  side 2    Res =  0.5287E-01
 MRCHDU: Convergence failed at  22  side 2    Res =  0.2272E-01
 MRCHDU: Convergence failed at  23  side 2    Res =  0.1491E-01
 MRCHDU: Convergence failed at  24  side 2    Res =  0.1078E-01
 MRCHDU: Convergence failed at  25  side 2    Res =  0.8642E-02
 MRCHDU: Convergence failed at  26  side 2    Res =  0.7700E-02
 MRCHDU: Convergence failed at  27  side 2    Res =  0.7230E-02
 MRCHDU: Convergence failed at  28  side 2    Res =  0.6247E-02
 MRCHDU: Convergence failed at  29  side 2    Res =  0.5546E-02
 MRCHDU: Convergence failed at  30  side 2    Res =  0.5388E-02
 MRCHDU: Convergence failed at  31  side 2    Res =  0.5115E-02
 MRCHDU: Convergence failed at  32  side 2    Res =  0.4291E-02
 MRCHDU: Convergence failed at  33  side 2    Res =  0.4371E-02
 MRCHDU: Convergence failed at  34  side 2    Res =  0.3530E-02
 MRCHDU: Convergence failed at  35  side 2    Res =  0.2592E-02
 MRCHDU: Convergence failed at  36  side 2    Res =  0.2367E-02
 MRCHDU: Convergence failed at  37  side 2    Res =  0.1705E-02
 MRCHDU: Convergence failed at  38  side 2    Res =  0.1883E-02
 MRCHDU: Convergence failed at  39  side 2    Res =  0.2823E-02
 MRCHDU: Convergence failed at  40  side 2    Res =  0.2321E-02
 MRCHDU: Convergence failed at  41  side 2    Res =  0.2463E-02
 MRCHDU: Convergence failed at  42  side 2    Res =  0.3152E-02
 MRCHDU: Convergence failed at  43  side 2    Res =  0.3318E-02
 MRCHDU: Convergence failed at  44  side 2    Res =  0.4083E-02
 MRCHDU: Convergence failed at  45  side 2    Res =  0.1191E-01
 MRCHDU: Convergence failed at  46  side 2    Res =  0.3846E-02
 MRCHDU: Convergence failed at  47  side 2    Res =  0.3235E-02
 MRCHDU: Convergence failed at  48  side 2    Res =  0.1266E-01
 MRCHDU: Convergence failed at  49  side 2    Res =  0.1031E+00
 MRCHDU: Convergence failed at  50  side 2    Res =  0.1256E-02
 MRCHDU: Convergence failed at  51  side 2    Res =  0.1325E-02
 MRCHDU: Convergence failed at  52  side 2    Res =  0.3421E-02
 MRCHDU: Convergence failed at  53  side 2    Res =  0.5381E-02
 MRCHDU: Convergence failed at  54  side 2    Res =  0.5772E-02
 MRCHDU: Convergence failed at  55  side 2    Res =  0.4718E-02
 MRCHDU: Convergence failed at  56  side 2    Res =  0.1605E-01
 MRCHDU: Convergence failed at  57  side 2    Res =  0.7293E+00
 MRCHDU: Convergence failed at  58  side 2    Res =  0.1138E-02
 MRCHDU: Convergence failed at  59  side 2    Res =  0.7982E-03
 MRCHDU: Convergence failed at  60  side 2    Res =  0.8076E-03
 MRCHDU: Convergence failed at  61  side 2    Res =  0.3529E-03
 MRCHDU: Convergence failed at  62  side 2    Res =  0.1881E-03
 MRCHDU: Convergence failed at  63  side 2    Res =  0.2897E-03
 MRCHDU: Convergence failed at  64  side 2    Res =  0.1055E-02
 MRCHDU: Convergence failed at  65  side 2    Res =  0.1007E-02
 MRCHDU: Convergence failed at  66  side 2    Res =  0.1049E-02
 MRCHDU: Convergence failed at  67  side 2    Res =  0.1075E-02
 MRCHDU: Convergence failed at  68  side 2    Res =  0.8374E-03
 MRCHDU: Convergence failed at  69  side 2    Res =  0.8601E-03
 MRCHDU: Convergence failed at  70  side 2    Res =  0.4100E-02
 Side 1  free  transition at x/c =  0.9302   69
 Side 2  free  transition at x/c =  0.0337   18

  19   rms: 0.2723E+02   max: -.4608E+03   T at   61  2   RLX: 0.001
       a = -4.000      CL = -1.0601
      Cm =  0.2415     CD =  0.04634   =>   CDf =  0.00228    CDp =  0.04406

 MRCHDU: Convergence failed at  20  side 2    Res =  0.3392E-01
 MRCHDU: Convergence failed at  21  side 2    Res =  0.5294E-01
 MRCHDU: Convergence failed at  22  side 2    Res =  0.2286E-01
 MRCHDU: Convergence failed at  23  side 2    Res =  0.1499E-01
 MRCHDU: Convergence failed at  24  side 2    Res =  0.1069E-01
 MRCHDU: Convergence failed at  25  side 2    Res =  0.8608E-02
 MRCHDU: Convergence failed at  26  side 2    Res =  0.7743E-02
 MRCHDU: Convergence failed at  27  side 2    Res =  0.7238E-02
 MRCHDU: Convergence failed at  28  side 2    Res =  0.6218E-02
 MRCHDU: Convergence failed at  29  side 2    Res =  0.5566E-02
 MRCHDU: Convergence failed at  30  side 2    Res =  0.5399E-02
 MRCHDU: Convergence failed at  31  side 2    Res =  0.5148E-02
 MRCHDU: Convergence failed at  32  side 2    Res =  0.4397E-02
 MRCHDU: Convergence failed at  33  side 2    Res =  0.4475E-02
 MRCHDU: Convergence failed at  34  side 2    Res =  0.3726E-02
 MRCHDU: Convergence failed at  35  side 2    Res =  0.2764E-02
 MRCHDU: Convergence failed at  36  side 2    Res =  0.2410E-02
 MRCHDU: Convergence failed at  37  side 2    Res =  0.1733E-02
 MRCHDU: Convergence failed at  38  side 2    Res =  0.1930E-02
 MRCHDU: Convergence failed at  39  side 2    Res =  0.2735E-02
 MRCHDU: Convergence failed at  40  side 2    Res =  0.2325E-02
 MRCHDU: Convergence failed at  41  side 2    Res =  0.2596E-02
 MRCHDU: Convergence failed at  42  side 2    Res =  0.3270E-02
 MRCHDU: Convergence failed at  43  side 2    Res =  0.3272E-02
 MRCHDU: Convergence failed at  44  side 2    Res =  0.3849E-02
 MRCHDU: Convergence failed at  45  side 2    Res =  0.9672E-02
 MRCHDU: Convergence failed at  46  side 2    Res =  0.4232E-02
 MRCHDU: Convergence failed at  47  side 2    Res =  0.3744E-02
 MRCHDU: Convergence failed at  48  side 2    Res =  0.2140E-01
 MRCHDU: Convergence failed at  49  side 2    Res =  0.5548E-01
 MRCHDU: Convergence failed at  50  side 2    Res =  0.1173E-02
 MRCHDU: Convergence failed at  51  side 2    Res =  0.1242E-02
 MRCHDU: Convergence failed at  52  side 2    Res =  0.3287E-02
 MRCHDU: Convergence failed at  53  side 2    Res =  0.6113E-02
 MRCHDU: Convergence failed at  54  side 2    Res =  0.7557E-02
 MRCHDU: Convergence failed at  55  side 2    Res =  0.5367E-02
 MRCHDU: Convergence failed at  56  side 2    Res =  0.1703E-01
 Side 1  free  transition at x/c =  0.9303   69
 Side 2  free  transition at x/c =  0.0337   18

  20   rms: 0.8318E+02   max: 0.1146E+04   T at   61  2   RLX: 0.001
       a = -4.000      CL = -1.0594
      Cm =  0.2416     CD =  0.05531   =>   CDf =  0.00228    CDp =  0.05303

 MRCHDU: Convergence failed at  20  side 2    Res =  0.3320E-01
 MRCHDU: Convergence failed at  21  side 2    Res =  0.5351E-01
 MRCHDU: Convergence failed at  22  side 2    Res =  0.2288E-01
 MRCHDU: Convergence failed at  23  side 2    Res =  0.1508E-01
 MRCHDU: Convergence failed at  24  side 2    Res =  0.1072E-01
 MRCHDU: Convergence failed at  25  side 2    Res =  0.8671E-02
 MRCHDU: Convergence failed at  26  side 2    Res =  0.7867E-02
 MRCHDU: Convergence failed at  27  side 2    Res =  0.7305E-02
 MRCHDU: Convergence failed at  28  side 2    Res =  0.6227E-02
 MRCHDU: Convergence failed at  29  side 2    Res =  0.5558E-02
 MRCHDU: Convergence failed at  30  side 2    Res =  0.5498E-02
 MRCHDU: Convergence failed at  31  side 2    Res =  0.5323E-02
 MRCHDU: Convergence failed at  32  side 2    Res =  0.4431E-02
 MRCHDU: Convergence failed at  33  side 2    Res =  0.4496E-02
 MRCHDU: Convergence failed at  34  side 2    Res =  0.4012E-02
 MRCHDU: Convergence failed at  35  side 2    Res =  0.3017E-02
 MRCHDU: Convergence failed at  36  side 2    Res =  0.2392E-02
 MRCHDU: Convergence failed at  37  side 2    Res =  0.1627E-02
 MRCHDU: Convergence failed at  38  side 2    Res =  0.1863E-02
 MRCHDU: Convergence failed at  39  side 2    Res =  0.2780E-02
 MRCHDU: Convergence failed at  40  side 2    Res =  0.2386E-02
 MRCHDU: Convergence failed at  41  side 2    Res =  0.2678E-02
 MRCHDU: Convergence failed at  42  side 2    Res =  0.3284E-02
 MRCHDU: Convergence failed at  43  side 2    Res =  0.3618E-02
 MRCHDU: Convergence failed at  44  side 2    Res =  0.4683E-02
 MRCHDU: Convergence failed at  45  side 2    Res =  0.1670E-01
 MRCHDU: Convergence failed at  46  side 2    Res =  0.5576E-02
 MRCHDU: Convergence failed at  47  side 2    Res =  0.4450E-02
 MRCHDU: Convergence failed at  48  side 2    Res =  0.2536E-01
 MRCHDU: Convergence failed at  49  side 2    Res =  0.1571E-01
 MRCHDU: Convergence failed at  50  side 2    Res =  0.5250E-02
 MRCHDU: Convergence failed at  51  side 2    Res =  0.7718E-02
 MRCHDU: Convergence failed at  52  side 2    Res =  0.6712E+00
 Side 1  free  transition at x/c =  0.9310   69
 Side 2  free  transition at x/c =  0.0337   18

  21   rms: 0.1488E+03   max: -.2501E+04   C at   55  2   RLX: 0.000
       a = -4.000      CL = -1.0591
      Cm =  0.2415     CD =  0.03489   =>   CDf =  0.00228    CDp =  0.03262

 MRCHDU: Convergence failed at  20  side 2    Res =  0.3313E-01
 MRCHDU: Convergence failed at  21  side 2    Res =  0.5360E-01
 MRCHDU: Convergence failed at  22  side 2    Res =  0.2288E-01
 MRCHDU: Convergence failed at  23  side 2    Res =  0.1508E-01
 MRCHDU: Convergence failed at  24  side 2    Res =  0.1073E-01
 MRCHDU: Convergence failed at  25  side 2    Res =  0.8668E-02
 MRCHDU: Convergence failed at  26  side 2    Res =  0.7865E-02
 MRCHDU: Convergence failed at  27  side 2    Res =  0.7311E-02
 MRCHDU: Convergence failed at  28  side 2    Res =  0.6241E-02
 MRCHDU: Convergence failed at  29  side 2    Res =  0.5556E-02
 MRCHDU: Convergence failed at  30  side 2    Res =  0.5495E-02
 MRCHDU: Convergence failed at  31  side 2    Res =  0.5338E-02
 MRCHDU: Convergence failed at  32  side 2    Res =  0.4427E-02
 MRCHDU: Convergence failed at  33  side 2    Res =  0.4462E-02
 MRCHDU: Convergence failed at  34  side 2    Res =  0.3939E-02
 MRCHDU: Convergence failed at  35  side 2    Res =  0.2969E-02
 MRCHDU: Convergence failed at  36  side 2    Res =  0.2366E-02
 MRCHDU: Convergence failed at  37  side 2    Res =  0.1626E-02
 MRCHDU: Convergence failed at  38  side 2    Res =  0.1875E-02
 MRCHDU: Convergence failed at  39  side 2    Res =  0.2789E-02
 MRCHDU: Convergence failed at  40  side 2    Res =  0.2357E-02
 MRCHDU: Convergence failed at  41  side 2    Res =  0.2627E-02
 MRCHDU: Convergence failed at  42  side 2    Res =  0.3251E-02
 MRCHDU: Convergence failed at  43  side 2    Res =  0.3611E-02
 MRCHDU: Convergence failed at  44  side 2    Res =  0.4703E-02
 MRCHDU: Convergence failed at  45  side 2    Res =  0.1788E-01
 MRCHDU: Convergence failed at  46  side 2    Res =  0.5692E-02
 MRCHDU: Convergence failed at  47  side 2    Res =  0.4493E-02
 MRCHDU: Convergence failed at  48  side 2    Res =  0.2650E-01
 MRCHDU: Convergence failed at  49  side 2    Res =  0.1545E-01
 MRCHDU: Convergence failed at  50  side 2    Res =  0.5161E-02
 MRCHDU: Convergence failed at  51  side 2    Res =  0.7703E-02
 Side 1  free  transition at x/c =  0.9310   69
 Side 2  free  transition at x/c =  0.0337   18

  22   rms: 0.3862E+02   max: -.3347E+03   T at   66  2   RLX: 0.001
       a = -4.000      CL = -1.0573
      Cm =  0.2410     CD =  0.04454   =>   CDf =  0.00228    CDp =  0.04226

 MRCHDU: Convergence failed at  20  side 2    Res =  0.3253E-01
 MRCHDU: Convergence failed at  21  side 2    Res =  0.5399E-01
 MRCHDU: Convergence failed at  22  side 2    Res =  0.2296E-01
 MRCHDU: Convergence failed at  23  side 2    Res =  0.1514E-01
 MRCHDU: Convergence failed at  24  side 2    Res =  0.1076E-01
 MRCHDU: Convergence failed at  25  side 2    Res =  0.8700E-02
 MRCHDU: Convergence failed at  26  side 2    Res =  0.7853E-02
 MRCHDU: Convergence failed at  27  side 2    Res =  0.7228E-02
 MRCHDU: Convergence failed at  28  side 2    Res =  0.6204E-02
 MRCHDU: Convergence failed at  29  side 2    Res =  0.5629E-02
 MRCHDU: Convergence failed at  30  side 2    Res =  0.5679E-02
 MRCHDU: Convergence failed at  31  side 2    Res =  0.5412E-02
 MRCHDU: Convergence failed at  32  side 2    Res =  0.4417E-02
 MRCHDU: Convergence failed at  33  side 2    Res =  0.4494E-02
 MRCHDU: Convergence failed at  34  side 2    Res =  0.3841E-02
 MRCHDU: Convergence failed at  35  side 2    Res =  0.2867E-02
 MRCHDU: Convergence failed at  36  side 2    Res =  0.2386E-02
 MRCHDU: Convergence failed at  37  side 2    Res =  0.1769E-02
 MRCHDU: Convergence failed at  38  side 2    Res =  0.2041E-02
 MRCHDU: Convergence failed at  39  side 2    Res =  0.2858E-02
 MRCHDU: Convergence failed at  40  side 2    Res =  0.2431E-02
 MRCHDU: Convergence failed at  41  side 2    Res =  0.2564E-02
 MRCHDU: Convergence failed at  42  side 2    Res =  0.2940E-02
 MRCHDU: Convergence failed at  43  side 2    Res =  0.3515E-02
 MRCHDU: Convergence failed at  44  side 2    Res =  0.5149E-02
 MRCHDU: Convergence failed at  45  side 2    Res =  0.2232E-01
 MRCHDU: Convergence failed at  46  side 2    Res =  0.6220E-02
 MRCHDU: Convergence failed at  47  side 2    Res =  0.5089E-02
 MRCHDU: Convergence failed at  48  side 2    Res =  0.4044E-01
 MRCHDU: Convergence failed at  49  side 2    Res =  0.1925E-01
 MRCHDU: Convergence failed at  50  side 2    Res =  0.3132E-02
 MRCHDU: Convergence failed at  51  side 2    Res =  0.3380E-02
 MRCHDU: Convergence failed at  52  side 2    Res =  0.5771E-01
 MRCHDU: Convergence failed at  53  side 2    Res =  0.4133E-01
 MRCHDU: Convergence failed at  54  side 2    Res =  0.9166E-02
 MRCHDU: Convergence failed at  55  side 2    Res =  0.7160E-02
 MRCHDU: Convergence failed at  56  side 2    Res =  0.1913E+00
 MRCHDU: Convergence failed at  57  side 2    Res =  0.6904E-01
 MRCHDU: Convergence failed at  58  side 2    Res =  0.2965E-02
 MRCHDU: Convergence failed at  59  side 2    Res =  0.1631E-02
 MRCHDU: Convergence failed at  60  side 2    Res =  0.1659E-02
 MRCHDU: Convergence failed at  61  side 2    Res =  0.4675E-03
 MRCHDU: Convergence failed at  62  side 2    Res =  0.3555E-03
 MRCHDU: Convergence failed at  63  side 2    Res =  0.4335E-03
 MRCHDU: Convergence failed at  64  side 2    Res =  0.5464E-03
 MRCHDU: Convergence failed at  65  side 2    Res =  0.4891E-03
 MRCHDU: Convergence failed at  66  side 2    Res =  0.4376E-03
 MRCHDU: Convergence failed at  67  side 2    Res =  0.4357E-03
 MRCHDU: Convergence failed at  68  side 2    Res =  0.3814E-03
 MRCHDU: Convergence failed at  69  side 2    Res =  0.4507E-03
 MRCHDU: Convergence failed at  70  side 2    Res =  0.1289E-02
 Side 1  free  transition at x/c =  0.9317   69
 Side 2  free  transition at x/c =  0.0337   18

  23   rms: 0.5129E+02   max: 0.5219E+03   C at   56  2   RLX: 0.001
       a = -4.000      CL = -1.0553
      Cm =  0.2403     CD =  0.06966   =>   CDf =  0.00228    CDp =  0.06738

 MRCHDU: Convergence failed at  20  side 2    Res =  0.3218E-01
 MRCHDU: Convergence failed at  21  side 2    Res =  0.5413E-01
 MRCHDU: Convergence failed at  22  side 2    Res =  0.2308E-01
 MRCHDU: Convergence failed at  23  side 2    Res =  0.1534E-01
 MRCHDU: Convergence failed at  24  side 2    Res =  0.1096E-01
 MRCHDU: Convergence failed at  25  side 2    Res =  0.8741E-02
 MRCHDU: Convergence failed at  26  side 2    Res =  0.7753E-02
 MRCHDU: Convergence failed at  27  side 2    Res =  0.7222E-02
 MRCHDU: Convergence failed at  28  side 2    Res =  0.6408E-02
 MRCHDU: Convergence failed at  29  side 2    Res =  0.5950E-02
 MRCHDU: Convergence failed at  30  side 2    Res =  0.5840E-02
 MRCHDU: Convergence failed at  31  side 2    Res =  0.5305E-02
 MRCHDU: Convergence failed at  32  side 2    Res =  0.4238E-02
 MRCHDU: Convergence failed at  33  side 2    Res =  0.4238E-02
 MRCHDU: Convergence failed at  34  side 2    Res =  0.3508E-02
 MRCHDU: Convergence failed at  35  side 2    Res =  0.2670E-02
 MRCHDU: Convergence failed at  36  side 2    Res =  0.2350E-02
 MRCHDU: Convergence failed at  37  side 2    Res =  0.1955E-02
 MRCHDU: Convergence failed at  38  side 2    Res =  0.2363E-02
 MRCHDU: Convergence failed at  39  side 2    Res =  0.3069E-02
 MRCHDU: Convergence failed at  40  side 2    Res =  0.2562E-02
 MRCHDU: Convergence failed at  41  side 2    Res =  0.2726E-02
 MRCHDU: Convergence failed at  42  side 2    Res =  0.3195E-02
 MRCHDU: Convergence failed at  43  side 2    Res =  0.3784E-02
 MRCHDU: Convergence failed at  44  side 2    Res =  0.4964E-02
 MRCHDU: Convergence failed at  45  side 2    Res =  0.1577E-01
 MRCHDU: Convergence failed at  46  side 2    Res =  0.6385E-02
 MRCHDU: Convergence failed at  47  side 2    Res =  0.5513E-02
 MRCHDU: Convergence failed at  48  side 2    Res =  0.9179E-01
 MRCHDU: Convergence failed at  52  side 2    Res =  0.2212E-01
 MRCHDU: Convergence failed at  62  side 2    Res =  0.2877E-03
 MRCHDU: Convergence failed at  63  side 2    Res =  0.3988E-03
 MRCHDU: Convergence failed at  64  side 2    Res =  0.4740E-03
 MRCHDU: Convergence failed at  65  side 2    Res =  0.4752E-03
 MRCHDU: Convergence failed at  66  side 2    Res =  0.4104E-03
 MRCHDU: Convergence failed at  67  side 2    Res =  0.4404E-03
 MRCHDU: Convergence failed at  68  side 2    Res =  0.3906E-03
 MRCHDU: Convergence failed at  69  side 2    Res =  0.4679E-03
 MRCHDU: Convergence failed at  70  side 2    Res =  0.1398E-02
 Side 1  free  transition at x/c =  0.9322   69
 Side 2  free  transition at x/c =  0.0337   18

  24   rms: 0.1200E+03   max: -.1942E+04   C at   52  2   RLX: 0.000
       a = -4.000      CL = -1.0548
      Cm =  0.2401     CD =  0.06353   =>   CDf =  0.00228    CDp =  0.06125

 MRCHDU: Convergence failed at  20  side 2    Res =  0.3210E-01
 MRCHDU: Convergence failed at  21  side 2    Res =  0.5421E-01
 MRCHDU: Convergence failed at  22  side 2    Res =  0.2311E-01
 MRCHDU: Convergence failed at  23  side 2    Res =  0.1532E-01
 MRCHDU: Convergence failed at  24  side 2    Res =  0.1095E-01
 MRCHDU: Convergence failed at  25  side 2    Res =  0.8722E-02
 MRCHDU: Convergence failed at  26  side 2    Res =  0.7749E-02
 MRCHDU: Convergence failed at  27  side 2    Res =  0.7256E-02
 MRCHDU: Convergence failed at  28  side 2    Res =  0.6451E-02
 MRCHDU: Convergence failed at  29  side 2    Res =  0.5983E-02
 MRCHDU: Convergence failed at  30  side 2    Res =  0.5850E-02
 MRCHDU: Convergence failed at  31  side 2    Res =  0.5317E-02
 MRCHDU: Convergence failed at  32  side 2    Res =  0.4271E-02
 MRCHDU: Convergence failed at  33  side 2    Res =  0.4290E-02
 MRCHDU: Convergence failed at  34  side 2    Res =  0.3509E-02
 MRCHDU: Convergence failed at  35  side 2    Res =  0.2673E-02
 MRCHDU: Convergence failed at  36  side 2    Res =  0.2360E-02
 MRCHDU: Convergence failed at  37  side 2    Res =  0.1948E-02
 MRCHDU: Convergence failed at  38  side 2    Res =  0.2332E-02
 MRCHDU: Convergence failed at  39  side 2    Res =  0.3023E-02
 MRCHDU: Convergence failed at  40  side 2    Res =  0.2553E-02
 MRCHDU: Convergence failed at  41  side 2    Res =  0.2761E-02
 MRCHDU: Convergence failed at  42  side 2    Res =  0.3296E-02
 MRCHDU: Convergence failed at  43  side 2    Res =  0.3884E-02
 MRCHDU: Convergence failed at  44  side 2    Res =  0.5027E-02
 MRCHDU: Convergence failed at  45  side 2    Res =  0.1583E-01
 MRCHDU: Convergence failed at  46  side 2    Res =  0.5976E-02
 MRCHDU: Convergence failed at  47  side 2    Res =  0.5208E-02
 MRCHDU: Convergence failed at  48  side 2    Res =  0.2500E+00
 Side 1  free  transition at x/c =  0.9321   69
 Side 2  free  transition at x/c =  0.0337   18

  25   rms: 0.8368E+02   max: -.1223E+04   C at   51  2   RLX: 0.000
       a = -4.000      CL = -1.0556
      Cm =  0.2406     CD =  0.05046   =>   CDf =  0.00228    CDp =  0.04818

 MRCHDU: Convergence failed at  20  side 2    Res =  0.3188E-01
 MRCHDU: Convergence failed at  21  side 2    Res =  0.5444E-01
 MRCHDU: Convergence failed at  22  side 2    Res =  0.2310E-01
 MRCHDU: Convergence failed at  23  side 2    Res =  0.1527E-01
 MRCHDU: Convergence failed at  24  side 2    Res =  0.1092E-01
 MRCHDU: Convergence failed at  25  side 2    Res =  0.8700E-02
 MRCHDU: Convergence failed at  26  side 2    Res =  0.7749E-02
 MRCHDU: Convergence failed at  27  side 2    Res =  0.7261E-02
 MRCHDU: Convergence failed at  28  side 2    Res =  0.6411E-02
 MRCHDU: Convergence failed at  29  side 2    Res =  0.5974E-02
 MRCHDU: Convergence failed at  30  side 2    Res =  0.5883E-02
 MRCHDU: Convergence failed at  31  side 2    Res =  0.5330E-02
 MRCHDU: Convergence failed at  32  side 2    Res =  0.4295E-02
 MRCHDU: Convergence failed at  33  side 2    Res =  0.4342E-02
 MRCHDU: Convergence failed at  34  side 2    Res =  0.3536E-02
 MRCHDU: Convergence failed at  35  side 2    Res =  0.2705E-02
 MRCHDU: Convergence failed at  36  side 2    Res =  0.2371E-02
 MRCHDU: Convergence failed at  37  side 2    Res =  0.1958E-02
 MRCHDU: Convergence failed at  38  side 2    Res =  0.2387E-02
 MRCHDU: Convergence failed at  39  side 2    Res =  0.3166E-02
 MRCHDU: Convergence failed at  40  side 2    Res =  0.2670E-02
 MRCHDU: Convergence failed at  41  side 2    Res =  0.2853E-02
 MRCHDU: Convergence failed at  42  side 2    Res =  0.3338E-02
 MRCHDU: Convergence failed at  43  side 2    Res =  0.3954E-02
 MRCHDU: Convergence failed at  44  side 2    Res =  0.5124E-02
 MRCHDU: Convergence failed at  45  side 2    Res =  0.1615E-01
 MRCHDU: Convergence failed at  46  side 2    Res =  0.5933E-02
 MRCHDU: Convergence failed at  47  side 2    Res =  0.5141E-02
 MRCHDU: Convergence failed at  48  side 2    Res =  0.2613E+00
 MRCHDU: Convergence failed at  49  side 2    Res =  0.3463E+00
 MRCHDU: Convergence failed at  50  side 2    Res =  0.4680E-02
 MRCHDU: Convergence failed at  51  side 2    Res =  0.5169E-02
 Side 1  free  transition at x/c =  0.9324   69
 Side 2  free  transition at x/c =  0.0337   18

  26   rms: 0.5690E+02   max: 0.6940E+03   C at   49  2   RLX: 0.002
       a = -4.000      CL = -1.0534
      Cm =  0.2401     CD =  0.03534   =>   CDf =  0.00228    CDp =  0.03306

 MRCHDU: Convergence failed at  20  side 2    Res =  0.3165E-01
 MRCHDU: Convergence failed at  21  side 2    Res =  0.5478E-01
 MRCHDU: Convergence failed at  22  side 2    Res =  0.2304E-01
 MRCHDU: Convergence failed at  23  side 2    Res =  0.1520E-01
 MRCHDU: Convergence failed at  24  side 2    Res =  0.1088E-01
 MRCHDU: Convergence failed at  25  side 2    Res =  0.8635E-02
 MRCHDU: Convergence failed at  26  side 2    Res =  0.7901E-02
 MRCHDU: Convergence failed at  27  side 2    Res =  0.7375E-02
 MRCHDU: Convergence failed at  28  side 2    Res =  0.6372E-02
 MRCHDU: Convergence failed at  29  side 2    Res =  0.5960E-02
 MRCHDU: Convergence failed at  30  side 2    Res =  0.5830E-02
 MRCHDU: Convergence failed at  31  side 2    Res =  0.5148E-02
 MRCHDU: Convergence failed at  32  side 2    Res =  0.4221E-02
 MRCHDU: Convergence failed at  33  side 2    Res =  0.4334E-02
 MRCHDU: Convergence failed at  34  side 2    Res =  0.3735E-02
 MRCHDU: Convergence failed at  35  side 2    Res =  0.2984E-02
 MRCHDU: Convergence failed at  36  side 2    Res =  0.2594E-02
 MRCHDU: Convergence failed at  37  side 2    Res =  0.2048E-02
 MRCHDU: Convergence failed at  38  side 2    Res =  0.2441E-02
 MRCHDU: Convergence failed at  39  side 2    Res =  0.3255E-02
 MRCHDU: Convergence failed at  40  side 2    Res =  0.2947E-02
 MRCHDU: Convergence failed at  41  side 2    Res =  0.3483E-02
 MRCHDU: Convergence failed at  42  side 2    Res =  0.4013E-02
 MRCHDU: Convergence failed at  43  side 2    Res =  0.4191E-02
 MRCHDU: Convergence failed at  44  side 2    Res =  0.4776E-02
 MRCHDU: Convergence failed at  45  side 2    Res =  0.1100E-01
 MRCHDU: Convergence failed at  46  side 2    Res =  0.5716E-02
 MRCHDU: Convergence failed at  47  side 2    Res =  0.5140E-02
 MRCHDU: Convergence failed at  48  side 2    Res =  0.3081E+00
 MRCHDU: Convergence failed at  49  side 2    Res =  0.7896E-02
 MRCHDU: Convergence failed at  50  side 2    Res =  0.1209E-02
 MRCHDU: Convergence failed at  51  side 2    Res =  0.1549E-02
 MRCHDU: Convergence failed at  56  side 2    Res =  0.4786E-01
 Side 1  free  transition at x/c =  0.9326   69
 Side 2  free  transition at x/c =  0.0337   18

  27   rms: 0.1621E+03   max: 0.3036E+04   C at   56  2   RLX: 0.000
       a = -4.000      CL = -1.0522
      Cm =  0.2395     CD =  0.04185   =>   CDf =  0.00228    CDp =  0.03957

 MRCHDU: Convergence failed at  20  side 2    Res =  0.3145E-01
 MRCHDU: Convergence failed at  21  side 2    Res =  0.5496E-01
 MRCHDU: Convergence failed at  22  side 2    Res =  0.2307E-01
 MRCHDU: Convergence failed at  23  side 2    Res =  0.1517E-01
 MRCHDU: Convergence failed at  24  side 2    Res =  0.1084E-01
 MRCHDU: Convergence failed at  25  side 2    Res =  0.8620E-02
 MRCHDU: Convergence failed at  26  side 2    Res =  0.7931E-02
 MRCHDU: Convergence failed at  27  side 2    Res =  0.7424E-02
 MRCHDU: Convergence failed at  28  side 2    Res =  0.6396E-02
 MRCHDU: Convergence failed at  29  side 2    Res =  0.5965E-02
 MRCHDU: Convergence failed at  30  side 2    Res =  0.5856E-02
 MRCHDU: Convergence failed at  31  side 2    Res =  0.5195E-02
 MRCHDU: Convergence failed at  32  side 2    Res =  0.4245E-02
 MRCHDU: Convergence failed at  33  side 2    Res =  0.4338E-02
 MRCHDU: Convergence failed at  34  side 2    Res =  0.3701E-02
 MRCHDU: Convergence failed at  35  side 2    Res =  0.2927E-02
 MRCHDU: Convergence failed at  36  side 2    Res =  0.2535E-02
 MRCHDU: Convergence failed at  37  side 2    Res =  0.1973E-02
 MRCHDU: Convergence failed at  38  side 2    Res =  0.2360E-02
 MRCHDU: Convergence failed at  39  side 2    Res =  0.3306E-02
 MRCHDU: Convergence failed at  40  side 2    Res =  0.2994E-02
 MRCHDU: Convergence failed at  41  side 2    Res =  0.3584E-02
 MRCHDU: Convergence failed at  42  side 2    Res =  0.4204E-02
 MRCHDU: Convergence failed at  43  side 2    Res =  0.4342E-02
 MRCHDU: Convergence failed at  44  side 2    Res =  0.5030E-02
 MRCHDU: Convergence failed at  45  side 2    Res =  0.1224E-01
 MRCHDU: Convergence failed at  46  side 2    Res =  0.5600E-02
 MRCHDU: Convergence failed at  47  side 2    Res =  0.5029E-02
 MRCHDU: Convergence failed at  48  side 2    Res =  0.4666E-01
 MRCHDU: Convergence failed at  49  side 2    Res =  0.7626E-02
 MRCHDU: Convergence failed at  50  side 2    Res =  0.8913E-03
 MRCHDU: Convergence failed at  51  side 2    Res =  0.1156E-02
 MRCHDU: Convergence failed at  55  side 2    Res =  0.2974E+00
 Side 1  free  transition at x/c =  0.9333   69
 Side 2  free  transition at x/c =  0.0337   18

  28   rms: 0.2914E+02   max: 0.5669E+03   T at   50  2   RLX: 0.002
       a = -4.000      CL = -1.0492
      Cm =  0.2388     CD =  0.04476   =>   CDf =  0.00228    CDp =  0.04248

 MRCHDU: Convergence failed at  20  side 2    Res =  0.3240E-01
 MRCHDU: Convergence failed at  21  side 2    Res =  0.5392E-01
 MRCHDU: Convergence failed at  22  side 2    Res =  0.2305E-01
 MRCHDU: Convergence failed at  23  side 2    Res =  0.1528E-01
 MRCHDU: Convergence failed at  24  side 2    Res =  0.1092E-01
 MRCHDU: Convergence failed at  25  side 2    Res =  0.8596E-02
 MRCHDU: Convergence failed at  26  side 2    Res =  0.7978E-02
 MRCHDU: Convergence failed at  27  side 2    Res =  0.7399E-02
 MRCHDU: Convergence failed at  28  side 2    Res =  0.6304E-02
 MRCHDU: Convergence failed at  29  side 2    Res =  0.6147E-02
 MRCHDU: Convergence failed at  30  side 2    Res =  0.6233E-02
 MRCHDU: Convergence failed at  31  side 2    Res =  0.5590E-02
 MRCHDU: Convergence failed at  32  side 2    Res =  0.4607E-02
 MRCHDU: Convergence failed at  33  side 2    Res =  0.4523E-02
 MRCHDU: Convergence failed at  34  side 2    Res =  0.3883E-02
 MRCHDU: Convergence failed at  35  side 2    Res =  0.2853E-02
 MRCHDU: Convergence failed at  36  side 2    Res =  0.2450E-02
 MRCHDU: Convergence failed at  37  side 2    Res =  0.2118E-02
 MRCHDU: Convergence failed at  38  side 2    Res =  0.2592E-02
 MRCHDU: Convergence failed at  39  side 2    Res =  0.3798E-02
 MRCHDU: Convergence failed at  40  side 2    Res =  0.3393E-02
 MRCHDU: Convergence failed at  41  side 2    Res =  0.3546E-02
 MRCHDU: Convergence failed at  42  side 2    Res =  0.3876E-02
 MRCHDU: Convergence failed at  43  side 2    Res =  0.4538E-02
 MRCHDU: Convergence failed at  44  side 2    Res =  0.5008E-02
 MRCHDU: Convergence failed at  45  side 2    Res =  0.1164E-01
 MRCHDU: Convergence failed at  46  side 2    Res =  0.7377E-02
 MRCHDU: Convergence failed at  47  side 2    Res =  0.5627E-02
 MRCHDU: Convergence failed at  48  side 2    Res =  0.2377E-01
 MRCHDU: Convergence failed at  49  side 2    Res =  0.1724E-02
 MRCHDU: Convergence failed at  50  side 2    Res =  0.1411E-02
 MRCHDU: Convergence failed at  51  side 2    Res =  0.4018E-02
 Side 1  free  transition at x/c =  0.9313   69
 Side 2  free  transition at x/c =  0.0337   18

  29   rms: 0.2272E+02   max: -.2072E+03   C at   48  2   RLX: 0.002
       a = -4.000      CL = -1.0455
      Cm =  0.2376     CD =  0.03722   =>   CDf =  0.00228    CDp =  0.03494

 MRCHDU: Convergence failed at  20  side 2    Res =  0.3205E-01
 MRCHDU: Convergence failed at  21  side 2    Res =  0.5414E-01
 MRCHDU: Convergence failed at  22  side 2    Res =  0.2330E-01
 MRCHDU: Convergence failed at  23  side 2    Res =  0.1557E-01
 MRCHDU: Convergence failed at  24  side 2    Res =  0.1113E-01
 MRCHDU: Convergence failed at  25  side 2    Res =  0.8634E-02
 MRCHDU: Convergence failed at  26  side 2    Res =  0.7913E-02
 MRCHDU: Convergence failed at  27  side 2    Res =  0.7251E-02
 MRCHDU: Convergence failed at  28  side 2    Res =  0.6211E-02
 MRCHDU: Convergence failed at  29  side 2    Res =  0.6259E-02
 MRCHDU: Convergence failed at  30  side 2    Res =  0.6535E-02
 MRCHDU: Convergence failed at  31  side 2    Res =  0.5829E-02
 MRCHDU: Convergence failed at  32  side 2    Res =  0.4830E-02
 MRCHDU: Convergence failed at  33  side 2    Res =  0.4785E-02
 MRCHDU: Convergence failed at  34  side 2    Res =  0.4243E-02
 MRCHDU: Convergence failed at  35  side 2    Res =  0.2920E-02
 MRCHDU: Convergence failed at  36  side 2    Res =  0.2507E-02
 MRCHDU: Convergence failed at  37  side 2    Res =  0.2311E-02
 MRCHDU: Convergence failed at  38  side 2    Res =  0.2818E-02
 MRCHDU: Convergence failed at  39  side 2    Res =  0.4561E-02
 MRCHDU: Convergence failed at  40  side 2    Res =  0.4494E-02
 MRCHDU: Convergence failed at  41  side 2    Res =  0.4269E-02
 MRCHDU: Convergence failed at  42  side 2    Res =  0.4096E-02
 MRCHDU: Convergence failed at  43  side 2    Res =  0.3932E-02
 MRCHDU: Convergence failed at  44  side 2    Res =  0.3936E-02
 MRCHDU: Convergence failed at  45  side 2    Res =  0.7788E-02
 MRCHDU: Convergence failed at  46  side 2    Res =  0.4714E-02
 MRCHDU: Convergence failed at  47  side 2    Res =  0.3848E-02
 MRCHDU: Convergence failed at  48  side 2    Res =  0.6803E-02
 MRCHDU: Convergence failed at  49  side 2    Res =  0.6730E-03
 MRCHDU: Convergence failed at  50  side 2    Res =  0.7800E-03
 MRCHDU: Convergence failed at  51  side 2    Res =  0.3504E-02
 MRCHDU: Convergence failed at  55  side 2    Res =  0.4135E+00
 Side 1  free  transition at x/c =  0.9313   69
 Side 2  free  transition at x/c =  0.0337   18

  30   rms: 0.2320E+02   max: -.5024E+03   T at   49  2   RLX: 0.001
       a = -4.000      CL = -1.0443
      Cm =  0.2372     CD =  0.03943   =>   CDf =  0.00228    CDp =  0.03714

 MRCHDU: Convergence failed at  20  side 2    Res =  0.3175E-01
 MRCHDU: Convergence failed at  21  side 2    Res =  0.5440E-01
 MRCHDU: Convergence failed at  22  side 2    Res =  0.2333E-01
 MRCHDU: Convergence failed at  23  side 2    Res =  0.1556E-01
 MRCHDU: Convergence failed at  24  side 2    Res =  0.1112E-01
 MRCHDU: Convergence failed at  25  side 2    Res =  0.8619E-02
 MRCHDU: Convergence failed at  26  side 2    Res =  0.7910E-02
 MRCHDU: Convergence failed at  27  side 2    Res =  0.7254E-02
 MRCHDU: Convergence failed at  28  side 2    Res =  0.6185E-02
 MRCHDU: Convergence failed at  29  side 2    Res =  0.6307E-02
 MRCHDU: Convergence failed at  30  side 2    Res =  0.6581E-02
 MRCHDU: Convergence failed at  31  side 2    Res =  0.5758E-02
 MRCHDU: Convergence failed at  32  side 2    Res =  0.4765E-02
 MRCHDU: Convergence failed at  33  side 2    Res =  0.4690E-02
 MRCHDU: Convergence failed at  34  side 2    Res =  0.4227E-02
 MRCHDU: Convergence failed at  35  side 2    Res =  0.2989E-02
 MRCHDU: Convergence failed at  36  side 2    Res =  0.2647E-02
 MRCHDU: Convergence failed at  37  side 2    Res =  0.2425E-02
 MRCHDU: Convergence failed at  38  side 2    Res =  0.2873E-02
 MRCHDU: Convergence failed at  39  side 2    Res =  0.4731E-02
 MRCHDU: Convergence failed at  40  side 2    Res =  0.4805E-02
 MRCHDU: Convergence failed at  41  side 2    Res =  0.4607E-02
 MRCHDU: Convergence failed at  42  side 2    Res =  0.4460E-02
 MRCHDU: Convergence failed at  43  side 2    Res =  0.4398E-02
 MRCHDU: Convergence failed at  44  side 2    Res =  0.4200E-02
 MRCHDU: Convergence failed at  45  side 2    Res =  0.8245E-02
 MRCHDU: Convergence failed at  46  side 2    Res =  0.4852E-02
 MRCHDU: Convergence failed at  47  side 2    Res =  0.3923E-02
 MRCHDU: Convergence failed at  48  side 2    Res =  0.7443E-02
 MRCHDU: Convergence failed at  49  side 2    Res =  0.2612E-03
 MRCHDU: Convergence failed at  50  side 2    Res =  0.4077E-03
 MRCHDU: Convergence failed at  51  side 2    Res =  0.2358E-02
 Side 1  free  transition at x/c =  0.9315   69
 Side 2  free  transition at x/c =  0.0337   18

  31   rms: 0.2142E+02   max: -.2150E+03   T at   49  2   RLX: 0.002
       a = -4.000      CL = -1.0419
      Cm =  0.2366     CD =  0.04806   =>   CDf =  0.00228    CDp =  0.04578

 MRCHDU: Convergence failed at  20  side 2    Res =  0.3124E-01
 MRCHDU: Convergence failed at  21  side 2    Res =  0.5464E-01
 MRCHDU: Convergence failed at  22  side 2    Res =  0.2349E-01
 MRCHDU: Convergence failed at  23  side 2    Res =  0.1558E-01
 MRCHDU: Convergence failed at  24  side 2    Res =  0.1107E-01
 MRCHDU: Convergence failed at  25  side 2    Res =  0.8554E-02
 MRCHDU: Convergence failed at  26  side 2    Res =  0.7805E-02
 MRCHDU: Convergence failed at  27  side 2    Res =  0.7322E-02
 MRCHDU: Convergence failed at  28  side 2    Res =  0.6275E-02
 MRCHDU: Convergence failed at  29  side 2    Res =  0.6277E-02
 MRCHDU: Convergence failed at  30  side 2    Res =  0.6191E-02
 MRCHDU: Convergence failed at  31  side 2    Res =  0.5266E-02
 MRCHDU: Convergence failed at  32  side 2    Res =  0.4466E-02
 MRCHDU: Convergence failed at  33  side 2    Res =  0.4385E-02
 MRCHDU: Convergence failed at  34  side 2    Res =  0.3773E-02
 MRCHDU: Convergence failed at  35  side 2    Res =  0.2913E-02
 MRCHDU: Convergence failed at  36  side 2    Res =  0.2870E-02
 MRCHDU: Convergence failed at  37  side 2    Res =  0.2464E-02
 MRCHDU: Convergence failed at  38  side 2    Res =  0.2763E-02
 MRCHDU: Convergence failed at  39  side 2    Res =  0.5260E-02
 MRCHDU: Convergence failed at  40  side 2    Res =  0.5599E-02
 MRCHDU: Convergence failed at  41  side 2    Res =  0.5030E-02
 MRCHDU: Convergence failed at  42  side 2    Res =  0.4156E-02
 MRCHDU: Convergence failed at  43  side 2    Res =  0.3628E-02
 MRCHDU: Convergence failed at  44  side 2    Res =  0.3426E-02
 MRCHDU: Convergence failed at  45  side 2    Res =  0.6043E-02
 MRCHDU: Convergence failed at  46  side 2    Res =  0.2725E-02
 MRCHDU: Convergence failed at  47  side 2    Res =  0.2371E-02
 MRCHDU: Convergence failed at  48  side 2    Res =  0.3221E-02
 MRCHDU: Convergence failed at  49  side 2    Res =  0.1158E-03
 MRCHDU: Convergence failed at  50  side 2    Res =  0.2118E-03
 MRCHDU: Convergence failed at  51  side 2    Res =  0.2582E-02
 MRCHDU: Convergence failed at  54  side 2    Res =  0.3393E-01
 MRCHDU: Convergence failed at  55  side 2    Res =  0.1240E-01
 MRCHDU: Convergence failed at  69  side 2    Res =  0.1479E-02
 Side 1  free  transition at x/c =  0.9322   69
 Side 2  free  transition at x/c =  0.0337   18

  32   rms: 0.9526E+02   max: 0.2005E+04   T at   49  2   RLX: 0.001
       a = -4.000      CL = -1.0396
      Cm =  0.2356     CD =  0.05233   =>   CDf =  0.00228    CDp =  0.05005

 MRCHDU: Convergence failed at  20  side 2    Res =  0.3113E-01
 MRCHDU: Convergence failed at  21  side 2    Res =  0.5472E-01
[...]
 MRCHDU: Convergence failed at  31  side 2    Res =  0.9873E-05
 MRCHDU: Convergence failed at  36  side 2    Res =  0.5728E-05
 MRCHDU: Convergence failed at  46  side 2    Res =  0.2309E+00
 Side 1  free  transition at x/c =  0.9319   70
 Side 2  free  transition at x/c =  0.0337   17

  33   rms: 0.4190E+09   max: 0.1472E+10   C at   46  2   RLX: 0.000
       a = 10.500      CL = -0.9848
      Cm =  0.2269     CD = 82.87675   =>   CDf =  0.00223    CDp = 82.87453

 MRCHDU: Convergence failed at  19  side 2    Res =  0.2847E-01
 MRCHDU: Convergence failed at  20  side 2    Res =  0.5302E-01
 MRCHDU: Convergence failed at  21  side 2    Res =  0.2367E-01
 MRCHDU: Convergence failed at  22  side 2    Res =  0.1796E-01
 MRCHDU: Convergence failed at  23  side 2    Res =  0.1418E-01
 MRCHDU: Convergence failed at  24  side 2    Res =  0.1518E-01
 MRCHDU: Convergence failed at  25  side 2    Res =  0.1405E-01
 MRCHDU: Convergence failed at  26  side 2    Res =  0.1362E-01
 MRCHDU: Convergence failed at  27  side 2    Res =  0.4842E-02
 MRCHDU: Convergence failed at  28  side 2    Res =  0.2232E-02
 MRCHDU: Convergence failed at  29  side 2    Res =  0.1284E-03
 MRCHDU: Convergence failed at  30  side 2    Res =  0.3264E-04
 MRCHDU: Convergence failed at  31  side 2    Res =  0.9845E-05
 MRCHDU: Convergence failed at  36  side 2    Res =  0.5721E-05
 MRCHDU: Convergence failed at  46  side 2    Res =  0.2311E+00
 Side 1  free  transition at x/c =  0.9319   70
 Side 2  free  transition at x/c =  0.0337   17

  34   rms: 0.7860E+09   max: -.2682E+10   C at   50  2   RLX: 0.000
       a = 10.500      CL = -0.9848
      Cm =  0.2269     CD = 83.17152   =>   CDf =  0.00223    CDp = 83.16930

 MRCHDU: Convergence failed at  19  side 2    Res =  0.2847E-01
 MRCHDU: Convergence failed at  20  side 2    Res =  0.5302E-01
 MRCHDU: Convergence failed at  21  side 2    Res =  0.2367E-01
 MRCHDU: Convergence failed at  22  side 2    Res =  0.1795E-01
 MRCHDU: Convergence failed at  23  side 2    Res =  0.1418E-01
 MRCHDU: Convergence failed at  24  side 2    Res =  0.1517E-01
 MRCHDU: Convergence failed at  25  side 2    Res =  0.1404E-01
 MRCHDU: Convergence failed at  26  side 2    Res =  0.1361E-01
 MRCHDU: Convergence failed at  27  side 2    Res =  0.4832E-02
 MRCHDU: Convergence failed at  28  side 2    Res =  0.2226E-02
 MRCHDU: Convergence failed at  29  side 2    Res =  0.1283E-03
 MRCHDU: Convergence failed at  30  side 2    Res =  0.3260E-04
 MRCHDU: Convergence failed at  31  side 2    Res =  0.9832E-05
 MRCHDU: Convergence failed at  36  side 2    Res =  0.5718E-05
 MRCHDU: Convergence failed at  46  side 2    Res =  0.6962E+00
 Side 1  free  transition at x/c =  0.9319   70
 Side 2  free  transition at x/c =  0.0337   17

  35   rms: 0.5533E+09   max: 0.1931E+10   C at   46  2   RLX: 0.000
       a = 10.500      CL = -0.9848
      Cm =  0.2269     CD = 83.00016   =>   CDf =  0.00223    CDp = 82.99793

 MRCHDU: Convergence failed at  19  side 2    Res =  0.2847E-01
 MRCHDU: Convergence failed at  20  side 2    Res =  0.5302E-01
 MRCHDU: Convergence failed at  21  side 2    Res =  0.2367E-01
 MRCHDU: Convergence failed at  22  side 2    Res =  0.1796E-01
 MRCHDU: Convergence failed at  23  side 2    Res =  0.1418E-01
 MRCHDU: Convergence failed at  24  side 2    Res =  0.1518E-01
 MRCHDU: Convergence failed at  25  side 2    Res =  0.1405E-01
 MRCHDU: Convergence failed at  26  side 2    Res =  0.1362E-01
 MRCHDU: Convergence failed at  27  side 2    Res =  0.4840E-02
 MRCHDU: Convergence failed at  28  side 2    Res =  0.2231E-02
 MRCHDU: Convergence failed at  29  side 2    Res =  0.1284E-03
 MRCHDU: Convergence failed at  30  side 2    Res =  0.3263E-04
 MRCHDU: Convergence failed at  31  side 2    Res =  0.9842E-05
 MRCHDU: Convergence failed at  36  side 2    Res =  0.5721E-05
 MRCHDU: Convergence failed at  46  side 2    Res =  0.1908E+01
 Side 1  free  transition at x/c =  0.9319   70
 Side 2  free  transition at x/c =  0.0337   17

  36   rms: 0.1036E+10   max: 0.3558E+10   C at   46  2   RLX: 0.000
       a = 10.500      CL = -0.9848
      Cm =  0.2269     CD = 82.97784   =>   CDf =  0.00223    CDp = 82.97562

 MRCHDU: Convergence failed at  19  side 2    Res =  0.2847E-01
 MRCHDU: Convergence failed at  20  side 2    Res =  0.5302E-01
 MRCHDU: Convergence failed at  21  side 2    Res =  0.2367E-01
 MRCHDU: Convergence failed at  22  side 2    Res =  0.1796E-01
 MRCHDU: Convergence failed at  23  side 2    Res =  0.1418E-01
 MRCHDU: Convergence failed at  24  side 2    Res =  0.1518E-01
 MRCHDU: Convergence failed at  25  side 2    Res =  0.1404E-01
 MRCHDU: Convergence failed at  26  side 2    Res =  0.1362E-01
 MRCHDU: Convergence failed at  27  side 2    Res =  0.4838E-02
 MRCHDU: Convergence failed at  28  side 2    Res =  0.2230E-02
 MRCHDU: Convergence failed at  29  side 2    Res =  0.1283E-03
 MRCHDU: Convergence failed at  30  side 2    Res =  0.3262E-04
 MRCHDU: Convergence failed at  31  side 2    Res =  0.9839E-05
 MRCHDU: Convergence failed at  36  side 2    Res =  0.5721E-05
 MRCHDU: Convergence failed at  46  side 2    Res =  0.6226E+00
 Side 1  free  transition at x/c =  0.9319   70
 Side 2  free  transition at x/c =  0.0337   17

  37   rms: 0.4932E+09   max: -.1687E+10   C at   50  2   RLX: 0.000
       a = 10.500      CL = -0.9848
      Cm =  0.2269     CD = 82.99050   =>   CDf =  0.00223    CDp = 82.98827

 MRCHDU: Convergence failed at  19  side 2    Res =  0.2847E-01
 MRCHDU: Convergence failed at  20  side 2    Res =  0.5302E-01
 MRCHDU: Convergence failed at  21  side 2    Res =  0.2367E-01
 MRCHDU: Convergence failed at  22  side 2    Res =  0.1796E-01
 MRCHDU: Convergence failed at  23  side 2    Res =  0.1418E-01
 MRCHDU: Convergence failed at  24  side 2    Res =  0.1518E-01
 MRCHDU: Convergence failed at  25  side 2    Res =  0.1404E-01
 MRCHDU: Convergence failed at  26  side 2    Res =  0.1361E-01
 MRCHDU: Convergence failed at  27  side 2    Res =  0.4834E-02
 MRCHDU: Convergence failed at  28  side 2    Res =  0.2228E-02
 MRCHDU: Convergence failed at  29  side 2    Res =  0.1283E-03
 MRCHDU: Convergence failed at  30  side 2    Res =  0.3261E-04
 MRCHDU: Convergence failed at  31  side 2    Res =  0.9835E-05
 MRCHDU: Convergence failed at  36  side 2    Res =  0.5719E-05
 MRCHDU: Convergence failed at  46  side 2    Res =  0.3805E+00
 Side 1  free  transition at x/c =  0.9319   70
 Side 2  free  transition at x/c =  0.0337   17

  38   rms: 0.3121E+09   max: -.1289E+10   T at   62  2   RLX: 0.000
       a = 10.500      CL = -0.9848
      Cm =  0.2269     CD = 82.54624   =>   CDf =  0.00223    CDp = 82.54401

 MRCHDU: Convergence failed at  19  side 2    Res =  0.2847E-01
 MRCHDU: Convergence failed at  20  side 2    Res =  0.5302E-01
 MRCHDU: Convergence failed at  21  side 2    Res =  0.2367E-01
 MRCHDU: Convergence failed at  22  side 2    Res =  0.1795E-01
 MRCHDU: Convergence failed at  23  side 2    Res =  0.1418E-01
 MRCHDU: Convergence failed at  24  side 2    Res =  0.1517E-01
 MRCHDU: Convergence failed at  25  side 2    Res =  0.1404E-01
 MRCHDU: Convergence failed at  26  side 2    Res =  0.1360E-01
 MRCHDU: Convergence failed at  27  side 2    Res =  0.4827E-02
 MRCHDU: Convergence failed at  28  side 2    Res =  0.2224E-02
 MRCHDU: Convergence failed at  29  side 2    Res =  0.1282E-03
 MRCHDU: Convergence failed at  30  side 2    Res =  0.3258E-04
 MRCHDU: Convergence failed at  31  side 2    Res =  0.9824E-05
 MRCHDU: Convergence failed at  36  side 2    Res =  0.5718E-05
 MRCHDU: Convergence failed at  46  side 2    Res =  0.7411E+00
 Side 1  free  transition at x/c =  0.9319   70
 Side 2  free  transition at x/c =  0.0337   17

  39   rms: 0.3648E+09   max: 0.1665E+10   T at   62  2   RLX: 0.000
       a = 10.500      CL = -0.9848
      Cm =  0.2269     CD = 82.06464   =>   CDf =  0.00223    CDp = 82.06242

 MRCHDU: Convergence failed at  19  side 2    Res =  0.2847E-01
 MRCHDU: Convergence failed at  20  side 2    Res =  0.5302E-01
 MRCHDU: Convergence failed at  21  side 2    Res =  0.2367E-01
 MRCHDU: Convergence failed at  22  side 2    Res =  0.1795E-01
 MRCHDU: Convergence failed at  23  side 2    Res =  0.1418E-01
 MRCHDU: Convergence failed at  24  side 2    Res =  0.1517E-01
 MRCHDU: Convergence failed at  25  side 2    Res =  0.1402E-01
 MRCHDU: Convergence failed at  26  side 2    Res =  0.1358E-01
 MRCHDU: Convergence failed at  27  side 2    Res =  0.4806E-02
 MRCHDU: Convergence failed at  28  side 2    Res =  0.2213E-02
 MRCHDU: Convergence failed at  29  side 2    Res =  0.1280E-03
 MRCHDU: Convergence failed at  30  side 2    Res =  0.3249E-04
 MRCHDU: Convergence failed at  31  side 2    Res =  0.9796E-05
 MRCHDU: Convergence failed at  36  side 2    Res =  0.5713E-05
 MRCHDU: Convergence failed at  46  side 2    Res =  0.2305E+00
 Side 1  free  transition at x/c =  0.9319   70
 Side 2  free  transition at x/c =  0.0337   17

  40   rms: 0.2772E+10   max: 0.9480E+10   C at   46  2   RLX: 0.000
       a = 10.500      CL = -0.9848
      Cm =  0.2269     CD = 82.39763   =>   CDf =  0.00223    CDp = 82.39540

 MRCHDU: Convergence failed at  19  side 2    Res =  0.2847E-01
 MRCHDU: Convergence failed at  20  side 2    Res =  0.5302E-01
 MRCHDU: Convergence failed at  21  side 2    Res =  0.2367E-01
 MRCHDU: Convergence failed at  22  side 2    Res =  0.1795E-01
 MRCHDU: Convergence failed at  23  side 2    Res =  0.1418E-01
 MRCHDU: Convergence failed at  24  side 2    Res =  0.1517E-01
 MRCHDU: Convergence failed at  25  side 2    Res =  0.1402E-01
 MRCHDU: Convergence failed at  26  side 2    Res =  0.1358E-01
 MRCHDU: Convergence failed at  27  side 2    Res =  0.4805E-02
 MRCHDU: Convergence failed at  28  side 2    Res =  0.2213E-02
 MRCHDU: Convergence failed at  29  side 2    Res =  0.1280E-03
 MRCHDU: Convergence failed at  30  side 2    Res =  0.3248E-04
 MRCHDU: Convergence failed at  31  side 2    Res =  0.9796E-05
 MRCHDU: Convergence failed at  36  side 2    Res =  0.5713E-05
 MRCHDU: Convergence failed at  46  side 2    Res =  0.1416E+01
 Side 1  free  transition at x/c =  0.9319   70
 Side 2  free  transition at x/c =  0.0337   17

  41   rms: 0.1832E+09   max: 0.6839E+09   C at   50  2   RLX: 0.000
       a = 10.500      CL = -0.9848
      Cm =  0.2269     CD = 82.29122   =>   CDf =  0.00223    CDp = 82.28899

 MRCHDU: Convergence failed at  19  side 2    Res =  0.2847E-01
 MRCHDU: Convergence failed at  20  side 2    Res =  0.5302E-01
 MRCHDU: Convergence failed at  21  side 2    Res =  0.2367E-01
 MRCHDU: Convergence failed at  22  side 2    Res =  0.1795E-01
 MRCHDU: Convergence failed at  23  side 2    Res =  0.1418E-01
 MRCHDU: Convergence failed at  24  side 2    Res =  0.1517E-01
 MRCHDU: Convergence failed at  25  side 2    Res =  0.1403E-01
 MRCHDU: Convergence failed at  26  side 2    Res =  0.1360E-01
 MRCHDU: Convergence failed at  27  side 2    Res =  0.4823E-02
 MRCHDU: Convergence failed at  28  side 2    Res =  0.2222E-02
 MRCHDU: Convergence failed at  29  side 2    Res =  0.1282E-03
 MRCHDU: Convergence failed at  30  side 2    Res =  0.3256E-04
 MRCHDU: Convergence failed at  31  side 2    Res =  0.9818E-05
 MRCHDU: Convergence failed at  36  side 2    Res =  0.5721E-05
 MRCHDU: Convergence failed at  46  side 2    Res =  0.1144E+01
 Side 1  free  transition at x/c =  0.9319   70
 Side 2  free  transition at x/c =  0.0337   17

  42   rms: 0.6351E+09   max: 0.2170E+10   C at   46  2   RLX: 0.000
       a = 10.500      CL = -0.9848
      Cm =  0.2269     CD = 81.46072   =>   CDf =  0.00223    CDp = 81.45849

 MRCHDU: Convergence failed at  19  side 2    Res =  0.2847E-01
 MRCHDU: Convergence failed at  20  side 2    Res =  0.5302E-01
 MRCHDU: Convergence failed at  21  side 2    Res =  0.2367E-01
 MRCHDU: Convergence failed at  22  side 2    Res =  0.1795E-01
 MRCHDU: Convergence failed at  23  side 2    Res =  0.1418E-01
 MRCHDU: Convergence failed at  24  side 2    Res =  0.1517E-01
 MRCHDU: Convergence failed at  25  side 2    Res =  0.1403E-01
 MRCHDU: Convergence failed at  26  side 2    Res =  0.1359E-01
 MRCHDU: Convergence failed at  27  side 2    Res =  0.4818E-02
 MRCHDU: Convergence failed at  28  side 2    Res =  0.2219E-02
 MRCHDU: Convergence failed at  29  side 2    Res =  0.1281E-03
 MRCHDU: Convergence failed at  30  side 2    Res =  0.3253E-04
 MRCHDU: Convergence failed at  31  side 2    Res =  0.9812E-05
 MRCHDU: Convergence failed at  36  side 2    Res =  0.5720E-05
 MRCHDU: Convergence failed at  46  side 2    Res =  0.5422E+00
 Side 1  free  transition at x/c =  0.9319   70
 Side 2  free  transition at x/c =  0.0337   17

  43   rms: 0.3404E+09   max: 0.1225E+10   T at   62  2   RLX: 0.000
       a = 10.500      CL = -0.9848
      Cm =  0.2269     CD = 81.65170   =>   CDf =  0.00223    CDp = 81.64948

 MRCHDU: Convergence failed at  19  side 2    Res =  0.2847E-01
 MRCHDU: Convergence failed at  20  side 2    Res =  0.5302E-01
 MRCHDU: Convergence failed at  21  side 2    Res =  0.2367E-01
 MRCHDU: Convergence failed at  22  side 2    Res =  0.1796E-01
 MRCHDU: Convergence failed at  23  side 2    Res =  0.1418E-01
 MRCHDU: Convergence failed at  24  side 2    Res =  0.1518E-01
 MRCHDU: Convergence failed at  25  side 2    Res =  0.1406E-01
 MRCHDU: Convergence failed at  26  side 2    Res =  0.1364E-01
 MRCHDU: Convergence failed at  27  side 2    Res =  0.4855E-02
 MRCHDU: Convergence failed at  28  side 2    Res =  0.2238E-02
 MRCHDU: Convergence failed at  29  side 2    Res =  0.1285E-03
 MRCHDU: Convergence failed at  30  side 2    Res =  0.3269E-04
 MRCHDU: Convergence failed at  31  side 2    Res =  0.9860E-05
 MRCHDU: Convergence failed at  36  side 2    Res =  0.5733E-05
 MRCHDU: Convergence failed at  46  side 2    Res =  0.3666E+00
 Side 1  free  transition at x/c =  0.9319   70
 Side 2  free  transition at x/c =  0.0337   17

  44   rms: 0.7121E+09   max: 0.2652E+10   T at   62  2   RLX: 0.000
       a = 10.500      CL = -0.9848
      Cm =  0.2269     CD = 81.53557   =>   CDf =  0.00223    CDp = 81.53334

 MRCHDU: Convergence failed at  19  side 2    Res =  0.2847E-01
 MRCHDU: Convergence failed at  20  side 2    Res =  0.5302E-01
 MRCHDU: Convergence failed at  21  side 2    Res =  0.2367E-01
 MRCHDU: Convergence failed at  22  side 2    Res =  0.1796E-01
 MRCHDU: Convergence failed at  23  side 2    Res =  0.1418E-01
 MRCHDU: Convergence failed at  24  side 2    Res =  0.1518E-01
 MRCHDU: Convergence failed at  25  side 2    Res =  0.1406E-01
 MRCHDU: Convergence failed at  26  side 2    Res =  0.1364E-01
 MRCHDU: Convergence failed at  27  side 2    Res =  0.4856E-02
 MRCHDU: Convergence failed at  28  side 2    Res =  0.2239E-02
 MRCHDU: Convergence failed at  29  side 2    Res =  0.1286E-03
 MRCHDU: Convergence failed at  30  side 2    Res =  0.3270E-04
 MRCHDU: Convergence failed at  31  side 2    Res =  0.9862E-05
 MRCHDU: Convergence failed at  36  side 2    Res =  0.5734E-05
 MRCHDU: Convergence failed at  46  side 2    Res =  0.2616E+00
 Side 1  free  transition at x/c =  0.9319   70
 Side 2  free  transition at x/c =  0.0337   17

  45   rms: 0.6756E+09   max: 0.2313E+10   C at   46  2   RLX: 0.000
       a = 10.500      CL = -0.9848
      Cm =  0.2269     CD = 81.64247   =>   CDf =  0.00223    CDp = 81.64024

 MRCHDU: Convergence failed at  19  side 2    Res =  0.2847E-01
 MRCHDU: Convergence failed at  20  side 2    Res =  0.5302E-01
 MRCHDU: Convergence failed at  21  side 2    Res =  0.2367E-01
 MRCHDU: Convergence failed at  22  side 2    Res =  0.1796E-01
 MRCHDU: Convergence failed at  23  side 2    Res =  0.1418E-01
 MRCHDU: Convergence failed at  24  side 2    Res =  0.1518E-01
 MRCHDU: Convergence failed at  25  side 2    Res =  0.1407E-01
 MRCHDU: Convergence failed at  26  side 2    Res =  0.1365E-01
 MRCHDU: Convergence failed at  27  side 2    Res =  0.4867E-02
 MRCHDU: Convergence failed at  28  side 2    Res =  0.2245E-02
 MRCHDU: Convergence failed at  29  side 2    Res =  0.1287E-03
 MRCHDU: Convergence failed at  30  side 2    Res =  0.3274E-04
 MRCHDU: Convergence failed at  31  side 2    Res =  0.9876E-05
 MRCHDU: Convergence failed at  36  side 2    Res =  0.5738E-05
 MRCHDU: Convergence failed at  46  side 2    Res =  0.2282E+00
 Side 1  free  transition at x/c =  0.9319   70
 Side 2  free  transition at x/c =  0.0337   17

  46   rms: 0.1388E+10   max: 0.4900E+10   T at   62  2   RLX: 0.000
       a = 10.500      CL = -0.9848
      Cm =  0.2269     CD = 81.77940   =>   CDf =  0.00223    CDp = 81.77717

 MRCHDU: Convergence failed at  19  side 2    Res =  0.2847E-01
 MRCHDU: Convergence failed at  20  side 2    Res =  0.5302E-01
 MRCHDU: Convergence failed at  21  side 2    Res =  0.2367E-01
 MRCHDU: Convergence failed at  22  side 2    Res =  0.1796E-01
 MRCHDU: Convergence failed at  23  side 2    Res =  0.1418E-01
 MRCHDU: Convergence failed at  24  side 2    Res =  0.1519E-01
 MRCHDU: Convergence failed at  25  side 2    Res =  0.1407E-01
 MRCHDU: Convergence failed at  26  side 2    Res =  0.1366E-01
 MRCHDU: Convergence failed at  27  side 2    Res =  0.4873E-02
 MRCHDU: Convergence failed at  28  side 2    Res =  0.2248E-02
 MRCHDU: Convergence failed at  29  side 2    Res =  0.1288E-03
 MRCHDU: Convergence failed at  30  side 2    Res =  0.3277E-04
 MRCHDU: Convergence failed at  31  side 2    Res =  0.9885E-05
 MRCHDU: Convergence failed at  36  side 2    Res =  0.5740E-05
 MRCHDU: Convergence failed at  46  side 2    Res =  0.1858E+00
 Side 1  free  transition at x/c =  0.9319   70
 Side 2  free  transition at x/c =  0.0337   17

  47   rms: 0.9880E+10   max: 0.3586E+11   T at   62  2   RLX: 0.000
       a = 10.500      CL = -0.9848
      Cm =  0.2269     CD = 81.68729   =>   CDf =  0.00223    CDp = 81.68507

 MRCHDU: Convergence failed at  19  side 2    Res =  0.2847E-01
 MRCHDU: Convergence failed at  20  side 2    Res =  0.5302E-01
 MRCHDU: Convergence failed at  21  side 2    Res =  0.2367E-01
 MRCHDU: Convergence failed at  22  side 2    Res =  0.1796E-01
 MRCHDU: Convergence failed at  23  side 2    Res =  0.1418E-01
 MRCHDU: Convergence failed at  24  side 2    Res =  0.1519E-01
 MRCHDU: Convergence failed at  25  side 2    Res =  0.1407E-01
 MRCHDU: Convergence failed at  26  side 2    Res =  0.1366E-01
 MRCHDU: Convergence failed at  27  side 2    Res =  0.4873E-02
 MRCHDU: Convergence failed at  28  side 2    Res =  0.2248E-02
 MRCHDU: Convergence failed at  29  side 2    Res =  0.1288E-03
 MRCHDU: Convergence failed at  30  side 2    Res =  0.3277E-04
 MRCHDU: Convergence failed at  31  side 2    Res =  0.9885E-05
 MRCHDU: Convergence failed at  36  side 2    Res =  0.5740E-05
 MRCHDU: Convergence failed at  46  side 2    Res =  0.1696E+00
 Side 1  free  transition at x/c =  0.9319   70
 Side 2  free  transition at x/c =  0.0337   17

  48   rms: 0.1039E+10   max: 0.3586E+10   C at   46  2   RLX: 0.000
       a = 10.500      CL = -0.9848
      Cm =  0.2269     CD = 81.70419   =>   CDf =  0.00223    CDp = 81.70196

 MRCHDU: Convergence failed at  19  side 2    Res =  0.2847E-01
 MRCHDU: Convergence failed at  20  side 2    Res =  0.5302E-01
 MRCHDU: Convergence failed at  21  side 2    Res =  0.2367E-01
 MRCHDU: Convergence failed at  22  side 2    Res =  0.1796E-01
 MRCHDU: Convergence failed at  23  side 2    Res =  0.1418E-01
 MRCHDU: Convergence failed at  24  side 2    Res =  0.1518E-01
 MRCHDU: Convergence failed at  25  side 2    Res =  0.1407E-01
 MRCHDU: Convergence failed at  26  side 2    Res =  0.1365E-01
 MRCHDU: Convergence failed at  27  side 2    Res =  0.4868E-02
 MRCHDU: Convergence failed at  28  side 2    Res =  0.2245E-02
 MRCHDU: Convergence failed at  29  side 2    Res =  0.1287E-03
 MRCHDU: Convergence failed at  30  side 2    Res =  0.3275E-04
 MRCHDU: Convergence failed at  31  side 2    Res =  0.9878E-05
 MRCHDU: Convergence failed at  36  side 2    Res =  0.5738E-05

[TIMEOUT]
