
 ===================================================
  XFOIL Version 6.99
  Copyright (C) 2000   Mark Drela, Harold Youngren

  This software comes with ABSOLUTELY NO WARRANTY,
    subject to the GNU General Public License.

  Caveat computor
 ===================================================

 File  xfoil.def  not found

   QUIT    Exit program

  .OPER    Direct operating point(s)
  .MDES    Complex mapping design routine
  .QDES    Surface speed design routine
  .GDES    Geometry design routine

   SAVE f  Write airfoil to labeled coordinate file
   PSAV f  Write airfoil to plain coordinate file
   ISAV f  Write airfoil to ISES coordinate file
   MSAV f  Write airfoil to MSES coordinate file
   REVE    Reverse written-airfoil node ordering

   LOAD f  Read buffer airfoil from coordinate file
   NACA i  Set NACA 4,5-digit airfoil and buffer airfoil
   INTE    Set buffer airfoil by interpolating two airfoils
   NORM    Buffer airfoil normalization toggle
   XYCM rr Change CM reference location, currently  0.25000 0.00000

   BEND    Display structural properties of current airfoil

   PCOP    Set current-airfoil panel nodes directly from buffer airfoil points
   PANE    Set current-airfoil panel nodes ( 160 ) based on curvature
  .PPAR    Show/change paneling

  .PLOP    Plotting options

   WDEF f  Write  current-settings file
   RDEF f  Reread current-settings file
   NAME s  Specify new airfoil name
   NINC    Increment name version number

   Z       Zoom    | (available in all menus)
   U       Unzoom  | 

 XFOIL   c>  
 Labeled airfoil file.  Name:  NACA 63-206                                     

 Number of input coordinate points:  51
 Counterclockwise ordering
 Max thickness =     0.060008  at x =   0.350
 Max camber    =     0.011600  at x =   0.600

  LE  x,y  =  -0.00001   0.00021  |   Chord =   1.00001
  TE  x,y  =   1.00000   0.00000  |

 Current airfoil nodes set from buffer airfoil nodes (  51 )

 WARNING: Poor input coordinate distribution
          Excessive panel angle   90.0  at i =  26
          Repaneling with PANE and/or PPAR suggested
           (doing GDES,CADD before repaneling _may_
            improve excessively coarse LE spacing

 XFOIL   c>  
 XFOIL   c>  
 Sharp trailing edge

 Paneling parameters used...
   Number of panel nodes       160
   Panel bunching parameter    1.000
   TE/LE panel density ratio   0.150
   Refined-area/LE panel density ratio    0.200
   Top    side refined area x/c limits  1.000 1.000
   Bottom side refined area x/c limits  1.000 1.000

 XFOIL   c>  
.OPERi   c>  
 Xtr/c     =  1.0000    top    side
 Xtr/c     =  1.0000    bottom side
 Ncrit     =    9.00   ( 0.070 % turb. level )
 Vacc      =  0.0100

 Klag  =  5.6000     Uxwt  =    1.00
 A     =  6.7000     B     =  0.7500       KCt = 0.01485
 CtiniK=  1.8000     CtiniX=  3.3000

..VPAR   c>  
..VPAR   c>  
.OPERi   c>  
 M  =    0.0000
 Re =    150000

.OPERv   c>  
.OPERv   c>  
.OPERv   c>  
 Polar  1 newly created for accumulation
 Airfoil archived with polar: NACA 63-206                                     

Enter  polar save filename  OR  <return> for no file   s>  
 New polar save file available

Enter  polar dump filename  OR  <return> for no file   s>  
 Polar dump file will NOT be written

 Polar accumulation enabled

.OPERva   c>   Calculating unit vorticity distributions ...
 Calculating wake trajectory ...
 Calculating source influence matrix ...

 Solving BL system ...

 Initializing BL ...
    side            1  ...
 MRCHUE: Inverse mode at  36     Hk =   3.800
 MRCHUE: Convergence failed at  37  side 1    Res =  0.6203E+01
 MRCHUE: Convergence failed at  38  side 1    Res =  0.7845E+01
 MRCHUE: Inverse mode at  39     Hk =   4.147
 MRCHUE: Convergence failed at  48  side 1    Res =  0.1724E+02
 MRCHUE: Convergence failed at  49  side 1    Res =  0.7885E+01
 MRCHUE: Convergence failed at  50  side 1    Res =  0.7180E+01
 MRCHUE: Convergence failed at  51  side 1    Res =  0.9181E+01
 MRCHUE: Convergence failed at  52  side 1    Res =  0.7755E+01
 MRCHUE: Inverse mode at  53     Hk =   3.800
 MRCHUE: Inverse mode at  67     Hk =   3.800
 MRCHUE: Inverse mode at  68     Hk =   4.642
 MRCHUE: Convergence failed at  69  side 1    Res =  0.5464E+01
 MRCHUE: Inverse mode at  70     Hk =   5.583
 MRCHUE: Inverse mode at  71     Hk =   6.432
 MRCHUE: Inverse mode at  72     Hk =   7.216
 MRCHUE: Inverse mode at  73     Hk =   7.929
 MRCHUE: Inverse mode at  74     Hk =   8.591
 MRCHUE: Inverse mode at  75     Hk =   6.364
 MRCHUE: Inverse mode at  76     Hk =   4.314
 MRCHUE: Inverse mode at  77     Hk =   2.966
    side            2  ...
 MRCHUE: Inverse mode at   6     Hk =   3.800
 MRCHUE: Inverse mode at   7     Hk =   4.999
 MRCHUE: Inverse mode at   8     Hk =   6.360
 MRCHUE: Convergence failed at   9  side 2    Res =  0.5610E+01
 MRCHUE: Inverse mode at  10     Hk =   8.872
 MRCHUE: Inverse mode at  11     Hk =   4.674
 MRCHUE: Inverse mode at  12     Hk =   2.500
 MRCHUE: Inverse mode at  13     Hk =   2.500
 MRCHUE: Inverse mode at  14     Hk =   2.500

 MRCHDU: Convergence failed at  37  side 1    Res =  0.2454E+01
 MRCHDU: Convergence failed at  38  side 1    Res =  0.4401E+02
 MRCHDU: Convergence failed at  39  side 1    Res =  0.5568E+01
 MRCHDU: Convergence failed at  48  side 1    Res =  0.7499E+01
 MRCHDU: Convergence failed at  49  side 1    Res =  0.5060E+01
 MRCHDU: Convergence failed at  50  side 1    Res =  0.2786E+01
 MRCHDU: Convergence failed at  51  side 1    Res =  0.2242E+01
 MRCHDU: Convergence failed at  52  side 1    Res =  0.2102E+01
 MRCHDU: Convergence failed at  53  side 1    Res =  0.2083E+01
 MRCHDU: Convergence failed at  54  side 1    Res =  0.2146E+01
 MRCHDU: Convergence failed at  55  side 1    Res =  0.2338E+01
 MRCHDU: Convergence failed at  56  side 1    Res =  0.2581E+01
 MRCHDU: Convergence failed at  57  side 1    Res =  0.2902E+01
 MRCHDU: Convergence failed at  58  side 1    Res =  0.3365E+01
 MRCHDU: Convergence failed at  59  side 1    Res =  0.4322E+01
 MRCHDU: Convergence failed at  60  side 1    Res =  0.1789E+02
 MRCHDU: Convergence failed at  61  side 1    Res =  0.6076E+01
 MRCHDU: Convergence failed at  62  side 1    Res =  0.9102E+01
 MRCHDU: Convergence failed at  63  side 1    Res =  0.3529E+02
 MRCHDU: Convergence failed at  64  side 1    Res =  0.2452E+01
 MRCHDU: Convergence failed at  65  side 1    Res =  0.4446E+01
 MRCHDU: Convergence failed at  66  side 1    Res =  0.7106E+01
 MRCHDU: Convergence failed at  67  side 1    Res =  0.1032E+02
 MRCHDU: Convergence failed at  68  side 1    Res =  0.6430E+01
 MRCHDU: Convergence failed at  69  side 1    Res =  0.1055E+03
 MRCHDU: Convergence failed at  70  side 1    Res =  0.2383E+03
 MRCHDU: Convergence failed at  71  side 1    Res =  0.1267E+03
 MRCHDU: Convergence failed at  72  side 1    Res =  0.1262E+02
 MRCHDU: Convergence failed at  73  side 1    Res =  0.1449E+02
 MRCHDU: Convergence failed at  74  side 1    Res =  0.1609E+02
 MRCHDU: Convergence failed at  75  side 1    Res =  0.1394E+02
 MRCHDU: Convergence failed at  76  side 1    Res =  0.2061E+03
 MRCHDU: Convergence failed at  77  side 1    Res =  0.5624E+04
 MRCHDU: Convergence failed at  78  side 1    Res =  0.1339E+02
 MRCHDU: Convergence failed at  79  side 1    Res =  0.7608E+02
 MRCHDU: Convergence failed at  80  side 1    Res =  0.4661E+02
 MRCHDU: Convergence failed at  81  side 1    Res =  0.3573E+02
 MRCHDU: Convergence failed at  82  side 1    Res =  0.2902E+02
 MRCHDU: Convergence failed at  83  side 1    Res =  0.2460E+02
 MRCHDU: Convergence failed at  84  side 1    Res =  0.2032E+02
 MRCHDU: Convergence failed at  85  side 1    Res =  0.1743E+02
 MRCHDU: Convergence failed at  86  side 1    Res =  0.1721E+02
 MRCHDU: Convergence failed at  87  side 1    Res =  0.1233E+06
 MRCHDU: Convergence failed at   9  side 2    Res =  0.2693E+01
 MRCHDU: Convergence failed at  10  side 2    Res =  0.4403E+01
 MRCHDU: Convergence failed at  11  side 2    Res =  0.6924E+01
 MRCHDU: Convergence failed at  12  side 2    Res =  0.1137E+02
 MRCHDU: Convergence failed at  13  side 2    Res =  0.1977E+02
 MRCHDU: Convergence failed at  14  side 2    Res =  0.5421E+02
 MRCHDU: Convergence failed at  15  side 2    Res =  0.1321E+02
 MRCHDU: Convergence failed at  16  side 2    Res =  0.2500E+02
 MRCHDU: Convergence failed at  17  side 2    Res =  0.6941E+02
 MRCHDU: Convergence failed at  18  side 2    Res =  0.4033E+03
 MRCHDU: Convergence failed at  19  side 2    Res =  0.4092E+03
 MRCHDU: Convergence failed at  20  side 2    Res =  0.2359E+03
 MRCHDU: Convergence failed at  21  side 2    Res =  0.1656E+03
 MRCHDU: Convergence failed at  22  side 2    Res =  0.1354E+03
 MRCHDU: Convergence failed at  23  side 2    Res =  0.1507E+03
 MRCHDU: Convergence failed at  24  side 2    Res =  0.1260E+03
 MRCHDU: Convergence failed at  25  side 2    Res =  0.1092E+03
 MRCHDU: Convergence failed at  26  side 2    Res =  0.8276E+02
 MRCHDU: Convergence failed at  27  side 2    Res =  0.9261E+02
 MRCHDU: Convergence failed at  28  side 2    Res =  0.1027E+03
 MRCHDU: Convergence failed at  29  side 2    Res =  0.1119E+03
 MRCHDU: Convergence failed at  30  side 2    Res =  0.1231E+03
 MRCHDU: Convergence failed at  31  side 2    Res =  0.1138E+03
 MRCHDU: Convergence failed at  32  side 2    Res =  0.1050E+03
 MRCHDU: Convergence failed at  33  side 2    Res =  0.1188E+03
 MRCHDU: Convergence failed at  34  side 2    Res =  0.8062E+03
 MRCHDU: Convergence failed at  35  side 2    Res =  0.4272E+03
 MRCHDU: Convergence failed at  36  side 2    Res =  0.2795E+03
 MRCHDU: Convergence failed at  37  side 2    Res =  0.2132E+03
 MRCHDU: Convergence failed at  38  side 2    Res =  0.1714E+03
 MRCHDU: Convergence failed at  39  side 2    Res =  0.1430E+03
 MRCHDU: Convergence failed at  40  side 2    Res =  0.1221E+03
 MRCHDU: Convergence failed at  41  side 2    Res =  0.1068E+03
 MRCHDU: Convergence failed at  42  side 2    Res =  0.1849E+03
 MRCHDU: Convergence failed at  43  side 2    Res =  0.1521E+03
 MRCHDU: Convergence failed at  44  side 2    Res =  0.6435E+02
 MRCHDU: Convergence failed at  45  side 2    Res =  0.6845E+02
 MRCHDU: Convergence failed at  46  side 2    Res =  0.7466E+02
 MRCHDU: Convergence failed at  47  side 2    Res =  0.8134E+02
 MRCHDU: Convergence failed at  48  side 2    Res =  0.8922E+02
 MRCHDU: Convergence failed at  49  side 2    Res =  0.9938E+02
 MRCHDU: Convergence failed at  50  side 2    Res =  0.1094E+03
 MRCHDU: Convergence failed at  51  side 2    Res =  0.1240E+03
 MRCHDU: Convergence failed at  52  side 2    Res =  0.1397E+03
 MRCHDU: Convergence failed at  53  side 2    Res =  0.1622E+03
 MRCHDU: Convergence failed at  54  side 2    Res =  0.1903E+03
 MRCHDU: Convergence failed at  55  side 2    Res =  0.2490E+03
 MRCHDU: Convergence failed at  56  side 2    Res =  0.3586E+03
 MRCHDU: Convergence failed at  57  side 2    Res =  0.6183E+03
 MRCHDU: Convergence failed at  58  side 2    Res =  0.3131E+02
 MRCHDU: Convergence failed at  59  side 2    Res =  0.2880E+02
 MRCHDU: Convergence failed at  60  side 2    Res =  0.3245E+03
 MRCHDU: Convergence failed at  61  side 2    Res =  0.1545E+05
 MRCHDU: Convergence failed at  62  side 2    Res =  0.3439E+03
 MRCHDU: Convergence failed at  63  side 2    Res =  0.1859E+03
 MRCHDU: Convergence failed at  64  side 2    Res =  0.1236E+03
 MRCHDU: Convergence failed at  65  side 2    Res =  0.9233E+02
 MRCHDU: Convergence failed at  66  side 2    Res =  0.9132E+02
 MRCHDU: Convergence failed at  67  side 2    Res =  0.7245E+02
 MRCHDU: Convergence failed at  68  side 2    Res =  0.5873E+02
 MRCHDU: Convergence failed at  69  side 2    Res =  0.5152E+02
 MRCHDU: Convergence failed at  70  side 2    Res =  0.4609E+02
 MRCHDU: Convergence failed at  71  side 2    Res =  0.4409E+02
 MRCHDU: Convergence failed at  72  side 2    Res =  0.4064E+02
 MRCHDU: Convergence failed at  73  side 2    Res =  0.3903E+02
 MRCHDU: Convergence failed at  74  side 2    Res =  0.4124E+02
 MRCHDU: Convergence failed at  75  side 2    Res =  0.3317E+02
 Side 1 forced transition at x/c =  1.0000   87
 Side 2  free  transition at x/c =  0.0358   11

   1   rms: 0.1752E+01   max: 0.2460E+01   D at   77  2   RLX: 0.135
       a = -4.000      CL = -1.9124
      Cm =  0.1559     CD =  0.00257   =>   CDf =  0.01989    CDp = -0.01731

 Side 1 forced transition at x/c =  1.0000   87
 Side 2  free  transition at x/c =  0.0393   11

   2   rms: 0.1543E+01   max: -.9733E+00   U at   75  2   RLX: 0.283
       a = -4.000      CL = -1.2673
      Cm =  0.0548     CD =  0.00690   =>   CDf =  0.02455    CDp = -0.01765

 MRCHDU: Convergence failed at  50  side 1    Res =  0.4639E+01
 MRCHDU: Convergence failed at  51  side 1    Res =  0.4046E+01
 MRCHDU: Convergence failed at  52  side 1    Res =  0.3894E+01
 MRCHDU: Convergence failed at  53  side 1    Res =  0.3654E+01
 MRCHDU: Convergence failed at  54  side 1    Res =  0.3796E+01
 MRCHDU: Convergence failed at  55  side 1    Res =  0.6428E+01
 MRCHDU: Convergence failed at  56  side 1    Res =  0.1843E+02
 MRCHDU: Convergence failed at  57  side 1    Res =  0.1911E+02
 MRCHDU: Convergence failed at  58  side 1    Res =  0.6508E+01
 MRCHDU: Convergence failed at  59  side 1    Res =  0.4046E+01
 MRCHDU: Convergence failed at  60  side 1    Res =  0.2969E+01
 MRCHDU: Convergence failed at  61  side 1    Res =  0.2823E+01
 MRCHDU: Convergence failed at  62  side 1    Res =  0.2762E+01
 MRCHDU: Convergence failed at  63  side 1    Res =  0.2200E+01
 MRCHDU: Convergence failed at  64  side 1    Res =  0.1349E+01
 Side 1  free  transition at x/c =  0.6980   65
 Side 2  free  transition at x/c =  0.0311   11

   3   rms: 0.1474E+01   max: 0.1463E+02   C at   65  1   RLX: 0.103
       a = -4.000      CL = -1.0996
      Cm =  0.0254     CD =  0.00867   =>   CDf =  0.02038    CDp = -0.01172

 Side 1 forced transition at x/c =  1.0000   87
 Side 2  free  transition at x/c =  0.0311   11

   4   rms: 0.1220E+01   max: 0.4918E+01   D at   54  1   RLX: 0.305
       a = -4.000      CL = -0.8274
      Cm =  0.0041     CD =  0.00856   =>   CDf =  0.01676    CDp = -0.00820

 Side 1  free  transition at x/c =  0.9138   80
 Side 2  free  transition at x/c =  0.0320   11

   5   rms: 0.1349E+01   max: -.1889E+02   C at   80  1   RLX: 0.026
       a = -4.000      CL = -0.8173
      Cm =  0.0057     CD =  0.00918   =>   CDf =  0.01414    CDp = -0.00496

 Side 1  free  transition at x/c =  0.9403   82
 Side 2  free  transition at x/c =  0.0320   11

   6   rms: 0.1323E+01   max: -.1722E+02   C at   82  1   RLX: 0.029
       a = -4.000      CL = -0.8039
      Cm =  0.0051     CD =  0.00931   =>   CDf =  0.01388    CDp = -0.00457

 Side 1  free  transition at x/c =  0.9695   84
 Side 2  free  transition at x/c =  0.0320   11

   7   rms: 0.1489E+01   max: -.1962E+02   C at   84  1   RLX: 0.025
       a = -4.000      CL = -0.7940
      Cm =  0.0050     CD =  0.00947   =>   CDf =  0.01367    CDp = -0.00419

 Side 1  free  transition at x/c =  0.9989   87
 Side 2  free  transition at x/c =  0.0320   11

   8   rms: 0.2228E+01   max: -.5450E+02   C at   87  1   RLX: 0.009
       a = -4.000      CL = -0.7897
      Cm =  0.0047     CD =  0.00954   =>   CDf =  0.01351    CDp = -0.00398

 Side 1 forced transition at x/c =  1.0000   87
 Side 2  free  transition at x/c =  0.0320   11

   9   rms: 0.6750E+00   max: 0.5870E+00   D at   88  2   RLX: 0.659
       a = -4.000      CL = -0.4622
      Cm = -0.0209     CD =  0.01257   =>   CDf =  0.01346    CDp = -0.00089

 MRCHDU: Convergence failed at  46  side 1    Res =  0.1249E+01
 MRCHDU: Convergence failed at  47  side 1    Res =  0.1192E+01
 MRCHDU: Convergence failed at  64  side 1    Res =  0.6379E+01
 MRCHDU: Convergence failed at  65  side 1    Res =  0.3214E+01
 Side 1  free  transition at x/c =  0.8097   73
 Side 2  free  transition at x/c =  0.0350   11

  10   rms: 0.6359E+00   max: -.9192E+01   C at   73  1   RLX: 0.054
       a = -4.000      CL = -0.4153
      Cm = -0.0394     CD =  0.01510   =>   CDf =  0.00990    CDp =  0.00520

 Side 1  free  transition at x/c =  0.8789   78
 Side 2  free  transition at x/c =  0.0353   11

  11   rms: 0.1183E+01   max: -.1932E+02   C at   78  1   RLX: 0.026
       a = -4.000      CL = -0.4057
      Cm = -0.0428     CD =  0.01500   =>   CDf =  0.00947    CDp =  0.00553

 Side 1  free  transition at x/c =  0.8936   79
 Side 2  free  transition at x/c =  0.0354   11

  12   rms: 0.9953E+00   max: -.1557E+02   C at   79  1   RLX: 0.032
       a = -4.000      CL = -0.4036
      Cm = -0.0420     CD =  0.01514   =>   CDf =  0.00938    CDp =  0.00576

 Side 1  free  transition at x/c =  0.9104   80
 Side 2  free  transition at x/c =  0.0356   11

  13   rms: 0.7822E+00   max: -.1112E+02   C at   80  1   RLX: 0.045
       a = -4.000      CL = -0.4025
      Cm = -0.0406     CD =  0.01541   =>   CDf =  0.00926    CDp =  0.00614

 Side 1  free  transition at x/c =  0.9335   82
 Side 2  free  transition at x/c =  0.0358   11

  14   rms: 0.8274E+00   max: -.9972E+01   C at   82  1   RLX: 0.050
       a = -4.000      CL = -0.4076
      Cm = -0.0379     CD =  0.01593   =>   CDf =  0.00912    CDp =  0.00681

 Side 1  free  transition at x/c =  0.9484   83
 Side 2  free  transition at x/c =  0.0363   11

  15   rms: 0.6787E+00   max: -.6354E+01   C at   83  1   RLX: 0.079
       a = -4.000      CL = -0.4153
      Cm = -0.0340     CD =  0.01685   =>   CDf =  0.00895    CDp =  0.00790

 Side 1  free  transition at x/c =  0.9650   84
 Side 2  free  transition at x/c =  0.0373   11

  16   rms: 0.5248E+00   max: -.2742E+01   C at   84  1   RLX: 0.182
       a = -4.000      CL = -0.4277
      Cm = -0.0272     CD =  0.01894   =>   CDf =  0.00870    CDp =  0.01024

 Side 1  free  transition at x/c =  0.9817   85
 Side 2  free  transition at x/c =  0.0402   11

  17   rms: 0.3151E+00   max: 0.1657E+01   C at   85  1   RLX: 0.663
       a = -4.000      CL = -0.4110
      Cm = -0.0182     CD =  0.02384   =>   CDf =  0.00816    CDp =  0.01568

 Side 1 forced transition at x/c =  1.0000   87
 Side 2  free  transition at x/c =  0.0518   12

  18   rms: 0.1849E+00   max: 0.8171E+00   T at   12  2   RLX: 0.768
       a = -4.000      CL = -0.3364
      Cm = -0.0274     CD =  0.02136   =>   CDf =  0.00773    CDp =  0.01363

 Side 1 forced transition at x/c =  1.0000   87
 Side 2  free  transition at x/c =  0.0456   12

  19   rms: 0.4518E-01   max: 0.4245E+00   T at   12  2
       a = -4.000      CL = -0.3267
      Cm = -0.0263     CD =  0.02488   =>   CDf =  0.00713    CDp =  0.01775

 Side 1 forced transition at x/c =  1.0000   87
 Side 2  free  transition at x/c =  0.0438   11

  20   rms: 0.1178E+00   max: 0.5997E+00   D at   12  2
       a = -4.000      CL = -0.3282
      Cm = -0.0267     CD =  0.02440   =>   CDf =  0.00722    CDp =  0.01718

 Side 1 forced transition at x/c =  1.0000   87
 Side 2  free  transition at x/c =  0.0435   11

  21   rms: 0.5339E-01   max: 0.2004E+00   D at   16  2
       a = -4.000      CL = -0.3284
      Cm = -0.0267     CD =  0.02449   =>   CDf =  0.00719    CDp =  0.01730

 Side 1 forced transition at x/c =  1.0000   87
 Side 2  free  transition at x/c =  0.0449   12

  22   rms: 0.4781E-01   max: 0.1872E+00   D at   16  2
       a = -4.000      CL = -0.3288
      Cm = -0.0268     CD =  0.02394   =>   CDf =  0.00729    CDp =  0.01666

 Side 1 forced transition at x/c =  1.0000   87
 Side 2  free  transition at x/c =  0.0447   12

  23   rms: 0.5543E-02   max: -.2362E-01   D at   16  2
       a = -4.000      CL = -0.3288
      Cm = -0.0268     CD =  0.02398   =>   CDf =  0.00705    CDp =  0.01692

 Side 1 forced transition at x/c =  1.0000   87
 Side 2  free  transition at x/c =  0.0447   12

  24   rms: 0.8196E-04   max: -.4292E-03   D at   16  2
       a = -4.000      CL = -0.3288
      Cm = -0.0268     CD =  0.02398   =>   CDf =  0.00708    CDp =  0.01690
 plradd ia,ip,cpol            1           0  6.96852003E-05

 Point added to stored polar  1
 Point written to save file  naca63206_Re150k.base.pol                       
 Dump file unspecified or not available
 Calculating wake trajectory ...
 Calculating source influence matrix ...

 Solving BL system ...

 Side 1 forced transition at x/c =  1.0000   87
 Side 2  free  transition at x/c =  0.0447   12

   1   rms: 0.1474E+00   max: 0.9445E+00   T at   12  2
       a = -3.500      CL = -0.2672
      Cm = -0.0234     CD =  0.02892   =>   CDf =  0.00730    CDp =  0.02162

 Side 1 forced transition at x/c =  1.0000   88
 Side 2  free  transition at x/c =  0.0517   11

   2   rms: 0.2355E+00   max: 0.2790E+01   D at   11  2   RLX: 0.538
       a = -3.500      CL = -0.2727
      Cm = -0.0240     CD =  0.01429   =>   CDf =  0.00829    CDp =  0.00600

 Side 1 forced transition at x/c =  1.0000   88
 Side 2  free  transition at x/c =  0.0479   11

   3   rms: 0.1337E+00   max: 0.9116E+00   D at   11  2
       a = -3.500      CL = -0.2733
      Cm = -0.0258     CD =  0.01798   =>   CDf =  0.00797    CDp =  0.01001

 Side 1 forced transition at x/c =  1.0000   88
 Side 2  free  transition at x/c =  0.0463   11

   4   rms: 0.6183E-02   max: 0.6780E-01   D at   12  2
       a = -3.500      CL = -0.2749
      Cm = -0.0258     CD =  0.01808   =>   CDf =  0.00780    CDp =  0.01028

 Side 1 forced transition at x/c =  1.0000   88
 Side 2  free  transition at x/c =  0.0464   11

   5   rms: 0.2516E-03   max: 0.2295E-02   D at   12  2
       a = -3.500      CL = -0.2750
      Cm = -0.0258     CD =  0.01808   =>   CDf =  0.00781    CDp =  0.01027

 Side 1 forced transition at x/c =  1.0000   88
 Side 2  free  transition at x/c =  0.0464   11

   6   rms: 0.2045E-05   max: 0.7671E-05   D at    5  1
       a = -3.500      CL = -0.2750
      Cm = -0.0258     CD =  0.01808   =>   CDf =  0.00781    CDp =  0.01027
 plradd ia,ip,cpol            2           0  6.96852003E-05

 Point added to stored polar  1
 Point written to save file  naca63206_Re150k.base.pol                       
 Dump file unspecified or not available
 Calculating wake trajectory ...
 Calculating source influence matrix ...

 Solving BL system ...

 Side 1 forced transition at x/c =  1.0000   88
 Side 2  free  transition at x/c =  0.0464   11

   1   rms: 0.2311E+00   max: -.1722E+01   T at   11  2   RLX: 0.290
       a = -3.000      CL = -0.2608
      Cm = -0.0257     CD =  0.01621   =>   CDf =  0.00781    CDp =  0.00840

 Side 1 forced transition at x/c =  1.0000   88
 Side 2  free  transition at x/c =  0.0482   11

   2   rms: 0.2043E+00   max: -.8833E+00   D at   15  2   RLX: 0.566
       a = -3.000      CL = -0.2382
      Cm = -0.0250     CD =  0.01613   =>   CDf =  0.00754    CDp =  0.00859

 Side 1 forced transition at x/c =  1.0000   88
 Side 2  free  transition at x/c =  0.0483   11

   3   rms: 0.6386E-01   max: -.3272E+00   D at   15  2
       a = -3.000      CL = -0.2223
      Cm = -0.0242     CD =  0.01439   =>   CDf =  0.00791    CDp =  0.00648

 Side 1 forced transition at x/c =  1.0000   88
 Side 2  free  transition at x/c =  0.0506   11

   4   rms: 0.2505E-02   max: -.2926E-01   D at   15  2
       a = -3.000      CL = -0.2224
      Cm = -0.0242     CD =  0.01454   =>   CDf =  0.00798    CDp =  0.00656

 Side 1 forced transition at x/c =  1.0000   88
 Side 2  free  transition at x/c =  0.0506   11

   5   rms: 0.2736E-04   max: -.2629E-03   D at   15  2
       a = -3.000      CL = -0.2224
      Cm = -0.0242     CD =  0.01454   =>   CDf =  0.00799    CDp =  0.00655
 plradd ia,ip,cpol            3           0  8.50375451E-04

 Point added to stored polar  1
 Point written to save file  naca63206_Re150k.base.pol                       
 Dump file unspecified or not available
 Calculating wake trajectory ...
 Calculating source influence matrix ...

 Solving BL system ...

 Side 1 forced transition at x/c =  1.0000   88
 Side 2  free  transition at x/c =  0.0506   11

   1   rms: 0.1379E+00   max: -.6720E+00   T at   11  2   RLX: 0.744
       a = -2.500      CL = -0.1844
      Cm = -0.0231     CD =  0.01255   =>   CDf =  0.00799    CDp =  0.00456

 Side 1 forced transition at x/c =  1.0000   88
 Side 2  free  transition at x/c =  0.0664   12

   2   rms: 0.3027E-01   max: 0.4758E+00   D at   12  2
       a = -2.500      CL = -0.1713
      Cm = -0.0232     CD =  0.01241   =>   CDf =  0.00798    CDp =  0.00442

 Side 1 forced transition at x/c =  1.0000   88
 Side 2  free  transition at x/c =  0.0685   12

   3   rms: 0.4791E-02   max: 0.4704E-01   D at   12  2
       a = -2.500      CL = -0.1714
      Cm = -0.0232     CD =  0.01238   =>   CDf =  0.00799    CDp =  0.00439

 Side 1 forced transition at x/c =  1.0000   88
 Side 2  free  transition at x/c =  0.0685   12

   4   rms: 0.3251E-04   max: 0.3426E-03   D at   36  2
       a = -2.500      CL = -0.1714
      Cm = -0.0232     CD =  0.01238   =>   CDf =  0.00798    CDp =  0.00440
 plradd ia,ip,cpol            4           0  8.50375451E-04

 Point added to stored polar  1
 Point written to save file  naca63206_Re150k.base.pol                       
 Dump file unspecified or not available
 Calculating wake trajectory ...
 Calculating source influence matrix ...

 Solving BL system ...

 Side 1 forced transition at x/c =  1.0000   88
 Side 2  free  transition at x/c =  0.0685   12

   1   rms: 0.1305E+00   max: -.6360E+00   T at   12  2   RLX: 0.786
       a = -2.000      CL = -0.1305
      Cm = -0.0226     CD =  0.01100   =>   CDf =  0.00799    CDp =  0.00302

 Side 1 forced transition at x/c =  1.0000   88
 Side 2  free  transition at x/c =  0.0919   14

   2   rms: 0.1958E+00   max: -.1594E+01   C at   14  2   RLX: 0.314
       a = -2.000      CL = -0.1263
      Cm = -0.0229     CD =  0.01069   =>   CDf =  0.00809    CDp =  0.00260

 Side 1 forced transition at x/c =  1.0000   88
 Side 2  free  transition at x/c =  0.1189   15

   3   rms: 0.3453E+00   max: -.4203E+01   T at   15  2   RLX: 0.119
       a = -2.000      CL = -0.1238
      Cm = -0.0227     CD =  0.01082   =>   CDf =  0.00797    CDp =  0.00284

 Side 1 forced transition at x/c =  1.0000   88
 Side 2  free  transition at x/c =  0.4721   38

   4   rms: 0.4713E+00   max: -.7736E+01   C at   38  2   RLX: 0.065
       a = -2.000      CL = -0.1277
      Cm = -0.0222     CD =  0.00907   =>   CDf =  0.00644    CDp =  0.00262

 Side 1 forced transition at x/c =  1.0000   88
 Side 2  free  transition at x/c =  0.5692   45

   5   rms: 0.4900E+00   max: -.7745E+01   C at   45  2   RLX: 0.065
       a = -2.000      CL = -0.1316
      Cm = -0.0209     CD =  0.00873   =>   CDf =  0.00601    CDp =  0.00272

 Side 1 forced transition at x/c =  1.0000   88
 Side 2  free  transition at x/c =  0.5847   46

   6   rms: 0.3616E+00   max: -.5643E+01   C at   46  2   RLX: 0.089
       a = -2.000      CL = -0.1313
      Cm = -0.0211     CD =  0.00867   =>   CDf =  0.00592    CDp =  0.00275

 Side 1 forced transition at x/c =  1.0000   88
 Side 2  free  transition at x/c =  0.6062   47

   7   rms: 0.2003E+00   max: -.2975E+01   C at   47  2   RLX: 0.168
       a = -2.000      CL = -0.1309
      Cm = -0.0212     CD =  0.00861   =>   CDf =  0.00582    CDp =  0.00279

 Side 1 forced transition at x/c =  1.0000   88
 Side 2  free  transition at x/c =  0.6690   51

   8   rms: 0.9059E-01   max: -.1101E+01   C at   51  2   RLX: 0.454
       a = -2.000      CL = -0.1339
      Cm = -0.0199     CD =  0.00844   =>   CDf =  0.00552    CDp =  0.00292

 Side 1 forced transition at x/c =  1.0000   88
 Side 2  free  transition at x/c =  0.7448   56

   9   rms: 0.2554E-01   max: 0.2037E+00   D at   53  2
       a = -2.000      CL = -0.1342
      Cm = -0.0196     CD =  0.00837   =>   CDf =  0.00521    CDp =  0.00316

 Side 1 forced transition at x/c =  1.0000   88
 Side 2  free  transition at x/c =  0.7366   56

  10   rms: 0.3902E-02   max: -.4724E-01   D at   57  2
       a = -2.000      CL = -0.1332
      Cm = -0.0199     CD =  0.00840   =>   CDf =  0.00527    CDp =  0.00314

 Side 1 forced transition at x/c =  1.0000   88
 Side 2  free  transition at x/c =  0.7366   56

  11   rms: 0.1438E-03   max: 0.1968E-02   C at   56  2
       a = -2.000      CL = -0.1332
      Cm = -0.0199     CD =  0.00840   =>   CDf =  0.00527    CDp =  0.00314

 Side 1 forced transition at x/c =  1.0000   88
 Side 2  free  transition at x/c =  0.7365   56

  12   rms: 0.1369E-05   max: 0.1613E-04   C at   56  2
       a = -2.000      CL = -0.1332
      Cm = -0.0199     CD =  0.00840   =>   CDf =  0.00527    CDp =  0.00314
 plradd ia,ip,cpol            5           0  8.50375451E-04

 Point added to stored polar  1
 Point written to save file  naca63206_Re150k.base.pol                       
 Dump file unspecified or not available
 Calculating wake trajectory ...
 Calculating source influence matrix ...

 Solving BL system ...

 Side 1 forced transition at x/c =  1.0000   88
 Side 2  free  transition at x/c =  0.7365   56

   1   rms: 0.2704E+00   max: -.3170E+01   C at   56  2   RLX: 0.158
       a = -1.500      CL = -0.1312
      Cm = -0.0179     CD =  0.00826   =>   CDf =  0.00527    CDp =  0.00299

 Side 1 forced transition at x/c =  1.0000   88
 Side 2  free  transition at x/c =  0.7714   58

   2   rms: 0.1351E+00   max: -.7663E+00   T at   58  2   RLX: 0.653
       a = -1.500      CL = -0.1074
      Cm = -0.0163     CD =  0.00829   =>   CDf =  0.00554    CDp =  0.00275

 Side 1  free  transition at x/c =  0.9988   89
 Side 2 forced transition at x/c =  1.0000   73

   3   rms: 0.2254E+00   max: -.3186E+01   T at    2  1   RLX: 0.157
       a = -1.500      CL = -0.1181
      Cm = -0.0082     CD =  0.00726   =>   CDf =  0.00511    CDp =  0.00215

 Side 1  free  transition at x/c =  0.9983   89
 Side 2 forced transition at x/c =  1.0000   73

   4   rms: 0.1040E+00   max: 0.9745E+00   C at   73  2
       a = -1.500      CL = -0.0817
      Cm = -0.0158     CD =  0.00776   =>   CDf =  0.00506    CDp =  0.00270

 MRCHDU: Convergence failed at  58  side 2    Res =  0.1426E+01
 Side 1  free  transition at x/c =  0.9977   89
 Side 2 forced transition at x/c =  1.0000   73

   5   rms: 0.2773E-01   max: 0.3148E+00   D at   58  2
       a = -1.500      CL = -0.0804
      Cm = -0.0157     CD =  0.00783   =>   CDf =  0.00507    CDp =  0.00276

 Side 1 forced transition at x/c =  1.0000   89
 Side 2 forced transition at x/c =  1.0000   73

   6   rms: 0.2100E-01   max: 0.2251E+00   C at   73  2
       a = -1.500      CL = -0.0759
      Cm = -0.0160     CD =  0.00790   =>   CDf =  0.00502    CDp =  0.00288

 Side 1 forced transition at x/c =  1.0000   89
 Side 2 forced transition at x/c =  1.0000   73

   7   rms: 0.4770E-02   max: 0.5351E-01   C at   73  2
       a = -1.500      CL = -0.0739
      Cm = -0.0163     CD =  0.00794   =>   CDf =  0.00502    CDp =  0.00292

 Side 1 forced transition at x/c =  1.0000   89
 Side 2 forced transition at x/c =  1.0000   73

   8   rms: 0.1194E-03   max: 0.1287E-02   C at   73  2
       a = -1.500      CL = -0.0739
      Cm = -0.0163     CD =  0.00794   =>   CDf =  0.00502    CDp =  0.00292

 Side 1 forced transition at x/c =  1.0000   89
 Side 2 forced transition at x/c =  1.0000   73

   9   rms: 0.9219E-06   max: -.6745E-05   D at    6  1
       a = -1.500      CL = -0.0739
      Cm = -0.0163     CD =  0.00794   =>   CDf =  0.00502    CDp =  0.00292
 plradd ia,ip,cpol            6           0  8.50375451E-04

 Point added to stored polar  1
 Point written to save file  naca63206_Re150k.base.pol                       
 Dump file unspecified or not available
 Calculating wake trajectory ...
 Calculating source influence matrix ...

 Solving BL system ...

 Side 1 forced transition at x/c =  1.0000   89
 Side 2 forced transition at x/c =  1.0000   73

   1   rms: 0.1271E+00   max: -.9228E+00   C at   73  2   RLX: 0.542
       a = -1.000      CL = -0.0622
      Cm = -0.0140     CD =  0.00777   =>   CDf =  0.00502    CDp =  0.00275

 Side 1  free  transition at x/c =  0.9464   85
 Side 2 forced transition at x/c =  1.0000   73

   2   rms: 0.8391E-01   max: 0.4357E+00   C at   73  2
       a = -1.000      CL =  0.0031
      Cm = -0.0223     CD =  0.00770   =>   CDf =  0.00516    CDp =  0.00254

 Side 1  free  transition at x/c =  0.9603   85
 Side 2 forced transition at x/c =  1.0000   73

   3   rms: 0.1786E-01   max: 0.1504E+00   C at   85  1
       a = -1.000      CL = -0.0008
      Cm = -0.0215     CD =  0.00781   =>   CDf =  0.00536    CDp =  0.00244

 Side 1  free  transition at x/c =  0.9471   85
 Side 2 forced transition at x/c =  1.0000   73

   4   rms: 0.2379E-02   max: -.2386E-01   C at   85  1
       a = -1.000      CL = -0.0001
      Cm = -0.0216     CD =  0.00782   =>   CDf =  0.00535    CDp =  0.00247

 Side 1  free  transition at x/c =  0.9485   85
 Side 2 forced transition at x/c =  1.0000   73

   5   rms: 0.2356E-04   max: -.1919E-03   C at   85  1
       a = -1.000      CL = -0.0001
      Cm = -0.0216     CD =  0.00782   =>   CDf =  0.00535    CDp =  0.00247
 plradd ia,ip,cpol            7           0  6.55204197E-03

 Point added to stored polar  1
 Point written to save file  naca63206_Re150k.base.pol                       
 Dump file unspecified or not available
 Calculating wake trajectory ...
 Calculating source influence matrix ...

 Solving BL system ...

 Side 1  free  transition at x/c =  0.9485   85
 Side 2 forced transition at x/c =  1.0000   73

   1   rms: 0.1133E+00   max: -.1343E+00   D at   76  2
       a = -0.500      CL =  0.0841
      Cm = -0.0285     CD =  0.00783   =>   CDf =  0.00567    CDp =  0.00216

 Side 1  free  transition at x/c =  0.8825   81
 Side 2 forced transition at x/c =  1.0000   72

   2   rms: 0.1968E-01   max: -.2000E+00   D at    2  1
       a = -0.500      CL =  0.0764
      Cm = -0.0265     CD =  0.00783   =>   CDf =  0.00571    CDp =  0.00212

 Side 1  free  transition at x/c =  0.8825   81
 Side 2 forced transition at x/c =  1.0000   72

   3   rms: 0.1587E-02   max: 0.1234E-01   D at    4  1
       a = -0.500      CL =  0.0767
      Cm = -0.0266     CD =  0.00783   =>   CDf =  0.00568    CDp =  0.00216

 Side 1  free  transition at x/c =  0.8821   81
 Side 2 forced transition at x/c =  1.0000   72

   4   rms: 0.6276E-05   max: -.7464E-04   D at   85  1
       a = -0.500      CL =  0.0767
      Cm = -0.0266     CD =  0.00783   =>   CDf =  0.00568    CDp =  0.00216
 plradd ia,ip,cpol            8           0  6.55204197E-03

 Point added to stored polar  1
 Point written to save file  naca63206_Re150k.base.pol                       
 Dump file unspecified or not available
 Calculating wake trajectory ...
 Calculating source influence matrix ...

 Solving BL system ...

 Side 1  free  transition at x/c =  0.8821   81
 Side 2 forced transition at x/c =  1.0000   72

   1   rms: 0.1073E+00   max: -.1913E+00   C at   72  2
       a =  0.000      CL =  0.1429
      Cm = -0.0291     CD =  0.00794   =>   CDf =  0.00568    CDp =  0.00226

 Side 1  free  transition at x/c =  0.8278   78
 Side 2 forced transition at x/c =  1.0000   72

   2   rms: 0.8581E-02   max: -.6808E-01   D at   79  1
       a =  0.000      CL =  0.1363
      Cm = -0.0276     CD =  0.00798   =>   CDf =  0.00599    CDp =  0.00198

 Side 1  free  transition at x/c =  0.8284   78
 Side 2 forced transition at x/c =  1.0000   72

   3   rms: 0.4772E-03   max: 0.6105E-02   C at   78  1
       a =  0.000      CL =  0.1365
      Cm = -0.0277     CD =  0.00798   =>   CDf =  0.00597    CDp =  0.00201

 Side 1  free  transition at x/c =  0.8282   78
 Side 2 forced transition at x/c =  1.0000   72

   4   rms: 0.1051E-05   max: 0.1042E-04   C at   78  1
       a =  0.000      CL =  0.1365
      Cm = -0.0277     CD =  0.00798   =>   CDf =  0.00597    CDp =  0.00201
 plradd ia,ip,cpol            9           0  0.25753286    

 Point added to stored polar  1
 Point written to save file  naca63206_Re150k.base.pol                       
 Dump file unspecified or not available
 Calculating wake trajectory ...
 Calculating source influence matrix ...

 Solving BL system ...

 Side 1  free  transition at x/c =  0.8282   78
 Side 2 forced transition at x/c =  1.0000   72

   1   rms: 0.9789E-01   max: -.2273E+00   C at   72  2
       a =  0.500      CL =  0.1929
      Cm = -0.0279     CD =  0.00822   =>   CDf =  0.00597    CDp =  0.00225

 Side 1  free  transition at x/c =  0.7964   76
 Side 2 forced transition at x/c =  1.0000   72

   2   rms: 0.7832E-02   max: -.1060E+00   D at   76  1
       a =  0.500      CL =  0.1921
      Cm = -0.0277     CD =  0.00823   =>   CDf =  0.00621    CDp =  0.00201

 Side 1  free  transition at x/c =  0.7964   76
 Side 2 forced transition at x/c =  1.0000   72

   3   rms: 0.3905E-03   max: 0.5191E-02   C at   76  1
       a =  0.500      CL =  0.1921
      Cm = -0.0277     CD =  0.00823   =>   CDf =  0.00620    CDp =  0.00203

 Side 1  free  transition at x/c =  0.7963   76
 Side 2 forced transition at x/c =  1.0000   72

   4   rms: 0.1126E-05   max: 0.7807E-05   D at   77  1
       a =  0.500      CL =  0.1921
      Cm = -0.0277     CD =  0.00823   =>   CDf =  0.00620    CDp =  0.00203
 plradd ia,ip,cpol           10           0  7.50574889E-03

 Point added to stored polar  1
 Point written to save file  naca63206_Re150k.base.pol                       
 Dump file unspecified or not available
 Calculating wake trajectory ...
 Calculating source influence matrix ...

 Solving BL system ...

 Side 1  free  transition at x/c =  0.7963   76
 Side 2 forced transition at x/c =  1.0000   72

   1   rms: 0.9247E-01   max: -.1989E+00   C at   72  2
       a =  1.000      CL =  0.2466
      Cm = -0.0275     CD =  0.00860   =>   CDf =  0.00630    CDp =  0.00230

 Side 1  free  transition at x/c =  0.7747   75
 Side 2 forced transition at x/c =  1.0000   71

   2   rms: 0.1330E-01   max: -.1919E+00   D at   76  1
       a =  1.000      CL =  0.2463
      Cm = -0.0276     CD =  0.00858   =>   CDf =  0.00632    CDp =  0.00226

 Side 1  free  transition at x/c =  0.7731   75
 Side 2 forced transition at x/c =  1.0000   71

   3   rms: 0.9317E-03   max: 0.8972E-02   D at   76  1
       a =  1.000      CL =  0.2464
      Cm = -0.0276     CD =  0.00859   =>   CDf =  0.00634    CDp =  0.00226

 Side 1  free  transition at x/c =  0.7729   75
 Side 2 forced transition at x/c =  1.0000   71

   4   rms: 0.3330E-05   max: -.3028E-04   C at   75  1
       a =  1.000      CL =  0.2464
      Cm = -0.0276     CD =  0.00859   =>   CDf =  0.00633    CDp =  0.00226
 plradd ia,ip,cpol           11           0  7.50574889E-03

 Point added to stored polar  1
 Point written to save file  naca63206_Re150k.base.pol                       
 Dump file unspecified or not available
 Calculating wake trajectory ...
 Calculating source influence matrix ...

 Solving BL system ...

 Side 1  free  transition at x/c =  0.7729   75
 Side 2 forced transition at x/c =  1.0000   71

   1   rms: 0.8766E-01   max: -.1806E+00   C at   71  2
       a =  1.500      CL =  0.3006
      Cm = -0.0275     CD =  0.00901   =>   CDf =  0.00634    CDp =  0.00268

 Side 1  free  transition at x/c =  0.7524   74
 Side 2 forced transition at x/c =  1.0000   71

   2   rms: 0.9893E-02   max: -.1557E+00   D at   74  1
       a =  1.500      CL =  0.3006
      Cm = -0.0274     CD =  0.00902   =>   CDf =  0.00637    CDp =  0.00265

 Side 1  free  transition at x/c =  0.7514   74
 Side 2 forced transition at x/c =  1.0000   71

   3   rms: 0.5329E-03   max: -.8417E-02   D at   74  1
       a =  1.500      CL =  0.3006
      Cm = -0.0274     CD =  0.00903   =>   CDf =  0.00637    CDp =  0.00266

 Side 1  free  transition at x/c =  0.7515   74
 Side 2 forced transition at x/c =  1.0000   71

   4   rms: 0.5197E-05   max: 0.6911E-04   D at   80  1
       a =  1.500      CL =  0.3006
      Cm = -0.0274     CD =  0.00903   =>   CDf =  0.00637    CDp =  0.00266
 plradd ia,ip,cpol           12           0  7.50574889E-03

 Point added to stored polar  1
 Point written to save file  naca63206_Re150k.base.pol                       
 Dump file unspecified or not available
 Calculating wake trajectory ...
 Calculating source influence matrix ...

 Solving BL system ...

 Side 1  free  transition at x/c =  0.7515   74
 Side 2 forced transition at x/c =  1.0000   71

   1   rms: 0.8942E-01   max: -.1557E+00   C at   71  2
       a =  2.000      CL =  0.3540
      Cm = -0.0269     CD =  0.00962   =>   CDf =  0.00628    CDp =  0.00334

 Side 1  free  transition at x/c =  0.7272   72
 Side 2 forced transition at x/c =  1.0000   70

   2   rms: 0.2700E-01   max: -.3286E+00   D at    2  1
       a =  2.000      CL =  0.3544
      Cm = -0.0271     CD =  0.00938   =>   CDf =  0.00616    CDp =  0.00321

 Side 1  free  transition at x/c =  0.7251   72
 Side 2 forced transition at x/c =  1.0000   70

   3   rms: 0.9726E-02   max: -.1081E+00   D at    6  1
       a =  2.000      CL =  0.3544
      Cm = -0.0271     CD =  0.00938   =>   CDf =  0.00617    CDp =  0.00321

 Side 1  free  transition at x/c =  0.7251   72
 Side 2 forced transition at x/c =  1.0000   70

   4   rms: 0.2296E-03   max: -.3333E-02   D at    7  1
       a =  2.000      CL =  0.3544
      Cm = -0.0271     CD =  0.00938   =>   CDf =  0.00618    CDp =  0.00321

 Side 1  free  transition at x/c =  0.7250   72
 Side 2 forced transition at x/c =  1.0000   70

   5   rms: 0.6396E-06   max: -.4121E-05   D at   74  1
       a =  2.000      CL =  0.3544
      Cm = -0.0271     CD =  0.00938   =>   CDf =  0.00618    CDp =  0.00320
 plradd ia,ip,cpol           13           0  2.95690866E-03

 Point added to stored polar  1
 Point written to save file  naca63206_Re150k.base.pol                       
 Dump file unspecified or not available
 Calculating wake trajectory ...
 Calculating source influence matrix ...

 Solving BL system ...

 Side 1  free  transition at x/c =  0.7250   72
 Side 2 forced transition at x/c =  1.0000   70

   1   rms: 0.8932E-01   max: -.1511E+00   C at   70  2
       a =  2.500      CL =  0.4072
      Cm = -0.0263     CD =  0.00974   =>   CDf =  0.00618    CDp =  0.00356

 Side 1  free  transition at x/c =  0.6390   64
 Side 2 forced transition at x/c =  1.0000   70

   2   rms: 0.1366E+00   max: -.1447E+01   T at   64  1   RLX: 0.346
       a =  2.500      CL =  0.3975
      Cm = -0.0228     CD =  0.01679   =>   CDf =  0.00606    CDp =  0.01073

 Side 1  free  transition at x/c =  0.6478   65
 Side 2 forced transition at x/c =  1.0000   70

   3   rms: 0.1279E+00   max: -.1926E+01   T at   65  1   RLX: 0.260
       a =  2.500      CL =  0.3948
      Cm = -0.0226     CD =  0.01653   =>   CDf =  0.00627    CDp =  0.01027

 Side 1  free  transition at x/c =  0.6544   66
 Side 2 forced transition at x/c =  1.0000   70

   4   rms: 0.8027E-01   max: -.6721E+00   D at   71  1   RLX: 0.744
       a =  2.500      CL =  0.3955
      Cm = -0.0236     CD =  0.01354   =>   CDf =  0.00643    CDp =  0.00710

 Side 1  free  transition at x/c =  0.6618   67
 Side 2 forced transition at x/c =  1.0000   70

   5   rms: 0.2073E-01   max: -.4017E+00   D at   71  1
       a =  2.500      CL =  0.3974
      Cm = -0.0242     CD =  0.01258   =>   CDf =  0.00668    CDp =  0.00591

 Side 1  free  transition at x/c =  0.6602   67
 Side 2 forced transition at x/c =  1.0000   70

   6   rms: 0.6899E-02   max: -.1349E+00   D at   71  1
       a =  2.500      CL =  0.3976
      Cm = -0.0243     CD =  0.01259   =>   CDf =  0.00672    CDp =  0.00588

 Side 1  free  transition at x/c =  0.6595   67
 Side 2 forced transition at x/c =  1.0000   70

   7   rms: 0.6848E-03   max: -.1372E-01   D at   71  1
       a =  2.500      CL =  0.3977
      Cm = -0.0243     CD =  0.01260   =>   CDf =  0.00673    CDp =  0.00587

 Side 1  free  transition at x/c =  0.6595   67
 Side 2 forced transition at x/c =  1.0000   70

   8   rms: 0.7386E-05   max: -.1168E-03   D at   71  1
       a =  2.500      CL =  0.3977
      Cm = -0.0243     CD =  0.01260   =>   CDf =  0.00673    CDp =  0.00587
 plradd ia,ip,cpol           14           0  2.95690866E-03

 Point added to stored polar  1
 Point written to save file  naca63206_Re150k.base.pol                       
 Dump file unspecified or not available
 Calculating wake trajectory ...
 Calculating source influence matrix ...

 Solving BL system ...

 Side 1  free  transition at x/c =  0.6595   67
 Side 2 forced transition at x/c =  1.0000   70

   1   rms: 0.3655E+00   max: 0.4385E+01   T at   67  1   RLX: 0.342
       a =  3.000      CL =  0.4084
      Cm = -0.0234     CD =  0.01544   =>   CDf =  0.00673    CDp =  0.00872

 MRCHDU: Convergence failed at  69  side 1    Res =  0.1462E+01
 Side 1  free  transition at x/c =  0.6197   60
 Side 2 forced transition at x/c =  1.0000   70

   2   rms: 0.3616E+00   max: 0.6122E+01   T at   60  1   RLX: 0.171
       a =  3.000      CL =  0.4161
      Cm = -0.0244     CD =  0.01625   =>   CDf =  0.00642    CDp =  0.00983

 Side 1  free  transition at x/c =  0.6062   57
 Side 2 forced transition at x/c =  1.0000   70

   3   rms: 0.2453E+00   max: 0.3643E+01   T at   57  1   RLX: 0.409
       a =  3.000      CL =  0.4200
      Cm = -0.0225     CD =  0.01815   =>   CDf =  0.00636    CDp =  0.01178

 Side 1  free  transition at x/c =  0.6002   54
 Side 2 forced transition at x/c =  1.0000   70

   4   rms: 0.3307E+00   max: -.2540E+01   C at   54  1   RLX: 0.197
       a =  3.000      CL =  0.4284
      Cm = -0.0233     CD =  0.01530   =>   CDf =  0.00642    CDp =  0.00889

 Side 1  free  transition at x/c =  0.5959   52
 Side 2 forced transition at x/c =  1.0000   70

   5   rms: 0.3297E+00   max: 0.2733E+01   C at   52  1   RLX: 0.549
       a =  3.000      CL =  0.4261
      Cm = -0.0217     CD =  0.01801   =>   CDf =  0.00630    CDp =  0.01171

 MRCHDU: Convergence failed at  67  side 1    Res =  0.6176E+01
 MRCHDU: Convergence failed at  68  side 1    Res =  0.2575E+01
 MRCHDU: Convergence failed at  69  side 1    Res =  0.9301E+01
 Side 1  free  transition at x/c =  0.6064   57
 Side 2 forced transition at x/c =  1.0000   70

   6   rms: 0.5747E+00   max: 0.4358E+01   C at   57  1   RLX: 0.344
       a =  3.000      CL =  0.4352
      Cm = -0.0245     CD =  0.01337   =>   CDf =  0.00649    CDp =  0.00688

 MRCHDU: Convergence failed at  64  side 1    Res =  0.2823E+01
 MRCHDU: Convergence failed at  65  side 1    Res =  0.2762E+01
 MRCHDU: Convergence failed at  66  side 1    Res =  0.7696E+01
 MRCHDU: Convergence failed at  67  side 1    Res =  0.3025E+01
 MRCHDU: Convergence failed at  68  side 1    Res =  0.2329E+01
 MRCHDU: Convergence failed at  69  side 1    Res =  0.2762E+01
 Side 1  free  transition at x/c =  0.6146   59
 Side 2 forced transition at x/c =  1.0000   70

   7   rms: 0.3890E+00   max: 0.1927E+01   D at   62  1   RLX: 0.778
       a =  3.000      CL =  0.4405
      Cm = -0.0235     CD =  0.01517   =>   CDf =  0.00685    CDp =  0.00832

 MRCHDU: Convergence failed at  63  side 1    Res =  0.3998E+01
 MRCHDU: Convergence failed at  64  side 1    Res =  0.2151E+01
 MRCHDU: Convergence failed at  65  side 1    Res =  0.3048E+01
 MRCHDU: Convergence failed at  66  side 1    Res =  0.1718E+02
 MRCHDU: Convergence failed at  67  side 1    Res =  0.3931E+01
 MRCHDU: Convergence failed at  68  side 1    Res =  0.1669E+01
 MRCHDU: Convergence failed at  69  side 1    Res =  0.3081E+01
 Side 1  free  transition at x/c =  0.6002   54
 Side 2 forced transition at x/c =  1.0000   70

   8   rms: 0.2071E+00   max: -.1750E+01   C at   54  1   RLX: 0.286
       a =  3.000      CL =  0.4562
      Cm = -0.0284     CD =  0.01300   =>   CDf =  0.00671    CDp =  0.00629

 Side 1  free  transition at x/c =  0.5909   50
 Side 2 forced transition at x/c =  1.0000   70

   9   rms: 0.8852E+00   max: 0.7652E+01   C at   50  1   RLX: 0.196
       a =  3.000      CL =  0.4535
      Cm = -0.0280     CD =  0.01279   =>   CDf =  0.00629    CDp =  0.00650

 Side 1  free  transition at x/c =  0.6002   54
 Side 2 forced transition at x/c =  1.0000   70

  10   rms: 0.2137E+00   max: 0.2117E+01   D at   53  1   RLX: 0.709
       a =  3.000      CL =  0.4411
      Cm = -0.0232     CD =  0.01696   =>   CDf =  0.00658    CDp =  0.01038

 MRCHDU: Convergence failed at  64  side 1    Res =  0.2546E+02
 MRCHDU: Convergence failed at  65  side 1    Res =  0.2140E+01
 MRCHDU: Convergence failed at  66  side 1    Res =  0.3446E+01
 MRCHDU: Convergence failed at  67  side 1    Res =  0.9616E+01
 MRCHDU: Convergence failed at  68  side 1    Res =  0.2132E+01
 MRCHDU: Convergence failed at  69  side 1    Res =  0.7776E+01
 Side 1  free  transition at x/c =  0.6013   55
 Side 2 forced transition at x/c =  1.0000   70

  11   rms: 0.1271E+01   max: -.1045E+02   C at   55  1   RLX: 0.048
       a =  3.000      CL =  0.4622
      Cm = -0.0310     CD =  0.01177   =>   CDf =  0.00693    CDp =  0.00485

 Side 1  free  transition at x/c =  0.6001   54
 Side 2 forced transition at x/c =  1.0000   70

  12   rms: 0.2117E+00   max: 0.1612E+01   D at   54  1   RLX: 0.931
       a =  3.000      CL =  0.4390
      Cm = -0.0221     CD =  0.01594   =>   CDf =  0.00693    CDp =  0.00901

 MRCHDU: Convergence failed at  65  side 1    Res =  0.1170E+02
 MRCHDU: Convergence failed at  66  side 1    Res =  0.2556E+01
 MRCHDU: Convergence failed at  67  side 1    Res =  0.2311E+02
 MRCHDU: Convergence failed at  68  side 1    Res =  0.4395E+01
 MRCHDU: Convergence failed at  69  side 1    Res =  0.5770E+01
 Side 1  free  transition at x/c =  0.5749   47
 Side 2 forced transition at x/c =  1.0000   70

  13   rms: 0.3306E+00   max: 0.2245E+01   C at   47  1   RLX: 0.668
       a =  3.000      CL =  0.4470
      Cm = -0.0245     CD =  0.01243   =>   CDf =  0.00613    CDp =  0.00630

 Side 1  free  transition at x/c =  0.5662   46
 Side 2 forced transition at x/c =  1.0000   70

  14   rms: 0.6869E-01   max: 0.4827E+00   C at   46  1
       a =  3.000      CL =  0.4453
      Cm = -0.0221     CD =  0.01266   =>   CDf =  0.00639    CDp =  0.00626

 Side 1  free  transition at x/c =  0.5585   46
 Side 2 forced transition at x/c =  1.0000   70

  15   rms: 0.7201E-02   max: -.5804E-01   D at   52  1
       a =  3.000      CL =  0.4456
      Cm = -0.0220     CD =  0.01235   =>   CDf =  0.00644    CDp =  0.00591

 Side 1  free  transition at x/c =  0.5588   46
 Side 2 forced transition at x/c =  1.0000   70

  16   rms: 0.3157E-03   max: -.2540E-02   D at   49  1
       a =  3.000      CL =  0.4456
      Cm = -0.0220     CD =  0.01235   =>   CDf =  0.00643    CDp =  0.00592

 Side 1  free  transition at x/c =  0.5587   46
 Side 2 forced transition at x/c =  1.0000   70

  17   rms: 0.5689E-05   max: -.4607E-04   D at   49  1
       a =  3.000      CL =  0.4456
      Cm = -0.0220     CD =  0.01235   =>   CDf =  0.00643    CDp =  0.00592
 plradd ia,ip,cpol           15           0  9.75879957E-04

 Point added to stored polar  1
 Point written to save file  naca63206_Re150k.base.pol                       
 Dump file unspecified or not available
 Calculating wake trajectory ...
 Calculating source influence matrix ...

 Solving BL system ...

 Side 1  free  transition at x/c =  0.5587   46
 Side 2 forced transition at x/c =  1.0000   70

   1   rms: 0.5933E+00   max: -.4315E+01   D at   49  1   RLX: 0.116
       a =  3.500      CL =  0.4521
      Cm = -0.0216     CD =  0.01173   =>   CDf =  0.00643    CDp =  0.00529

 Side 1  free  transition at x/c =  0.5498   45
 Side 2 forced transition at x/c =  1.0000   70

   2   rms: 0.5508E+00   max: -.3562E+01   D at   50  1   RLX: 0.140
       a =  3.500      CL =  0.4620
      Cm = -0.0226     CD =  0.01180   =>   CDf =  0.00655    CDp =  0.00526

 Side 1  free  transition at x/c =  0.5303   44
 Side 2 forced transition at x/c =  1.0000   70

   3   rms: 0.4373E+00   max: 0.3498E+01   T at   44  1   RLX: 0.291
       a =  3.500      CL =  0.4730
      Cm = -0.0230     CD =  0.01281   =>   CDf =  0.00667    CDp =  0.00614

 MRCHDU: Convergence failed at  44  side 1    Res =  0.1161E+01
 MRCHDU: Convergence failed at  52  side 1    Res =  0.4249E+01
 MRCHDU: Convergence failed at  53  side 1    Res =  0.1497E+02
 MRCHDU: Convergence failed at  54  side 1    Res =  0.7572E+01
 MRCHDU: Convergence failed at  55  side 1    Res =  0.2342E+01
 MRCHDU: Convergence failed at  56  side 1    Res =  0.2783E+01
 MRCHDU: Convergence failed at  57  side 1    Res =  0.2907E+01
 MRCHDU: Convergence failed at  58  side 1    Res =  0.2764E+01
 MRCHDU: Convergence failed at  59  side 1    Res =  0.2467E+01
 MRCHDU: Convergence failed at  60  side 1    Res =  0.2193E+01
 MRCHDU: Convergence failed at  61  side 1    Res =  0.1950E+01
 MRCHDU: Convergence failed at  62  side 1    Res =  0.3211E+01
 MRCHDU: Convergence failed at  63  side 1    Res =  0.7362E+01
 MRCHDU: Convergence failed at  64  side 1    Res =  0.1485E+02
 MRCHDU: Convergence failed at  65  side 1    Res =  0.3398E+01
 MRCHDU: Convergence failed at  66  side 1    Res =  0.3013E+01
 MRCHDU: Convergence failed at  67  side 1    Res =  0.1123E+02
 MRCHDU: Convergence failed at  68  side 1    Res =  0.7562E+01
 MRCHDU: Convergence failed at  69  side 1    Res =  0.1928E+01
 Side 1  free  transition at x/c =  0.2372   23
 Side 2 forced transition at x/c =  1.0000   70

   4   rms: 0.1355E+01   max: 0.2321E+02   C at   23  1   RLX: 0.065
       a =  3.500      CL =  0.5236
      Cm = -0.0424     CD =  0.01279   =>   CDf =  0.00723    CDp =  0.00556

 Side 1  free  transition at x/c =  0.1679   19
 Side 2 forced transition at x/c =  1.0000   70

   5   rms: 0.1416E+01   max: 0.2604E+02   C at   19  1   RLX: 0.058
       a =  3.500      CL =  0.5168
      Cm = -0.0402     CD =  0.01322   =>   CDf =  0.00816    CDp =  0.00507

 Side 1  free  transition at x/c =  0.1274   16
 Side 2 forced transition at x/c =  1.0000   70

   6   rms: 0.1111E+01   max: 0.2065E+02   C at   16  1   RLX: 0.073
       a =  3.500      CL =  0.5122
      Cm = -0.0385     CD =  0.01356   =>   CDf =  0.00840    CDp =  0.00517

 Side 1  free  transition at x/c =  0.0997   14
 Side 2 forced transition at x/c =  1.0000   70

   7   rms: 0.4657E+00   max: 0.4314E+01   C at   14  1   RLX: 0.348
       a =  3.500      CL =  0.5010
      Cm = -0.0314     CD =  0.01442   =>   CDf =  0.00862    CDp =  0.00580

 Side 1  free  transition at x/c =  0.0668   12
 Side 2 forced transition at x/c =  1.0000   70

   8   rms: 0.1944E+00   max: -.1050E+01   D at   14  1   RLX: 0.476
       a =  3.500      CL =  0.4944
      Cm = -0.0272     CD =  0.01490   =>   CDf =  0.00870    CDp =  0.00620

 Side 1  free  transition at x/c =  0.0624   12
 Side 2 forced transition at x/c =  1.0000   70

   9   rms: 0.9993E-01   max: -.8740E+00   D at   13  1   RLX: 0.572
       a =  3.500      CL =  0.4923
      Cm = -0.0234     CD =  0.01473   =>   CDf =  0.00835    CDp =  0.00638

 Side 1  free  transition at x/c =  0.0603   12
 Side 2 forced transition at x/c =  1.0000   69

  10   rms: 0.5105E-01   max: -.6094E+00   T at    2  1   RLX: 0.820
       a =  3.500      CL =  0.4878
      Cm = -0.0202     CD =  0.01481   =>   CDf =  0.00851    CDp =  0.00630

 Side 1  free  transition at x/c =  0.0584   12
 Side 2 forced transition at x/c =  1.0000   69

  11   rms: 0.1088E-01   max: -.1337E+00   D at   14  1
       a =  3.500      CL =  0.4857
      Cm = -0.0194     CD =  0.01484   =>   CDf =  0.00852    CDp =  0.00632

 Side 1  free  transition at x/c =  0.0585   12
 Side 2 forced transition at x/c =  1.0000   69

  12   rms: 0.5295E-03   max: -.6736E-02   D at   14  1
       a =  3.500      CL =  0.4857
      Cm = -0.0194     CD =  0.01483   =>   CDf =  0.00851    CDp =  0.00632

 Side 1  free  transition at x/c =  0.0585   12
 Side 2 forced transition at x/c =  1.0000   69

  13   rms: 0.3192E-05   max: -.1352E-04   D at   14  1
       a =  3.500      CL =  0.4857
      Cm = -0.0194     CD =  0.01483   =>   CDf =  0.00851    CDp =  0.00632
 plradd ia,ip,cpol           16           0  1.15756025E-04

 Point added to stored polar  1
 Point written to save file  naca63206_Re150k.base.pol                       
 Dump file unspecified or not available
 Calculating wake trajectory ...
 Calculating source influence matrix ...

 Solving BL system ...

 Side 1  free  transition at x/c =  0.0585   12
 Side 2 forced transition at x/c =  1.0000   69

   1   rms: 0.1233E+00   max: 0.9149E+00   T at   12  1
       a =  4.000      CL =  0.5364
      Cm = -0.0178     CD =  0.01656   =>   CDf =  0.00851    CDp =  0.00805

 Side 1  free  transition at x/c =  0.0476   12
 Side 2 forced transition at x/c =  1.0000   69

   2   rms: 0.5314E-01   max: -.2562E+00   D at   55  1
       a =  4.000      CL =  0.5322
      Cm = -0.0176     CD =  0.01746   =>   CDf =  0.00835    CDp =  0.00911

 Side 1  free  transition at x/c =  0.0470   12
 Side 2 forced transition at x/c =  1.0000   69

   3   rms: 0.4641E-02   max: 0.5068E-01   D at   12  1
       a =  4.000      CL =  0.5322
      Cm = -0.0176     CD =  0.01757   =>   CDf =  0.00845    CDp =  0.00912

 Side 1  free  transition at x/c =  0.0469   12
 Side 2 forced transition at x/c =  1.0000   69

   4   rms: 0.2336E-03   max: 0.1699E-02   D at   55  1
       a =  4.000      CL =  0.5322
      Cm = -0.0176     CD =  0.01757   =>   CDf =  0.00846    CDp =  0.00910

 Side 1  free  transition at x/c =  0.0469   12
 Side 2 forced transition at x/c =  1.0000   69

   5   rms: 0.4439E-05   max: 0.1913E-04   D at   52  1
       a =  4.000      CL =  0.5322
      Cm = -0.0176     CD =  0.01757   =>   CDf =  0.00846    CDp =  0.00910
 plradd ia,ip,cpol           17           0  1.15756025E-04

 Point added to stored polar  1
 Point written to save file  naca63206_Re150k.base.pol                       
 Dump file unspecified or not available
 Calculating wake trajectory ...
 Calculating source influence matrix ...

 Solving BL system ...

 Side 1  free  transition at x/c =  0.0469   12
 Side 2 forced transition at x/c =  1.0000   69

   1   rms: 0.1884E+00   max: 0.6199E+00   T at   63  1
       a =  4.500      CL =  0.5771
      Cm = -0.0153     CD =  0.02197   =>   CDf =  0.00847    CDp =  0.01351

 MRCHDU: Convergence failed at  64  side 1    Res =  0.3460E+01
 Side 1  free  transition at x/c =  0.0465   12
 Side 2 forced transition at x/c =  1.0000   69

   2   rms: 0.3921E-01   max: 0.2326E+00   D at   12  1
       a =  4.500      CL =  0.5825
      Cm = -0.0157     CD =  0.02195   =>   CDf =  0.00819    CDp =  0.01376

 Side 1  free  transition at x/c =  0.0457   11
 Side 2 forced transition at x/c =  1.0000   69

   3   rms: 0.4206E-01   max: 0.1664E+00   T at   11  1
       a =  4.500      CL =  0.5825
      Cm = -0.0156     CD =  0.02148   =>   CDf =  0.00818    CDp =  0.01329

 Side 1  free  transition at x/c =  0.0451   11
 Side 2 forced transition at x/c =  1.0000   69

   4   rms: 0.3882E-02   max: -.2118E-01   D at   12  1
       a =  4.500      CL =  0.5825
      Cm = -0.0156     CD =  0.02176   =>   CDf =  0.00820    CDp =  0.01356

 Side 1  free  transition at x/c =  0.0451   11
 Side 2 forced transition at x/c =  1.0000   69

   5   rms: 0.1603E-03   max: 0.7099E-03   D at   12  1
       a =  4.500      CL =  0.5826
      Cm = -0.0156     CD =  0.02176   =>   CDf =  0.00821    CDp =  0.01356

 Side 1  free  transition at x/c =  0.0451   11
 Side 2 forced transition at x/c =  1.0000   69

   6   rms: 0.3744E-05   max: -.1028E-04   T at   65  1
       a =  4.500      CL =  0.5826
      Cm = -0.0156     CD =  0.02176   =>   CDf =  0.00821    CDp =  0.01356
 plradd ia,ip,cpol           18           0  1.15756025E-04

 Point added to stored polar  1
 Point written to save file  naca63206_Re150k.base.pol                       
 Dump file unspecified or not available
 Calculating wake trajectory ...
 Calculating source influence matrix ...

 Solving BL system ...

 Side 1  free  transition at x/c =  0.0451   11
 Side 2 forced transition at x/c =  1.0000   69

   1   rms: 0.1436E+00   max: 0.2128E+01   T at   11  1   RLX: 0.373
       a =  5.000      CL =  0.6042
      Cm = -0.0150     CD =  0.02089   =>   CDf =  0.00821    CDp =  0.01268

 Side 1  free  transition at x/c =  0.0398   11
 Side 2 forced transition at x/c =  1.0000   69

   2   rms: 0.7723E-01   max: 0.2850E+00   D at   11  1
       a =  5.000      CL =  0.6370
      Cm = -0.0137     CD =  0.02559   =>   CDf =  0.00779    CDp =  0.01780

 Side 1  free  transition at x/c =  0.0404   11
 Side 2 forced transition at x/c =  1.0000   69

   3   rms: 0.3976E-01   max: 0.2588E+00   D at   11  1
       a =  5.000      CL =  0.6362
      Cm = -0.0134     CD =  0.02619   =>   CDf =  0.00756    CDp =  0.01863

 Side 1  free  transition at x/c =  0.0408   11
 Side 2 forced transition at x/c =  1.0000   69

   4   rms: 0.2953E-02   max: -.2346E-01   D at   59  1
       a =  5.000      CL =  0.6361
      Cm = -0.0134     CD =  0.02605   =>   CDf =  0.00743    CDp =  0.01862

 Side 1  free  transition at x/c =  0.0407   11
 Side 2 forced transition at x/c =  1.0000   69

   5   rms: 0.5460E-04   max: -.5205E-03   D at   61  1
       a =  5.000      CL =  0.6361
      Cm = -0.0134     CD =  0.02605   =>   CDf =  0.00742    CDp =  0.01863
 plradd ia,ip,cpol           19           0  1.15756025E-04

 Point added to stored polar  1
 Point written to save file  naca63206_Re150k.base.pol                       
 Dump file unspecified or not available
 Calculating wake trajectory ...
 Calculating source influence matrix ...

 Solving BL system ...

 Side 1  free  transition at x/c =  0.0407   11
 Side 2 forced transition at x/c =  1.0000   69

   1   rms: 0.1955E+00   max: 0.6003E+00   D at   17  1   RLX: 0.976
       a =  5.500      CL =  0.6875
      Cm = -0.0105     CD =  0.03343   =>   CDf =  0.00742    CDp =  0.02601

 TRCHEK2: N2 convergence failed.
 x:  0.08804  0.10312  0.10312  N:  8.743  9.000  9.081  Nx:  22.353   dN: 0.808E-01
 TRCHEK2: N2 convergence failed.
 x:  0.08804  0.10183  0.10312  N:  8.743  9.000  9.009  Nx:  22.457   dN:-0.281E+00
 TRCHEK2: N2 convergence failed.
 x:  0.08804  0.10189  0.10312  N:  8.743  9.000  9.038  Nx:  21.801   dN: 0.106E+00
 TRCHEK2: N2 convergence failed.
 x:  0.08804  0.10185  0.10312  N:  8.743  9.000  9.008  Nx:  22.433   dN:-0.168E+00
 TRCHEK2: N2 convergence failed.
 x:  0.08804  0.10193  0.10312  N:  8.743  9.000  9.037  Nx:  21.663   dN: 0.474E-01
 TRCHEK2: N2 convergence failed.
 x:  0.08804  0.10189  0.10312  N:  8.743  9.000  9.038  Nx:  21.862   dN: 0.130E+00
 TRCHEK2: N2 convergence failed.
 x:  0.08804  0.10186  0.10312  N:  8.743  9.000  9.008  Nx:  22.586   dN:-0.297E+00
 TRCHEK2: N2 convergence failed.
 x:  0.08804  0.10192  0.10312  N:  8.743  9.000  9.037  Nx:  21.715   dN: 0.636E-01
 TRCHEK2: N2 convergence failed.
 x:  0.08804  0.10186  0.10312  N:  8.743  9.000  9.008  Nx:  22.288   dN:-0.651E+00
 TRCHEK2: N2 convergence failed.
 x:  0.08804  0.10193  0.10312  N:  8.743  9.000  9.037  Nx:  21.660   dN: 0.474E-01
 TRCHEK2: N2 convergence failed.
 x:  0.08804  0.10187  0.10312  N:  8.743  9.000  9.039  Nx:  22.067   dN: 0.691E+00
 TRCHEK2: N2 convergence failed.
 x:  0.08804  0.10184  0.10312  N:  8.743  9.000  9.009  Nx:  22.792   dN:-0.311E+00
 TRCHEK2: N2 convergence failed.
 x:  0.08804  0.10191  0.10312  N:  8.743  9.000  9.038  Nx:  21.818   dN: 0.105E+00
 TRCHEK2: N2 convergence failed.
 x:  0.08804  0.10185  0.10312  N:  8.743  9.000  9.008  Nx:  22.741   dN:-0.183E+00
 TRCHEK2: N2 convergence failed.
 x:  0.08804  0.10192  0.10312  N:  8.743  9.000  9.037  Nx:  21.699   dN: 0.588E-01
 TRCHEK2: N2 convergence failed.
 x:  0.08804  0.10187  0.10312  N:  8.743  9.000  9.008  Nx:  22.196   dN:-0.482E+01
 TRCHEK2: N2 convergence failed.
 x:  0.08804  0.10188  0.10312  N:  8.743  9.000  9.038  Nx:  22.030   dN: 0.715E+00
 TRCHEK2: N2 convergence failed.
 x:  0.08804  0.10183  0.10312  N:  8.743  9.000  9.009  Nx:  22.905   dN:-0.175E+00
 TRCHEK2: N2 convergence failed.
 x:  0.08804  0.10192  0.10312  N:  8.743  9.000  9.037  Nx:  21.719   dN: 0.649E-01
 TRCHEK2: N2 convergence failed.
 x:  0.08804  0.10186  0.10312  N:  8.743  9.000  9.008  Nx:  22.338   dN:-0.486E+00
 TRCHEK2: N2 convergence failed.
 x:  0.08804  0.10193  0.10312  N:  8.743  9.000  9.037  Nx:  21.664   dN: 0.743E-01
 TRCHEK2: N2 convergence failed.
 x:  0.08804  0.10187  0.10312  N:  8.743  9.000  9.039  Nx:  22.035   dN: 0.376E+00
 TRCHEK2: N2 convergence failed.
 x:  0.08804  0.10143  0.10312  N:  8.743  9.000  9.016  Nx:  24.304   dN:-0.140E+00
 MRCHDU: Convergence failed at  14  side 1    Res =  0.1760E+01
 MRCHDU: Convergence failed at  15  side 1    Res =  0.1914E+02
 MRCHDU: Convergence failed at  16  side 1    Res =  0.1010E+03
 MRCHDU: Convergence failed at  17  side 1    Res =  0.6411E+02
 MRCHDU: Convergence failed at  18  side 1    Res =  0.3970E+02
 MRCHDU: Convergence failed at  19  side 1    Res =  0.3098E+02
 MRCHDU: Convergence failed at  20  side 1    Res =  0.2584E+02
 MRCHDU: Convergence failed at  21  side 1    Res =  0.5448E+02
 MRCHDU: Convergence failed at  22  side 1    Res =  0.5935E+02
 MRCHDU: Convergence failed at  23  side 1    Res =  0.5972E+02
 MRCHDU: Convergence failed at  24  side 1    Res =  0.1108E+03
 MRCHDU: Convergence failed at  25  side 1    Res =  0.1053E+03
 MRCHDU: Convergence failed at  26  side 1    Res =  0.1029E+03
 MRCHDU: Convergence failed at  27  side 1    Res =  0.1026E+03
 MRCHDU: Convergence failed at  28  side 1    Res =  0.1174E+03
 MRCHDU: Convergence failed at  29  side 1    Res =  0.1163E+03
 MRCHDU: Convergence failed at  30  side 1    Res =  0.1136E+03
 MRCHDU: Convergence failed at  31  side 1    Res =  0.1089E+03
 MRCHDU: Convergence failed at  32  side 1    Res =  0.1100E+03
 MRCHDU: Convergence failed at  33  side 1    Res =  0.1118E+03
 MRCHDU: Convergence failed at  34  side 1    Res =  0.1149E+03
 MRCHDU: Convergence failed at  35  side 1    Res =  0.1196E+03
 MRCHDU: Convergence failed at  36  side 1    Res =  0.1209E+03
 MRCHDU: Convergence failed at  37  side 1    Res =  0.1233E+03
 MRCHDU: Convergence failed at  38  side 1    Res =  0.1252E+03
 MRCHDU: Convergence failed at  39  side 1    Res =  0.1260E+03
 MRCHDU: Convergence failed at  40  side 1    Res =  0.1276E+03
 MRCHDU: Convergence failed at  41  side 1    Res =  0.1302E+03
 MRCHDU: Convergence failed at  42  side 1    Res =  0.1709E+03
 MRCHDU: Convergence failed at  43  side 1    Res =  0.3496E+03
 MRCHDU: Convergence failed at  44  side 1    Res =  0.4310E+03
 MRCHDU: Convergence failed at  45  side 1    Res =  0.4000E+03
 MRCHDU: Convergence failed at  46  side 1    Res =  0.1618E+03
 MRCHDU: Convergence failed at  47  side 1    Res =  0.1128E+03
 MRCHDU: Convergence failed at  48  side 1    Res =  0.9131E+02
 MRCHDU: Convergence failed at  49  side 1    Res =  0.8922E+02
 MRCHDU: Convergence failed at  50  side 1    Res =  0.9134E+02
 MRCHDU: Convergence failed at  51  side 1    Res =  0.8979E+02
 MRCHDU: Convergence failed at  52  side 1    Res =  0.1229E+03
 MRCHDU: Convergence failed at  53  side 1    Res =  0.5549E+03
 MRCHDU: Convergence failed at  54  side 1    Res =  0.2762E+03
 MRCHDU: Convergence failed at  55  side 1    Res =  0.5239E+03
 MRCHDU: Convergence failed at  56  side 1    Res =  0.3472E+03
 MRCHDU: Convergence failed at  57  side 1    Res =  0.3225E+03
 MRCHDU: Convergence failed at  58  side 1    Res =  0.3164E+03
 MRCHDU: Convergence failed at  59  side 1    Res =  0.3166E+03
 MRCHDU: Convergence failed at  60  side 1    Res =  0.3199E+03
 MRCHDU: Convergence failed at  61  side 1    Res =  0.3262E+03
 MRCHDU: Convergence failed at  62  side 1    Res =  0.3356E+03
 MRCHDU: Convergence failed at  63  side 1    Res =  0.3496E+03
 MRCHDU: Convergence failed at  64  side 1    Res =  0.6754E+03
 MRCHDU: Convergence failed at  65  side 1    Res =  0.5798E+03
 MRCHDU: Convergence failed at  66  side 1    Res =  0.4874E+03
 MRCHDU: Convergence failed at  67  side 1    Res =  0.4118E+03
 MRCHDU: Convergence failed at  68  side 1    Res =  0.3271E+03
 MRCHDU: Convergence failed at  69  side 1    Res =  0.2541E+04
 MRCHDU: Convergence failed at  70  side 1    Res =  0.9313E+03
 MRCHDU: Convergence failed at  71  side 1    Res =  0.1921E+03
 MRCHDU: Convergence failed at  72  side 1    Res =  0.1757E+03
 MRCHDU: Convergence failed at  73  side 1    Res =  0.1910E+03
 MRCHDU: Convergence failed at  74  side 1    Res =  0.2314E+03
 MRCHDU: Convergence failed at  75  side 1    Res =  0.6671E+03
 MRCHDU: Convergence failed at  76  side 1    Res =  0.7649E+03
 MRCHDU: Convergence failed at  77  side 1    Res =  0.8041E+03
 MRCHDU: Convergence failed at  78  side 1    Res =  0.8147E+03
 MRCHDU: Convergence failed at  79  side 1    Res =  0.9040E+03
 MRCHDU: Convergence failed at  80  side 1    Res =  0.1090E+04
 MRCHDU: Convergence failed at  81  side 1    Res =  0.1412E+04
 MRCHDU: Convergence failed at  82  side 1    Res =  0.1977E+04
 MRCHDU: Convergence failed at  83  side 1    Res =  0.3215E+04
 MRCHDU: Convergence failed at  84  side 1    Res =  0.2082E+05
 MRCHDU: Convergence failed at  85  side 1    Res =  0.4405E+04
 MRCHDU: Convergence failed at  86  side 1    Res =  0.2377E+04
 MRCHDU: Convergence failed at  87  side 1    Res =  0.1614E+04
 MRCHDU: Convergence failed at  88  side 1    Res =  0.1238E+04
 MRCHDU: Convergence failed at  89  side 1    Res =  0.1126E+04
 MRCHDU: Convergence failed at  90  side 1    Res =  0.8605E+03
 MRCHDU: Convergence failed at  91  side 1    Res =  0.7077E+03
 MRCHDU: Convergence failed at  92  side 1    Res =  0.6167E+03
 MRCHDU: Convergence failed at  93  side 1    Res =  0.4726E+03
 Side 1  free  transition at x/c =  0.0839   14
 Side 2 forced transition at x/c =  1.0000   69

   2   rms: 0.3130E+01   max: 0.2044E+02   D at   71  2   RLX: 0.073
       a =  5.500      CL =  2.1478
      Cm = -0.5027     CD =  0.00587   =>   CDf =  0.00248    CDp =  0.00339

 Side 1  free  transition at x/c =  0.0771   14
 Side 2 forced transition at x/c =  1.0000   69

   3   rms: 0.3967E+02   max: -.7103E+03   T at   14  1   RLX: 0.001
       a =  5.500      CL =  1.8283
      Cm = -0.3938     CD =  0.08159   =>   CDf =  0.00312    CDp =  0.07847

 Side 1  free  transition at x/c =  0.0771   14
 Side 2 forced transition at x/c =  1.0000   69

   4   rms: 0.2218E+01   max: -.4044E+02   T at   14  1   RLX: 0.012
       a =  5.500      CL =  1.8348
      Cm = -0.3969     CD =  0.08484   =>   CDf =  0.00315    CDp =  0.08169

 Side 1  free  transition at x/c =  0.0776   14
 Side 2 forced transition at x/c =  1.0000   69

   5   rms: 0.1362E+01   max: -.1156E+02   T at   14  1   RLX: 0.043
       a =  5.500      CL =  1.8360
      Cm = -0.3938     CD =  0.09171   =>   CDf =  0.00321    CDp =  0.08851

 MRCHDU: Convergence failed at  14  side 1    Res =  0.2308E+00
 Side 1  free  transition at x/c =  0.5946   52
 Side 2 forced transition at x/c =  1.0000   69

   6   rms: 0.1145E+02   max: 0.2189E+03   T at   52  1   RLX: 0.004
       a =  5.500      CL =  1.8765
      Cm = -0.3863     CD =  0.04981   =>   CDf =  0.00280    CDp =  0.04701

 Side 1  free  transition at x/c =  0.6111   59
 Side 2 forced transition at x/c =  1.0000   69

   7   rms: 0.2047E+01   max: -.3413E+02   T at   59  1   RLX: 0.015
       a =  5.500      CL =  1.8580
      Cm = -0.3876     CD =  0.04959   =>   CDf =  0.00281    CDp =  0.04678

 Side 1  free  transition at x/c =  0.4133   36
 Side 2 forced transition at x/c =  1.0000   69

   8   rms: 0.1100E+01   max: -.1365E+02   T at   36  1   RLX: 0.037
       a =  5.500      CL =  1.7546
      Cm = -0.3600     CD =  0.07440   =>   CDf =  0.00300    CDp =  0.07140

 Side 1  free  transition at x/c =  0.1520   19
 Side 2 forced transition at x/c =  1.0000   69

   9   rms: 0.1189E+01   max: -.1393E+02   T at   19  1   RLX: 0.036
       a =  5.500      CL =  1.6141
      Cm = -0.3307     CD =  0.10848   =>   CDf =  0.00339    CDp =  0.10510

 Side 1  free  transition at x/c =  0.1249   17
 Side 2 forced transition at x/c =  1.0000   69

  10   rms: 0.7318E+00   max: -.6617E+01   T at   17  1   RLX: 0.076
       a =  5.500      CL =  1.5140
      Cm = -0.3058     CD =  0.11250   =>   CDf =  0.00353    CDp =  0.10897

 Side 1  free  transition at x/c =  0.1046   15
 Side 2 forced transition at x/c =  1.0000   69

  11   rms: 0.1373E+01   max: 0.1770E+02   T at   17  1   RLX: 0.079
       a =  5.500      CL =  1.4166
      Cm = -0.2721     CD =  0.12342   =>   CDf =  0.00376    CDp =  0.11966

 Side 1  free  transition at x/c =  0.0935   15
 Side 2 forced transition at x/c =  1.0000   69

  12   rms: 0.6920E+00   max: 0.6731E+01   C at   69  2   RLX: 0.223
       a =  5.500      CL =  1.3314
      Cm = -0.2418     CD =  0.12390   =>   CDf =  0.00385    CDp =  0.12005

 Side 1  free  transition at x/c =  0.0747   13
 Side 2 forced transition at x/c =  1.0000   69

  13   rms: 0.1616E+01   max: 0.1807E+02   T at   14  1   RLX: 0.082
       a =  5.500      CL =  1.2867
      Cm = -0.2267     CD =  0.15135   =>   CDf =  0.00405    CDp =  0.14730

 Side 1  free  transition at x/c =  0.0640   13
 Side 2 forced transition at x/c =  1.0000   69

  14   rms: 0.7295E+00   max: 0.8705E+01   T at   13  1   RLX: 0.172
       a =  5.500      CL =  1.2406
      Cm = -0.2070     CD =  0.13864   =>   CDf =  0.00405    CDp =  0.13460

 Side 1  free  transition at x/c =  0.0512   12
 Side 2 forced transition at x/c =  1.0000   69

  15   rms: 0.9609E+00   max: 0.1595E+02   T at   12  1   RLX: 0.094
       a =  5.500      CL =  1.1706
      Cm = -0.1784     CD =  0.13797   =>   CDf =  0.00408    CDp =  0.13389

 Side 1  free  transition at x/c =  0.0453   11
 Side 2 forced transition at x/c =  1.0000   69

  16   rms: 0.2555E+01   max: 0.1687E+02   T at   12  1   RLX: 0.071
       a =  5.500      CL =  1.2117
      Cm = -0.1721     CD =  0.14405   =>   CDf =  0.00410    CDp =  0.13995

 MRCHDU: Convergence failed at  12  side 1    Res =  0.3338E+02
 MRCHDU: Convergence failed at  13  side 1    Res =  0.2324E+02
 MRCHDU: Convergence failed at  14  side 1    Res =  0.1004E+03
 MRCHDU: Convergence failed at  15  side 1    Res =  0.1442E+03
 MRCHDU: Convergence failed at  16  side 1    Res =  0.6895E+02
 MRCHDU: Convergence failed at  17  side 1    Res =  0.1623E+03
 MRCHDU: Convergence failed at  18  side 1    Res =  0.1783E+03
 MRCHDU: Convergence failed at  19  side 1    Res =  0.1128E+03
 MRCHDU: Convergence failed at  20  side 1    Res =  0.2774E+03
 MRCHDU: Convergence failed at  21  side 1    Res =  0.1532E+04
 MRCHDU: Convergence failed at  22  side 1    Res =  0.2136E+03
 MRCHDU: Convergence failed at  23  side 1    Res =  0.1685E+03
 MRCHDU: Convergence failed at  24  side 1    Res =  0.9293E+02
 MRCHDU: Convergence failed at  25  side 1    Res =  0.1816E+03
 MRCHDU: Convergence failed at  26  side 1    Res =  0.3185E+03
 MRCHDU: Convergence failed at  27  side 1    Res =  0.1466E+05
 MRCHDU: Convergence failed at  28  side 1    Res =  0.4017E+03
 MRCHDU: Convergence failed at  29  side 1    Res =  0.1555E+03
 MRCHDU: Convergence failed at  30  side 1    Res =  0.1788E+03
 MRCHDU: Convergence failed at  31  side 1    Res =  0.9257E+02
 MRCHDU: Convergence failed at  32  side 1    Res =  0.1159E+03
 MRCHDU: Convergence failed at  33  side 1    Res =  0.1448E+03
 MRCHDU: Convergence failed at  34  side 1    Res =  0.2968E+03
 MRCHDU: Convergence failed at  35  side 1    Res =  0.7050E+03
 MRCHDU: Convergence failed at  36  side 1    Res =  0.8758E+03
 MRCHDU: Convergence failed at  37  side 1    Res =  0.1164E+03
 MRCHDU: Convergence failed at  38  side 1    Res =  0.9242E+02
 MRCHDU: Convergence failed at  39  side 1    Res =  0.9283E+02
 MRCHDU: Convergence failed at  40  side 1    Res =  0.9224E+02
 MRCHDU: Convergence failed at  41  side 1    Res =  0.9435E+02
 MRCHDU: Convergence failed at  42  side 1    Res =  0.9896E+02
 MRCHDU: Convergence failed at  43  side 1    Res =  0.9439E+02
 MRCHDU: Convergence failed at  44  side 1    Res =  0.9194E+02
 MRCHDU: Convergence failed at  45  side 1    Res =  0.1205E+03
 MRCHDU: Convergence failed at  46  side 1    Res =  0.1181E+04
 MRCHDU: Convergence failed at  47  side 1    Res =  0.4063E+03
 MRCHDU: Convergence failed at  48  side 1    Res =  0.2161E+03
 MRCHDU: Convergence failed at  49  side 1    Res =  0.1293E+03
 MRCHDU: Convergence failed at  50  side 1    Res =  0.2015E+03
 MRCHDU: Convergence failed at  51  side 1    Res =  0.6551E+03
 MRCHDU: Convergence failed at  52  side 1    Res =  0.6831E+03
 MRCHDU: Convergence failed at  53  side 1    Res =  0.4056E+03
 MRCHDU: Convergence failed at  54  side 1    Res =  0.1815E+03
 MRCHDU: Convergence failed at  55  side 1    Res =  0.9309E+02
 MRCHDU: Convergence failed at  56  side 1    Res =  0.1002E+03
 MRCHDU: Convergence failed at  57  side 1    Res =  0.1003E+03
 MRCHDU: Convergence failed at  58  side 1    Res =  0.1019E+03
 MRCHDU: Convergence failed at  59  side 1    Res =  0.1185E+03
 MRCHDU: Convergence failed at  60  side 1    Res =  0.3475E+03
 MRCHDU: Convergence failed at  61  side 1    Res =  0.1384E+03
 MRCHDU: Convergence failed at  62  side 1    Res =  0.1346E+03
 MRCHDU: Convergence failed at  63  side 1    Res =  0.9850E+02
 MRCHDU: Convergence failed at  64  side 1    Res =  0.9506E+02
 MRCHDU: Convergence failed at  65  side 1    Res =  0.9318E+02
 MRCHDU: Convergence failed at  66  side 1    Res =  0.1423E+03
 MRCHDU: Convergence failed at  67  side 1    Res =  0.1412E+03
 MRCHDU: Convergence failed at  68  side 1    Res =  0.2130E+03
 MRCHDU: Convergence failed at  69  side 1    Res =  0.1380E+03
 MRCHDU: Convergence failed at  70  side 1    Res =  0.1378E+03
 MRCHDU: Convergence failed at  71  side 1    Res =  0.2867E+03
 MRCHDU: Convergence failed at  72  side 1    Res =  0.1655E+03
 MRCHDU: Convergence failed at  73  side 1    Res =  0.1389E+03
 MRCHDU: Convergence failed at  74  side 1    Res =  0.1337E+03
 MRCHDU: Convergence failed at  75  side 1    Res =  0.9392E+02
 MRCHDU: Convergence failed at  76  side 1    Res =  0.9769E+02
 MRCHDU: Convergence failed at  77  side 1    Res =  0.1042E+03
 MRCHDU: Convergence failed at  78  side 1    Res =  0.1252E+03
 MRCHDU: Convergence failed at  79  side 1    Res =  0.1318E+03
 MRCHDU: Convergence failed at  80  side 1    Res =  0.1523E+03
 MRCHDU: Convergence failed at  81  side 1    Res =  0.2196E+03
 MRCHDU: Convergence failed at  82  side 1    Res =  0.2820E+03
 MRCHDU: Convergence failed at  83  side 1    Res =  0.4549E+03
 MRCHDU: Convergence failed at  84  side 1    Res =  0.1055E+05
 MRCHDU: Convergence failed at  85  side 1    Res =  0.1032E+04
 MRCHDU: Convergence failed at  86  side 1    Res =  0.4251E+03
 MRCHDU: Convergence failed at  87  side 1    Res =  0.7996E+03
 MRCHDU: Convergence failed at  88  side 1    Res =  0.1684E+03
 MRCHDU: Convergence failed at  89  side 1    Res =  0.1315E+03
 MRCHDU: Convergence failed at  90  side 1    Res =  0.1410E+03
 MRCHDU: Convergence failed at  91  side 1    Res =  0.1145E+03
 MRCHDU: Convergence failed at  92  side 1    Res =  0.1073E+03
 MRCHDU: Convergence failed at  93  side 1    Res =  0.1066E+03
 MRCHDU: Convergence failed at  82  side 2    Res =  0.3071E+01
 MRCHDU: Convergence failed at  83  side 2    Res =  0.5573E+01
 MRCHDU: Convergence failed at  84  side 2    Res =  0.2192E+01
 MRCHDU: Convergence failed at  85  side 2    Res =  0.1824E+01
 MRCHDU: Convergence failed at  86  side 2    Res =  0.1282E+01
 MRCHDU: Convergence failed at  87  side 2    Res =  0.1653E+01
 MRCHDU: Convergence failed at  88  side 2    Res =  0.1730E+01
 Side 1  free  transition at x/c =  0.0431   11
 Side 2 forced transition at x/c =  1.0000   69

  17   rms: 0.1233E+01   max: 0.5121E+01   D at   78  2   RLX: 0.132
       a =  5.500      CL =  2.4473
      Cm = -0.5609     CD =  0.01691   =>   CDf =  0.00335    CDp =  0.01356

[...]
      Cm = -0.0596     CD =  0.16794   =>   CDf =  0.00335    CDp =  0.16459
 plradd ia,ip,cpol           40           0  6.96852003E-05

 Point added to stored polar  1
 Point written to save file  naca63206_Re150k.base.pol                       
 Dump file unspecified or not available
 Calculating wake trajectory ...
 Calculating source influence matrix ...

 Solving BL system ...

 Side 1  free  transition at x/c =  0.0316   11
 Side 2 forced transition at x/c =  1.0000   68

   1   rms: 0.1445E-01   max: -.9681E-01   C at   68  2   RLX: 0.499
       a = 13.250      CL =  0.6806
      Cm = -0.0605     CD =  0.17016   =>   CDf =  0.00335    CDp =  0.16681

 Side 1  free  transition at x/c =  0.0315   11
 Side 2 forced transition at x/c =  1.0000   68

   2   rms: 0.8421E-02   max: -.4756E-01   C at   68  2
       a = 13.250      CL =  0.6817
      Cm = -0.0615     CD =  0.17189   =>   CDf =  0.00335    CDp =  0.16855

 Side 1  free  transition at x/c =  0.0315   11
 Side 2 forced transition at x/c =  1.0000   68

   3   rms: 0.2442E-02   max: 0.7753E-02   D at   12  1
       a = 13.250      CL =  0.6819
      Cm = -0.0615     CD =  0.17132   =>   CDf =  0.00334    CDp =  0.16798

 Side 1  free  transition at x/c =  0.0315   11
 Side 2 forced transition at x/c =  1.0000   68

   4   rms: 0.1669E-03   max: 0.8664E-03   C at   68  2
       a = 13.250      CL =  0.6820
      Cm = -0.0615     CD =  0.17112   =>   CDf =  0.00335    CDp =  0.16777

 Side 1  free  transition at x/c =  0.0315   11
 Side 2 forced transition at x/c =  1.0000   68

   5   rms: 0.1750E-04   max: 0.1053E-03   C at   68  2
       a = 13.250      CL =  0.6820
      Cm = -0.0615     CD =  0.17111   =>   CDf =  0.00335    CDp =  0.16776
 plradd ia,ip,cpol           41           0  6.96852003E-05

 Point added to stored polar  1
 Point written to save file  naca63206_Re150k.base.pol                       
 Dump file unspecified or not available
 Calculating wake trajectory ...
 Calculating source influence matrix ...

 Solving BL system ...

 Side 1  free  transition at x/c =  0.0315   11
 Side 2 forced transition at x/c =  1.0000   68

   1   rms: 0.1455E-01   max: -.9576E-01   C at   68  2   RLX: 0.486
       a = 13.500      CL =  0.6822
      Cm = -0.0624     CD =  0.17330   =>   CDf =  0.00334    CDp =  0.16996

 Side 1  free  transition at x/c =  0.0315   11
 Side 2 forced transition at x/c =  1.0000   68

   2   rms: 0.9122E-02   max: -.4442E-01   C at   68  2
       a = 13.500      CL =  0.6834
      Cm = -0.0634     CD =  0.17511   =>   CDf =  0.00334    CDp =  0.17177

 Side 1  free  transition at x/c =  0.0314   11
 Side 2 forced transition at x/c =  1.0000   68

   3   rms: 0.4063E-02   max: 0.1368E-01   D at   12  1
       a = 13.500      CL =  0.6836
      Cm = -0.0634     CD =  0.17454   =>   CDf =  0.00334    CDp =  0.17120

 Side 1  free  transition at x/c =  0.0314   11
 Side 2 forced transition at x/c =  1.0000   68

   4   rms: 0.2789E-03   max: 0.1565E-02   C at   68  2
       a = 13.500      CL =  0.6836
      Cm = -0.0634     CD =  0.17420   =>   CDf =  0.00334    CDp =  0.17086

 Side 1  free  transition at x/c =  0.0314   11
 Side 2 forced transition at x/c =  1.0000   68

   5   rms: 0.2625E-04   max: 0.2064E-03   C at   68  2
       a = 13.500      CL =  0.6836
      Cm = -0.0634     CD =  0.17419   =>   CDf =  0.00334    CDp =  0.17084
 plradd ia,ip,cpol           42           0  6.96852003E-05

 Point added to stored polar  1
 Point written to save file  naca63206_Re150k.base.pol                       
 Dump file unspecified or not available
 Calculating wake trajectory ...
 Calculating source influence matrix ...

 Solving BL system ...

 Side 1  free  transition at x/c =  0.0314   11
 Side 2 forced transition at x/c =  1.0000   68

   1   rms: 0.1477E-01   max: -.9232E-01   C at   68  2   RLX: 0.475
       a = 13.750      CL =  0.6841
      Cm = -0.0643     CD =  0.17619   =>   CDf =  0.00334    CDp =  0.17285

 Side 1  free  transition at x/c =  0.0314   11
 Side 2 forced transition at x/c =  1.0000   68

   2   rms: 0.9470E-02   max: -.4697E-01   C at   68  2
       a = 13.750      CL =  0.6856
      Cm = -0.0654     CD =  0.17810   =>   CDf =  0.00334    CDp =  0.17476

 Side 1  free  transition at x/c =  0.0313   11
 Side 2 forced transition at x/c =  1.0000   68

   3   rms: 0.6793E-02   max: 0.2039E-01   D at   13  1
       a = 13.750      CL =  0.6851
      Cm = -0.0655     CD =  0.17772   =>   CDf =  0.00333    CDp =  0.17439

 Side 1  free  transition at x/c =  0.0313   11
 Side 2 forced transition at x/c =  1.0000   68

   4   rms: 0.4445E-03   max: 0.2992E-02   C at   68  2
       a = 13.750      CL =  0.6852
      Cm = -0.0655     CD =  0.17718   =>   CDf =  0.00333    CDp =  0.17384

 Side 1  free  transition at x/c =  0.0313   11
 Side 2 forced transition at x/c =  1.0000   68

   5   rms: 0.3947E-04   max: 0.2913E-03   C at   68  2
       a = 13.750      CL =  0.6852
      Cm = -0.0655     CD =  0.17715   =>   CDf =  0.00334    CDp =  0.17382
 plradd ia,ip,cpol           43           0  6.96852003E-05

 Point added to stored polar  1
 Point written to save file  naca63206_Re150k.base.pol                       
 Dump file unspecified or not available
 Calculating wake trajectory ...
 Calculating source influence matrix ...

 Solving BL system ...

 Side 1  free  transition at x/c =  0.0313   11
 Side 2 forced transition at x/c =  1.0000   68

   1   rms: 0.1579E-01   max: -.8311E-01   C at   68  2   RLX: 0.463
       a = 14.000      CL =  0.6854
      Cm = -0.0665     CD =  0.17894   =>   CDf =  0.00333    CDp =  0.17561

 Side 1  free  transition at x/c =  0.0313   11
 Side 2 forced transition at x/c =  1.0000   68

   2   rms: 0.9587E-02   max: -.4145E-01   C at   68  2
       a = 14.000      CL =  0.6865
      Cm = -0.0676     CD =  0.18075   =>   CDf =  0.00333    CDp =  0.17742

 Side 1  free  transition at x/c =  0.0312   11
 Side 2 forced transition at x/c =  1.0000   68

   3   rms: 0.4297E-02   max: 0.1647E-01   D at   12  1
       a = 14.000      CL =  0.6866
      Cm = -0.0676     CD =  0.18025   =>   CDf =  0.00333    CDp =  0.17692

 Side 1  free  transition at x/c =  0.0312   11
 Side 2 forced transition at x/c =  1.0000   68

   4   rms: 0.3315E-03   max: 0.1337E-02   D at   85  2
       a = 14.000      CL =  0.6865
      Cm = -0.0676     CD =  0.17988   =>   CDf =  0.00333    CDp =  0.17655

 Side 1  free  transition at x/c =  0.0312   11
 Side 2 forced transition at x/c =  1.0000   68

   5   rms: 0.2192E-04   max: 0.1483E-03   C at   68  2
       a = 14.000      CL =  0.6865
      Cm = -0.0676     CD =  0.17987   =>   CDf =  0.00333    CDp =  0.17653
 plradd ia,ip,cpol           44           0  6.96852003E-05

 Point added to stored polar  1
 Point written to save file  naca63206_Re150k.base.pol                       
 Dump file unspecified or not available
 Calculating wake trajectory ...
 Calculating source influence matrix ...

 Solving BL system ...

 Side 1  free  transition at x/c =  0.0312   11
 Side 2 forced transition at x/c =  1.0000   68

   1   rms: 0.1885E-01   max: -.8866E-01   C at   68  2   RLX: 0.452
       a = 14.250      CL =  0.6866
      Cm = -0.0686     CD =  0.18159   =>   CDf =  0.00333    CDp =  0.17826

 Side 1  free  transition at x/c =  0.0311   11
 Side 2 forced transition at x/c =  1.0000   68

   2   rms: 0.1236E-01   max: -.5086E-01   C at   68  2
       a = 14.250      CL =  0.6870
      Cm = -0.0699     CD =  0.18336   =>   CDf =  0.00333    CDp =  0.18003

 Side 1  free  transition at x/c =  0.0310   11
 Side 2 forced transition at x/c =  1.0000   68

   3   rms: 0.6459E-02   max: 0.2516E-01   D at   12  1
       a = 14.250      CL =  0.6867
      Cm = -0.0700     CD =  0.18279   =>   CDf =  0.00333    CDp =  0.17946

 Side 1  free  transition at x/c =  0.0310   11
 Side 2 forced transition at x/c =  1.0000   68

   4   rms: 0.4710E-03   max: 0.2164E-02   C at   68  2
       a = 14.250      CL =  0.6867
      Cm = -0.0700     CD =  0.18224   =>   CDf =  0.00333    CDp =  0.17892

 Side 1  free  transition at x/c =  0.0310   11
 Side 2 forced transition at x/c =  1.0000   68

   5   rms: 0.3933E-04   max: 0.2177E-03   C at   68  2
       a = 14.250      CL =  0.6867
      Cm = -0.0700     CD =  0.18222   =>   CDf =  0.00333    CDp =  0.17889
 plradd ia,ip,cpol           45           0  6.96852003E-05

 Point added to stored polar  1
 Point written to save file  naca63206_Re150k.base.pol                       
 Dump file unspecified or not available
 Calculating wake trajectory ...
 Calculating source influence matrix ...

 Solving BL system ...

 Side 1  free  transition at x/c =  0.0310   11
 Side 2 forced transition at x/c =  1.0000   68

   1   rms: 0.2110E-01   max: -.9641E-01   C at   68  2   RLX: 0.440
       a = 14.500      CL =  0.6861
      Cm = -0.0711     CD =  0.18364   =>   CDf =  0.00333    CDp =  0.18031

 Side 1  free  transition at x/c =  0.0309   11
 Side 2 forced transition at x/c =  1.0000   68

   2   rms: 0.1276E-01   max: -.5032E-01   C at   68  2
       a = 14.500      CL =  0.6864
      Cm = -0.0725     CD =  0.18513   =>   CDf =  0.00333    CDp =  0.18180

 Side 1  free  transition at x/c =  0.0307   11
 Side 2 forced transition at x/c =  1.0000   68

   3   rms: 0.4447E-02   max: 0.2337E-01   D at   12  1
       a = 14.500      CL =  0.6864
      Cm = -0.0725     CD =  0.18470   =>   CDf =  0.00332    CDp =  0.18138

 Side 1  free  transition at x/c =  0.0307   11
 Side 2 forced transition at x/c =  1.0000   68

   4   rms: 0.5171E-03   max: 0.1753E-02   D at   87  2
       a = 14.500      CL =  0.6863
      Cm = -0.0725     CD =  0.18432   =>   CDf =  0.00332    CDp =  0.18100

 Side 1  free  transition at x/c =  0.0307   11
 Side 2 forced transition at x/c =  1.0000   68

   5   rms: 0.3894E-04   max: 0.2526E-03   C at   68  2
       a = 14.500      CL =  0.6864
      Cm = -0.0725     CD =  0.18429   =>   CDf =  0.00333    CDp =  0.18097
 plradd ia,ip,cpol           46           0  6.96852003E-05

 Point added to stored polar  1
 Point written to save file  naca63206_Re150k.base.pol                       
 Dump file unspecified or not available
 Calculating wake trajectory ...
 Calculating source influence matrix ...

 Solving BL system ...

 Side 1  free  transition at x/c =  0.0307   11
 Side 2 forced transition at x/c =  1.0000   68

   1   rms: 0.2668E-01   max: -.1189E+00   T at   12  1   RLX: 0.430
       a = 14.750      CL =  0.6859
      Cm = -0.0736     CD =  0.18584   =>   CDf =  0.00332    CDp =  0.18252

 Side 1  free  transition at x/c =  0.0305   11
 Side 2 forced transition at x/c =  1.0000   68

   2   rms: 0.1589E-01   max: -.7704E-01   T at   12  1
       a = 14.750      CL =  0.6866
      Cm = -0.0751     CD =  0.18743   =>   CDf =  0.00332    CDp =  0.18410

 Side 1  free  transition at x/c =  0.0302   11
 Side 2 forced transition at x/c =  1.0000   68

   3   rms: 0.1649E-02   max: 0.1214E-01   D at   12  1
       a = 14.750      CL =  0.6866
      Cm = -0.0751     CD =  0.18651   =>   CDf =  0.00332    CDp =  0.18319

 Side 1  free  transition at x/c =  0.0302   11
 Side 2 forced transition at x/c =  1.0000   68

   4   rms: 0.2502E-03   max: 0.1072E-02   D at   88  2
       a = 14.750      CL =  0.6865
      Cm = -0.0751     CD =  0.18637   =>   CDf =  0.00332    CDp =  0.18304

 Side 1  free  transition at x/c =  0.0302   11
 Side 2 forced transition at x/c =  1.0000   68

   5   rms: 0.9213E-05   max: 0.1114E-03   D at   88  2
       a = 14.750      CL =  0.6865
      Cm = -0.0751     CD =  0.18635   =>   CDf =  0.00332    CDp =  0.18302
 plradd ia,ip,cpol           47           0  6.96852003E-05

 Point added to stored polar  1
 Point written to save file  naca63206_Re150k.base.pol                       
 Dump file unspecified or not available
 Calculating wake trajectory ...
 Calculating source influence matrix ...

 Solving BL system ...

 Side 1  free  transition at x/c =  0.0302   11
 Side 2 forced transition at x/c =  1.0000   68

   1   rms: 0.2908E-01   max: -.1845E+00   T at   12  1   RLX: 0.421
       a = 15.000      CL =  0.6867
      Cm = -0.0761     CD =  0.18801   =>   CDf =  0.00332    CDp =  0.18469

 Side 1  free  transition at x/c =  0.0299   11
 Side 2 forced transition at x/c =  1.0000   68

   2   rms: 0.1535E-01   max: 0.1095E+00   T at   11  1
       a = 15.000      CL =  0.6885
      Cm = -0.0775     CD =  0.18971   =>   CDf =  0.00332    CDp =  0.18638

 Side 1  free  transition at x/c =  0.0293   11
 Side 2 forced transition at x/c =  1.0000   68

   3   rms: 0.3279E-02   max: -.1790E-01   D at   12  1
       a = 15.000      CL =  0.6883
      Cm = -0.0774     CD =  0.18849   =>   CDf =  0.00332    CDp =  0.18517

 Side 1  free  transition at x/c =  0.0293   11
 Side 2 forced transition at x/c =  1.0000   68

   4   rms: 0.7503E-03   max: 0.3208E-02   T at   11  1
       a = 15.000      CL =  0.6886
      Cm = -0.0774     CD =  0.18886   =>   CDf =  0.00332    CDp =  0.18554

 Side 1  free  transition at x/c =  0.0293   11
 Side 2 forced transition at x/c =  1.0000   68

   5   rms: 0.3222E-04   max: -.2571E-03   D at   90  2
       a = 15.000      CL =  0.6886
      Cm = -0.0774     CD =  0.18893   =>   CDf =  0.00332    CDp =  0.18561
 plradd ia,ip,cpol           48           0  6.96852003E-05

 Point added to stored polar  1
 Point written to save file  naca63206_Re150k.base.pol                       
 Dump file unspecified or not available
 Calculating wake trajectory ...
 Calculating source influence matrix ...

 Solving BL system ...

 Side 1  free  transition at x/c =  0.0293   11
 Side 2 forced transition at x/c =  1.0000   68

   1   rms: 0.1798E-01   max: 0.1414E+00   T at   11  1   RLX: 0.413
       a = 15.250      CL =  0.6899
      Cm = -0.0782     CD =  0.19067   =>   CDf =  0.00332    CDp =  0.18735

 Side 1  free  transition at x/c =  0.0289   11
 Side 2 forced transition at x/c =  1.0000   68

   2   rms: 0.9294E-02   max: 0.7779E-01   T at   11  1
       a = 15.250      CL =  0.6927
      Cm = -0.0793     CD =  0.19259   =>   CDf =  0.00331    CDp =  0.18928

 Side 1  free  transition at x/c =  0.0284   11
 Side 2 forced transition at x/c =  1.0000   68

   3   rms: 0.1428E-02   max: -.8857E-02   D at   12  1
       a = 15.250      CL =  0.6922
      Cm = -0.0793     CD =  0.19176   =>   CDf =  0.00331    CDp =  0.18846

 Side 1  free  transition at x/c =  0.0285   11
 Side 2 forced transition at x/c =  1.0000   68

   4   rms: 0.3037E-03   max: 0.1160E-02   T at   11  1
       a = 15.250      CL =  0.6924
      Cm = -0.0793     CD =  0.19187   =>   CDf =  0.00331    CDp =  0.18856

 Side 1  free  transition at x/c =  0.0284   11
 Side 2 forced transition at x/c =  1.0000   68

   5   rms: 0.1555E-04   max: -.1607E-03   D at   88  2
       a = 15.250      CL =  0.6924
      Cm = -0.0793     CD =  0.19189   =>   CDf =  0.00331    CDp =  0.18859
 plradd ia,ip,cpol           49           0  6.96852003E-05

 Point added to stored polar  1
 Point written to save file  naca63206_Re150k.base.pol                       
 Dump file unspecified or not available
 Calculating wake trajectory ...
 Calculating source influence matrix ...

 Solving BL system ...

 Side 1  free  transition at x/c =  0.0284   11
 Side 2 forced transition at x/c =  1.0000   68

   1   rms: 0.1659E-01   max: 0.1802E+00   T at   11  1   RLX: 0.405
       a = 15.500      CL =  0.6938
      Cm = -0.0801     CD =  0.19381   =>   CDf =  0.00331    CDp =  0.19050

 Side 1  free  transition at x/c =  0.0279   11
 Side 2 forced transition at x/c =  1.0000   68

   2   rms: 0.8463E-02   max: 0.9553E-01   T at   11  1
       a = 15.500      CL =  0.6968
      Cm = -0.0812     CD =  0.19598   =>   CDf =  0.00330    CDp =  0.19267

 Side 1  free  transition at x/c =  0.0272   11
 Side 2 forced transition at x/c =  1.0000   68

   3   rms: 0.1328E-02   max: -.9028E-02   D at   12  1
       a = 15.500      CL =  0.6964
      Cm = -0.0811     CD =  0.19505   =>   CDf =  0.00330    CDp =  0.19175

 Side 1  free  transition at x/c =  0.0272   11
 Side 2 forced transition at x/c =  1.0000   68

   4   rms: 0.2844E-03   max: 0.9069E-03   T at   11  1
       a = 15.500      CL =  0.6966
      Cm = -0.0811     CD =  0.19512   =>   CDf =  0.00330    CDp =  0.19182

 Side 1  free  transition at x/c =  0.0272   11
 Side 2 forced transition at x/c =  1.0000   68

   5   rms: 0.1516E-04   max: -.1346E-03   D at   88  2
       a = 15.500      CL =  0.6966
      Cm = -0.0811     CD =  0.19515   =>   CDf =  0.00330    CDp =  0.19185
 plradd ia,ip,cpol           50           0  6.96852003E-05

 Point added to stored polar  1
 Point written to save file  naca63206_Re150k.base.pol                       
 Dump file unspecified or not available
 Calculating wake trajectory ...
 Calculating source influence matrix ...

 Solving BL system ...

 Side 1  free  transition at x/c =  0.0272   11
 Side 2 forced transition at x/c =  1.0000   68

   1   rms: 0.1285E-01   max: 0.1234E+00   T at   11  1   RLX: 0.398
       a = 15.750      CL =  0.6980
      Cm = -0.0818     CD =  0.19698   =>   CDf =  0.00330    CDp =  0.19367

 Side 1  free  transition at x/c =  0.0268   11
 Side 2 forced transition at x/c =  1.0000   68

   2   rms: 0.7677E-02   max: 0.7059E-01   T at   11  1
       a = 15.750      CL =  0.7012
      Cm = -0.0829     CD =  0.19926   =>   CDf =  0.00330    CDp =  0.19596

 Side 1  free  transition at x/c =  0.0263   11
 Side 2 forced transition at x/c =  1.0000   68

   3   rms: 0.1194E-02   max: 0.3788E-02   D at   87  2
       a = 15.750      CL =  0.7008
      Cm = -0.0829     CD =  0.19845   =>   CDf =  0.00329    CDp =  0.19516

 Side 1  free  transition at x/c =  0.0263   11
 Side 2 forced transition at x/c =  1.0000   68

   4   rms: 0.1237E-03   max: 0.4554E-03   C at   68  2
       a = 15.750      CL =  0.7009
      Cm = -0.0829     CD =  0.19843   =>   CDf =  0.00329    CDp =  0.19514

 Side 1  free  transition at x/c =  0.0263   11
 Side 2 forced transition at x/c =  1.0000   68

   5   rms: 0.6258E-05   max: -.6497E-04   C at   68  2
       a = 15.750      CL =  0.7009
      Cm = -0.0829     CD =  0.19845   =>   CDf =  0.00329    CDp =  0.19516
 plradd ia,ip,cpol           51           0  6.96852003E-05

 Point added to stored polar  1
 Point written to save file  naca63206_Re150k.base.pol                       
 Dump file unspecified or not available
 Calculating wake trajectory ...
 Calculating source influence matrix ...

 Solving BL system ...

 Side 1  free  transition at x/c =  0.0263   11
 Side 2 forced transition at x/c =  1.0000   68

   1   rms: 0.1171E-01   max: 0.1141E+00   T at   11  1   RLX: 0.391
       a = 16.000      CL =  0.7024
      Cm = -0.0835     CD =  0.20019   =>   CDf =  0.00329    CDp =  0.19690

 Side 1  free  transition at x/c =  0.0259   11
 Side 2 forced transition at x/c =  1.0000   68

   2   rms: 0.7191E-02   max: 0.6585E-01   T at   11  1
       a = 16.000      CL =  0.7057
      Cm = -0.0846     CD =  0.20251   =>   CDf =  0.00328    CDp =  0.19922

 Side 1  free  transition at x/c =  0.0253   11
 Side 2 forced transition at x/c =  1.0000   68

   3   rms: 0.8432E-03   max: 0.4285E-02   D at   87  2
       a = 16.000      CL =  0.7053
      Cm = -0.0846     CD =  0.20173   =>   CDf =  0.00328    CDp =  0.19845

 Side 1  free  transition at x/c =  0.0253   11
 Side 2 forced transition at x/c =  1.0000   68

   4   rms: 0.7975E-04   max: 0.4348E-03   C at   68  2
       a = 16.000      CL =  0.7054
      Cm = -0.0846     CD =  0.20168   =>   CDf =  0.00328    CDp =  0.19840
 plradd ia,ip,cpol           52           0  6.96852003E-05

 Point added to stored polar  1
 Point written to save file  naca63206_Re150k.base.pol                       
 Dump file unspecified or not available

.OPERva   c>  
 Polar accumulation disabled

.OPERv   c>  
 XFOIL   c>  
 XFOIL   c>  