  
       XFOIL         Version 6.99
  
 Calculated polar for: NACA 64(3)-418                                  
  
 1 1 Reynolds number fixed          Mach number fixed         
  
 xtrf =   1.000 (top)        1.000 (bottom)  
 Mach =   0.000     Re =     0.150 e 6     Ncrit =   9.000
  
   alpha    CL        CD       CDp       CM     Top_Xtr  Bot_Xtr
  ------ -------- --------- --------- -------- -------- --------
  16.250   1.2904   0.07855   0.07171  -0.0147   0.0445   1.0000
  16.500   1.2857   0.08253   0.07596  -0.0151   0.0441   1.0000
  16.750   1.2782   0.08693   0.08064  -0.0159   0.0439   1.0000
  17.000   1.2675   0.09175   0.08573  -0.0170   0.0437   1.0000
  17.250   1.2536   0.09710   0.09134  -0.0185   0.0435   1.0000
  17.500   1.2363   0.10308   0.09760  -0.0206   0.0435   1.0000
  17.750   1.2146   0.10987   0.10467  -0.0235   0.0435   1.0000
  18.000   1.1896   0.11753   0.11260  -0.0271   0.0437   1.0000
  18.250   1.1610   0.12627   0.12160  -0.0319   0.0440   1.0000
  18.750   1.0958   0.14739   0.14316  -0.0448   0.0450   1.0000
  20.250   0.9173   0.24204   0.23802  -0.1013   0.0714   1.0000
  20.750   0.9455   0.24773   0.24375  -0.1026   0.0690   1.0000
  21.250   0.9438   0.25601   0.25197  -0.1110   0.0656   1.0000
  21.750   0.9610   0.26175   0.25773  -0.1148   0.0615   1.0000
  22.250   1.0000   0.26984   0.26588  -0.1134   0.0598   1.0000
