
 ===================================================
  XFOIL Version 6.99
  Copyright (C) 2000   Mark Drela, Harold Youngren

  This software comes with ABSOLUTELY NO WARRANTY,
    subject to the GNU General Public License.

  Caveat computor
 ===================================================

 File  xfoil.def  not found

   QUIT    Exit program

  .OPER    Direct operating point(s)
  .MDES    Complex mapping design routine
  .QDES    Surface speed design routine
  .GDES    Geometry design routine

   SAVE f  Write airfoil to labeled coordinate file
   PSAV f  Write airfoil to plain coordinate file
   ISAV f  Write airfoil to ISES coordinate file
   MSAV f  Write airfoil to MSES coordinate file
   REVE    Reverse written-airfoil node ordering

   LOAD f  Read buffer airfoil from coordinate file
   NACA i  Set NACA 4,5-digit airfoil and buffer airfoil
   INTE    Set buffer airfoil by interpolating two airfoils
   NORM    Buffer airfoil normalization toggle
   XYCM rr Change CM reference location, currently  0.25000 0.00000

   BEND    Display structural properties of current airfoil

   PCOP    Set current-airfoil panel nodes directly from buffer airfoil points
   PANE    Set current-airfoil panel nodes ( 160 ) based on curvature
  .PPAR    Show/change paneling

  .PLOP    Plotting options

   WDEF f  Write  current-settings file
   RDEF f  Reread current-settings file
   NAME s  Specify new airfoil name
   NINC    Increment name version number

   Z       Zoom    | (available in all menus)
   U       Unzoom  | 

 XFOIL   c>  
 Labeled airfoil file.  Name:  NACA 65(1)-212                                  

 Number of input coordinate points:  51
 Counterclockwise ordering
 Max thickness =     0.119949  at x =   0.400
 Max camber    =     0.010653  at x =   0.500

  LE  x,y  =  -0.00003   0.00075  |   Chord =   1.00003
  TE  x,y  =   1.00000   0.00000  |

 Current airfoil nodes set from buffer airfoil nodes (  51 )

 WARNING: Poor input coordinate distribution
          Excessive panel angle   57.1  at i =  26
          Repaneling with PANE and/or PPAR suggested
           (doing GDES,CADD before repaneling _may_
            improve excessively coarse LE spacing

 XFOIL   c>  
 XFOIL   c>  
 Sharp trailing edge

 Paneling parameters used...
   Number of panel nodes       160
   Panel bunching parameter    1.000
   TE/LE panel density ratio   0.150
   Refined-area/LE panel density ratio    0.200
   Top    side refined area x/c limits  1.000 1.000
   Bottom side refined area x/c limits  1.000 1.000

 XFOIL   c>  
.OPERi   c>  
 Xtr/c     =  1.0000    top    side
 Xtr/c     =  1.0000    bottom side
 Ncrit     =    9.00   ( 0.070 % turb. level )
 Vacc      =  0.0100

 Klag  =  5.6000     Uxwt  =    1.00
 A     =  6.7000     B     =  0.7500       KCt = 0.01485
 CtiniK=  1.8000     CtiniX=  3.3000

..VPAR   c>  
..VPAR   c>  
.OPERi   c>  
 M  =    0.0000
 Re =    600000

.OPERv   c>  
.OPERv   c>  
.OPERv   c>  
 Polar  1 newly created for accumulation
 Airfoil archived with polar: NACA 65(1)-212                                  

Enter  polar save filename  OR  <return> for no file   s>  
 New polar save file available

Enter  polar dump filename  OR  <return> for no file   s>  
 Polar dump file will NOT be written

 Polar accumulation enabled

.OPERva   c>   Calculating unit vorticity distributions ...
 Calculating wake trajectory ...
 Calculating source influence matrix ...

 Solving BL system ...

 Initializing BL ...
    side            1  ...
 MRCHUE: Inverse mode at  52     Hk =   4.091
 MRCHUE: Inverse mode at  53     Hk =   4.766
 MRCHUE: Inverse mode at  54     Hk =   5.429
 MRCHUE: Inverse mode at  55     Hk =   6.083
 MRCHUE: Inverse mode at  56     Hk =   6.729
 MRCHUE: Inverse mode at  57     Hk =   7.369
 MRCHUE: Inverse mode at  58     Hk =   8.003
 MRCHUE: Inverse mode at  59     Hk =   8.634
 MRCHUE: Inverse mode at  60     Hk =   8.018
 MRCHUE: Inverse mode at  61     Hk =   5.413
 MRCHUE: Inverse mode at  62     Hk =   3.844
 MRCHUE: Inverse mode at  63     Hk =   2.728
    side            2  ...
 MRCHUE: Inverse mode at  14     Hk =   3.977
 MRCHUE: Inverse mode at  15     Hk =   5.256
 MRCHUE: Inverse mode at  16     Hk =   6.595
 MRCHUE: Inverse mode at  17     Hk =   8.108
 MRCHUE: Inverse mode at  18     Hk =   9.905
 MRCHUE: Inverse mode at  19     Hk =   2.500

 Side 1  free  transition at x/c =  0.7800   60
 Side 2  free  transition at x/c =  0.0312   19

   1   rms: 0.1381E+00   max: -.1117E+01   T at   60  1   RLX: 0.448
       a = -4.000      CL = -0.2843
      Cm = -0.0383     CD =  0.01123   =>   CDf =  0.00694    CDp =  0.00429

 MRCHDU: Convergence failed at  62  side 1    Res =  0.1480E+02
 MRCHDU: Convergence failed at  63  side 1    Res =  0.7961E+01
 Side 1  free  transition at x/c =  0.7997   62
 Side 2  free  transition at x/c =  0.0359   19

   2   rms: 0.7254E-01   max: 0.8123E+00   D at   19  2
       a = -4.000      CL = -0.2578
      Cm = -0.0409     CD =  0.01033   =>   CDf =  0.00664    CDp =  0.00369

 Side 1  free  transition at x/c =  0.8282   63
 Side 2  free  transition at x/c =  0.0372   19

   3   rms: 0.1837E-01   max: 0.2096E+00   D at   19  2
       a = -4.000      CL = -0.2542
      Cm = -0.0416     CD =  0.01029   =>   CDf =  0.00676    CDp =  0.00352

 Side 1  free  transition at x/c =  0.8294   63
 Side 2  free  transition at x/c =  0.0366   19

   4   rms: 0.5157E-02   max: -.9126E-01   C at   63  1
       a = -4.000      CL = -0.2542
      Cm = -0.0416     CD =  0.01028   =>   CDf =  0.00673    CDp =  0.00355

 Side 1  free  transition at x/c =  0.8294   63
 Side 2  free  transition at x/c =  0.0366   19

   5   rms: 0.3075E-03   max: 0.3568E-02   D at   64  1
       a = -4.000      CL = -0.2541
      Cm = -0.0416     CD =  0.01028   =>   CDf =  0.00671    CDp =  0.00358

 Side 1  free  transition at x/c =  0.8292   63
 Side 2  free  transition at x/c =  0.0366   19

   6   rms: 0.1454E-05   max: -.1189E-04   C at   63  1
       a = -4.000      CL = -0.2541
      Cm = -0.0416     CD =  0.01028   =>   CDf =  0.00671    CDp =  0.00358
 plradd ia,ip,cpol            1           0  4.53428784E-03

 Point added to stored polar  1
 Point written to save file  naca651212_Re600k.base.pol                      
 Dump file unspecified or not available
 Calculating wake trajectory ...
 Calculating source influence matrix ...

 Solving BL system ...

 Side 1  free  transition at x/c =  0.8292   63
 Side 2  free  transition at x/c =  0.0366   19

   1   rms: 0.9660E-01   max: -.4946E+00   T at   19  2
       a = -3.500      CL = -0.2011
      Cm = -0.0415     CD =  0.00972   =>   CDf =  0.00679    CDp =  0.00294

 MRCHDU: Convergence failed at  19  side 2    Res =  0.4007E+01
 Side 1  free  transition at x/c =  0.8141   63
 Side 2  free  transition at x/c =  0.0461   19

   2   rms: 0.3324E-01   max: 0.5261E+00   C at   19  2
       a = -3.500      CL = -0.2020
      Cm = -0.0412     CD =  0.00969   =>   CDf =  0.00672    CDp =  0.00297

 Side 1  free  transition at x/c =  0.8174   64
 Side 2  free  transition at x/c =  0.0485   19

   3   rms: 0.5724E-02   max: 0.6838E-01   D at   64  1
       a = -3.500      CL = -0.2017
      Cm = -0.0413     CD =  0.00967   =>   CDf =  0.00677    CDp =  0.00289

 Side 1  free  transition at x/c =  0.8166   64
 Side 2  free  transition at x/c =  0.0487   19

   4   rms: 0.3306E-03   max: 0.4283E-02   D at   64  1
       a = -3.500      CL = -0.2017
      Cm = -0.0413     CD =  0.00967   =>   CDf =  0.00677    CDp =  0.00289

 Side 1  free  transition at x/c =  0.8165   64
 Side 2  free  transition at x/c =  0.0487   19

   5   rms: 0.9927E-06   max: -.1191E-04   D at   65  1
       a = -3.500      CL = -0.2017
      Cm = -0.0413     CD =  0.00967   =>   CDf =  0.00677    CDp =  0.00289
 plradd ia,ip,cpol            2           0  6.60818163E-03

 Point added to stored polar  1
 Point written to save file  naca651212_Re600k.base.pol                      
 Dump file unspecified or not available
 Calculating wake trajectory ...
 Calculating source influence matrix ...

 Solving BL system ...

 Side 1  free  transition at x/c =  0.8165   64
 Side 2  free  transition at x/c =  0.0487   19

   1   rms: 0.1013E+00   max: -.6759E+00   T at   19  2   RLX: 0.740
       a = -3.000      CL = -0.1622
      Cm = -0.0411     CD =  0.00939   =>   CDf =  0.00677    CDp =  0.00262

 MRCHDU: Convergence failed at  20  side 2    Res =  0.2250E+01
 MRCHDU: Convergence failed at  21  side 2    Res =  0.1398E+01
 Side 1  free  transition at x/c =  0.8091   63
 Side 2  free  transition at x/c =  0.1298   25

   2   rms: 0.8090E-01   max: -.7637E+00   T at   25  2   RLX: 0.655
       a = -3.000      CL = -0.1597
      Cm = -0.0420     CD =  0.00893   =>   CDf =  0.00672    CDp =  0.00221

 MRCHDU: Convergence failed at  25  side 2    Res =  0.2213E+01
 Side 1  free  transition at x/c =  0.8054   64
 Side 2  free  transition at x/c =  0.2075   30

   3   rms: 0.1901E+00   max: -.2778E+01   C at   30  2   RLX: 0.180
       a = -3.000      CL = -0.1695
      Cm = -0.0426     CD =  0.00846   =>   CDf =  0.00635    CDp =  0.00211

 Side 1  free  transition at x/c =  0.8052   64
 Side 2  free  transition at x/c =  0.2138   30

   4   rms: 0.2026E+00   max: -.4202E+01   C at   30  2   RLX: 0.119
       a = -3.000      CL = -0.1692
      Cm = -0.0425     CD =  0.00851   =>   CDf =  0.00623    CDp =  0.00228

 Side 1  free  transition at x/c =  0.8050   64
 Side 2  free  transition at x/c =  0.2210   31

   5   rms: 0.1621E+00   max: -.2370E+01   C at   31  2   RLX: 0.211
       a = -3.000      CL = -0.1662
      Cm = -0.0421     CD =  0.00836   =>   CDf =  0.00621    CDp =  0.00216

 Side 1  free  transition at x/c =  0.8048   64
 Side 2  free  transition at x/c =  0.2459   32

   6   rms: 0.3908E+00   max: -.8688E+01   C at   32  2   RLX: 0.058
       a = -3.000      CL = -0.1657
      Cm = -0.0420     CD =  0.00827   =>   CDf =  0.00605    CDp =  0.00222

 Side 1  free  transition at x/c =  0.8047   64
 Side 2  free  transition at x/c =  0.2531   33

   7   rms: 0.3377E+00   max: -.7167E+01   C at   33  2   RLX: 0.070
       a = -3.000      CL = -0.1651
      Cm = -0.0419     CD =  0.00820   =>   CDf =  0.00602    CDp =  0.00218

 Side 1  free  transition at x/c =  0.8047   64
 Side 2  free  transition at x/c =  0.2643   33

   8   rms: 0.4754E+00   max: -.1035E+02   C at   33  2   RLX: 0.048
       a = -3.000      CL = -0.1647
      Cm = -0.0418     CD =  0.00815   =>   CDf =  0.00597    CDp =  0.00219

 Side 1  free  transition at x/c =  0.8046   64
 Side 2  free  transition at x/c =  0.2725   34

   9   rms: 0.4448E+00   max: -.9784E+01   C at   34  2   RLX: 0.051
       a = -3.000      CL = -0.1644
      Cm = -0.0417     CD =  0.00809   =>   CDf =  0.00593    CDp =  0.00216

 Side 1  free  transition at x/c =  0.8046   64
 Side 2  free  transition at x/c =  0.2823   35

  10   rms: 0.4440E+00   max: -.9580E+01   C at   35  2   RLX: 0.052
       a = -3.000      CL = -0.1642
      Cm = -0.0417     CD =  0.00802   =>   CDf =  0.00588    CDp =  0.00213

 Side 1  free  transition at x/c =  0.8045   64
 Side 2  free  transition at x/c =  0.2936   35

  11   rms: 0.6005E+00   max: -.1273E+02   C at   35  2   RLX: 0.039
       a = -3.000      CL = -0.1640
      Cm = -0.0416     CD =  0.00797   =>   CDf =  0.00583    CDp =  0.00213

 Side 1  free  transition at x/c =  0.8045   64
 Side 2  free  transition at x/c =  0.3031   36

  12   rms: 0.5292E+00   max: -.1139E+02   C at   36  2   RLX: 0.044
       a = -3.000      CL = -0.1639
      Cm = -0.0416     CD =  0.00790   =>   CDf =  0.00579    CDp =  0.00211

 Side 1  free  transition at x/c =  0.8045   64
 Side 2  free  transition at x/c =  0.3148   37

  13   rms: 0.5302E+00   max: -.1144E+02   C at   37  2   RLX: 0.044
       a = -3.000      CL = -0.1639
      Cm = -0.0415     CD =  0.00783   =>   CDf =  0.00574    CDp =  0.00208

 Side 1  free  transition at x/c =  0.8044   64
 Side 2  free  transition at x/c =  0.3249   38

  14   rms: 0.4487E+00   max: -.9447E+01   C at   38  2   RLX: 0.053
       a = -3.000      CL = -0.1639
      Cm = -0.0415     CD =  0.00775   =>   CDf =  0.00571    CDp =  0.00205

 Side 1  free  transition at x/c =  0.8044   64
 Side 2  free  transition at x/c =  0.3381   38

  15   rms: 0.6130E+00   max: -.1267E+02   C at   38  2   RLX: 0.039
       a = -3.000      CL = -0.1639
      Cm = -0.0414     CD =  0.00770   =>   CDf =  0.00565    CDp =  0.00205

 Side 1  free  transition at x/c =  0.8043   64
 Side 2  free  transition at x/c =  0.3465   39

  16   rms: 0.4687E+00   max: -.9951E+01   C at   39  2   RLX: 0.050
       a = -3.000      CL = -0.1638
      Cm = -0.0414     CD =  0.00764   =>   CDf =  0.00561    CDp =  0.00203

 Side 1  free  transition at x/c =  0.8043   64
 Side 2  free  transition at x/c =  0.3567   40

  17   rms: 0.4180E+00   max: -.8849E+01   C at   40  2   RLX: 0.057
       a = -3.000      CL = -0.1638
      Cm = -0.0413     CD =  0.00758   =>   CDf =  0.00557    CDp =  0.00200

 Side 1  free  transition at x/c =  0.8043   64
 Side 2  free  transition at x/c =  0.3692   40

  18   rms: 0.5087E+00   max: -.1030E+02   C at   40  2   RLX: 0.049
       a = -3.000      CL = -0.1638
      Cm = -0.0413     CD =  0.00752   =>   CDf =  0.00552    CDp =  0.00200

 Side 1  free  transition at x/c =  0.8042   64
 Side 2  free  transition at x/c =  0.3780   41

  19   rms: 0.3984E+00   max: -.8296E+01   C at   41  2   RLX: 0.060
       a = -3.000      CL = -0.1637
      Cm = -0.0412     CD =  0.00747   =>   CDf =  0.00548    CDp =  0.00198

 Side 1  free  transition at x/c =  0.8042   64
 Side 2  free  transition at x/c =  0.3893   42

  20   rms: 0.3093E+00   max: -.6475E+01   C at   42  2   RLX: 0.077
       a = -3.000      CL = -0.1637
      Cm = -0.0412     CD =  0.00740   =>   CDf =  0.00544    CDp =  0.00196

 Side 1  free  transition at x/c =  0.8042   64
 Side 2  free  transition at x/c =  0.4015   43

  21   rms: 0.2976E+00   max: -.6195E+01   C at   43  2   RLX: 0.081
       a = -3.000      CL = -0.1637
      Cm = -0.0411     CD =  0.00732   =>   CDf =  0.00539    CDp =  0.00193

 Side 1  free  transition at x/c =  0.8041   64
 Side 2  free  transition at x/c =  0.4133   43

  22   rms: 0.2987E+00   max: -.5966E+01   C at   43  2   RLX: 0.084
       a = -3.000      CL = -0.1636
      Cm = -0.0411     CD =  0.00728   =>   CDf =  0.00534    CDp =  0.00194

 Side 1  free  transition at x/c =  0.8041   64
 Side 2  free  transition at x/c =  0.4232   44

  23   rms: 0.1887E+00   max: -.3869E+01   C at   44  2   RLX: 0.129
       a = -3.000      CL = -0.1634
      Cm = -0.0410     CD =  0.00722   =>   CDf =  0.00530    CDp =  0.00192

 Side 1  free  transition at x/c =  0.8040   64
 Side 2  free  transition at x/c =  0.4332   45

  24   rms: 0.7497E-01   max: -.1540E+01   C at   45  2   RLX: 0.325
       a = -3.000      CL = -0.1626
      Cm = -0.0408     CD =  0.00716   =>   CDf =  0.00526    CDp =  0.00190

 Side 1  free  transition at x/c =  0.8040   64
 Side 2  free  transition at x/c =  0.4454   46

  25   rms: 0.6823E-01   max: -.1394E+01   C at   46  2   RLX: 0.359
       a = -3.000      CL = -0.1622
      Cm = -0.0407     CD =  0.00709   =>   CDf =  0.00522    CDp =  0.00188

 Side 1  free  transition at x/c =  0.8039   64
 Side 2  free  transition at x/c =  0.4441   46

  26   rms: 0.3532E-01   max: -.7162E+00   C at   46  2   RLX: 0.698
       a = -3.000      CL = -0.1611
      Cm = -0.0405     CD =  0.00710   =>   CDf =  0.00523    CDp =  0.00187

 Side 1  free  transition at x/c =  0.8038   64
 Side 2  free  transition at x/c =  0.4522   46

  27   rms: 0.1340E-01   max: -.2751E+00   C at   46  2
       a = -3.000      CL = -0.1606
      Cm = -0.0405     CD =  0.00710   =>   CDf =  0.00519    CDp =  0.00191

 Side 1  free  transition at x/c =  0.8038   64
 Side 2  free  transition at x/c =  0.4582   46

  28   rms: 0.1463E-02   max: -.2942E-01   C at   46  2
       a = -3.000      CL = -0.1606
      Cm = -0.0405     CD =  0.00711   =>   CDf =  0.00517    CDp =  0.00194

 Side 1  free  transition at x/c =  0.8038   64
 Side 2  free  transition at x/c =  0.4589   47

  29   rms: 0.2926E-03   max: -.5807E-02   C at   47  2
       a = -3.000      CL = -0.1606
      Cm = -0.0405     CD =  0.00711   =>   CDf =  0.00517    CDp =  0.00194

 Side 1  free  transition at x/c =  0.8038   64
 Side 2  free  transition at x/c =  0.4590   47

  30   rms: 0.5177E-05   max: 0.4929E-04   D at    4  1
       a = -3.000      CL = -0.1606
      Cm = -0.0405     CD =  0.00711   =>   CDf =  0.00517    CDp =  0.00194
 plradd ia,ip,cpol            3           0  6.60818163E-03

 Point added to stored polar  1
 Point written to save file  naca651212_Re600k.base.pol                      
 Dump file unspecified or not available
 Calculating wake trajectory ...
 Calculating source influence matrix ...

 Solving BL system ...

 Side 1  free  transition at x/c =  0.8038   64
 Side 2  free  transition at x/c =  0.4590   47

   1   rms: 0.8986E+00   max: -.1815E+02   C at   47  2   RLX: 0.028
       a = -2.500      CL = -0.1596
      Cm = -0.0404     CD =  0.00702   =>   CDf =  0.00517    CDp =  0.00185

 Side 1  free  transition at x/c =  0.8035   64
 Side 2  free  transition at x/c =  0.4712   47

   2   rms: 0.8266E+00   max: -.1661E+02   C at   47  2   RLX: 0.030
       a = -2.500      CL = -0.1581
      Cm = -0.0404     CD =  0.00699   =>   CDf =  0.00512    CDp =  0.00187

 Side 1  free  transition at x/c =  0.8032   64
 Side 2  free  transition at x/c =  0.4862   48

   3   rms: 0.6302E+00   max: -.1261E+02   C at   48  2   RLX: 0.040
       a = -2.500      CL = -0.1564
      Cm = -0.0404     CD =  0.00692   =>   CDf =  0.00507    CDp =  0.00186

 Side 1  free  transition at x/c =  0.8027   64
 Side 2  free  transition at x/c =  0.5058   50

   4   rms: 0.4969E+00   max: -.9775E+01   C at   50  2   RLX: 0.051
       a = -2.500      CL = -0.1547
      Cm = -0.0402     CD =  0.00683   =>   CDf =  0.00499    CDp =  0.00184

 Side 1  free  transition at x/c =  0.8022   64
 Side 2  free  transition at x/c =  0.5180   51

   5   rms: 0.3275E+00   max: -.5972E+01   C at   51  2   RLX: 0.084
       a = -2.500      CL = -0.1508
      Cm = -0.0403     CD =  0.00678   =>   CDf =  0.00497    CDp =  0.00181

 Side 1  free  transition at x/c =  0.8014   64
 Side 2  free  transition at x/c =  0.5304   51

   6   rms: 0.1456E+00   max: -.2278E+01   C at   51  2   RLX: 0.219
       a = -2.500      CL = -0.1409
      Cm = -0.0405     CD =  0.00678   =>   CDf =  0.00494    CDp =  0.00183

 Side 1  free  transition at x/c =  0.7997   64
 Side 2  free  transition at x/c =  0.5720   54

   7   rms: 0.7481E-01   max: -.3146E+00   T at   54  2
       a = -2.500      CL = -0.1070
      Cm = -0.0403     CD =  0.00680   =>   CDf =  0.00483    CDp =  0.00197

 Side 1  free  transition at x/c =  0.7939   63
 Side 2  free  transition at x/c =  0.6485   59

   8   rms: 0.3829E-01   max: 0.6402E+00   D at   54  2
       a = -2.500      CL = -0.1096
      Cm = -0.0398     CD =  0.00649   =>   CDf =  0.00468    CDp =  0.00181

 Side 1  free  transition at x/c =  0.7921   63
 Side 2  free  transition at x/c =  0.6251   58

   9   rms: 0.1848E-01   max: -.3126E+00   D at   58  2
       a = -2.500      CL = -0.1085
      Cm = -0.0401     CD =  0.00655   =>   CDf =  0.00473    CDp =  0.00182

 Side 1  free  transition at x/c =  0.7922   63
 Side 2  free  transition at x/c =  0.6172   57

  10   rms: 0.1557E-02   max: -.1917E-01   D at   57  2
       a = -2.500      CL = -0.1083
      Cm = -0.0401     CD =  0.00658   =>   CDf =  0.00472    CDp =  0.00186

 Side 1  free  transition at x/c =  0.7922   63
 Side 2  free  transition at x/c =  0.6162   57

  11   rms: 0.5177E-04   max: -.8048E-03   C at   57  2
       a = -2.500      CL = -0.1083
      Cm = -0.0401     CD =  0.00658   =>   CDf =  0.00472    CDp =  0.00186
 plradd ia,ip,cpol            4           0  6.60818163E-03

 Point added to stored polar  1
 Point written to save file  naca651212_Re600k.base.pol                      
 Dump file unspecified or not available
 Calculating wake trajectory ...
 Calculating source influence matrix ...

 Solving BL system ...

 Side 1  free  transition at x/c =  0.7922   63
 Side 2  free  transition at x/c =  0.6162   57

   1   rms: 0.1047E+00   max: -.6023E+00   C at   57  2   RLX: 0.830
       a = -2.000      CL = -0.0620
      Cm = -0.0401     CD =  0.00653   =>   CDf =  0.00476    CDp =  0.00177

 Side 1  free  transition at x/c =  0.7830   63
 Side 2  free  transition at x/c =  0.6514   58

   2   rms: 0.2390E-01   max: -.1779E+00   T at   58  2
       a = -2.000      CL = -0.0520
      Cm = -0.0403     CD =  0.00664   =>   CDf =  0.00481    CDp =  0.00182

 Side 1  free  transition at x/c =  0.7817   63
 Side 2  free  transition at x/c =  0.6659   59

   3   rms: 0.9024E-02   max: -.1603E+00   C at   59  2
       a = -2.000      CL = -0.0528
      Cm = -0.0400     CD =  0.00656   =>   CDf =  0.00475    CDp =  0.00180

 Side 1  free  transition at x/c =  0.7816   63
 Side 2  free  transition at x/c =  0.6637   59

   4   rms: 0.1924E-03   max: 0.2706E-02   C at   59  2
       a = -2.000      CL = -0.0528
      Cm = -0.0400     CD =  0.00656   =>   CDf =  0.00471    CDp =  0.00185

 Side 1  free  transition at x/c =  0.7816   63
 Side 2  free  transition at x/c =  0.6636   59

   5   rms: 0.1154E-05   max: 0.7601E-05   T at   63  1
       a = -2.000      CL = -0.0528
      Cm = -0.0400     CD =  0.00656   =>   CDf =  0.00471    CDp =  0.00185
 plradd ia,ip,cpol            5           0  6.60818163E-03

 Point added to stored polar  1
 Point written to save file  naca651212_Re600k.base.pol                      
 Dump file unspecified or not available
 Calculating wake trajectory ...
 Calculating source influence matrix ...

 Solving BL system ...

 Side 1  free  transition at x/c =  0.7816   63
 Side 2  free  transition at x/c =  0.6636   59

   1   rms: 0.1070E+00   max: -.5184E+00   T at   59  2   RLX: 0.965
       a = -1.500      CL =  0.0020
      Cm = -0.0403     CD =  0.00666   =>   CDf =  0.00471    CDp =  0.00195

 MRCHDU: Convergence failed at  62  side 2    Res =  0.2665E+01
 MRCHDU: Convergence failed at  63  side 2    Res =  0.2241E+01
 MRCHDU: Convergence failed at  64  side 2    Res =  0.4412E+01
 MRCHDU: Convergence failed at  65  side 2    Res =  0.9979E+01
 MRCHDU: Convergence failed at  66  side 2    Res =  0.2066E+02
 MRCHDU: Convergence failed at  67  side 2    Res =  0.3805E+02
 MRCHDU: Convergence failed at  68  side 2    Res =  0.5158E+02
 MRCHDU: Convergence failed at  69  side 2    Res =  0.4932E+02
 MRCHDU: Convergence failed at  70  side 2    Res =  0.3998E+02
 MRCHDU: Convergence failed at  71  side 2    Res =  0.3124E+02
 MRCHDU: Convergence failed at  72  side 2    Res =  0.2548E+02
 MRCHDU: Convergence failed at  73  side 2    Res =  0.2054E+02
 MRCHDU: Convergence failed at  74  side 2    Res =  0.1784E+02
 MRCHDU: Convergence failed at  75  side 2    Res =  0.1531E+02
 MRCHDU: Convergence failed at  76  side 2    Res =  0.1333E+02
 MRCHDU: Convergence failed at  77  side 2    Res =  0.1196E+02
 MRCHDU: Convergence failed at  78  side 2    Res =  0.1086E+02
 MRCHDU: Convergence failed at  79  side 2    Res =  0.1032E+02
 MRCHDU: Convergence failed at  80  side 2    Res =  0.9986E+01
 MRCHDU: Convergence failed at  81  side 2    Res =  0.9764E+01
 MRCHDU: Convergence failed at  82  side 2    Res =  0.9681E+01
 MRCHDU: Convergence failed at  83  side 2    Res =  0.8223E+01
 Side 1  free  transition at x/c =  0.7693   63
 Side 2  free  transition at x/c =  0.7037   62

   2   rms: 0.2233E+00   max: 0.1165E+01   T at   83  2
       a = -1.500      CL =  0.0172
      Cm = -0.0413     CD =  0.00580   =>   CDf =  0.00385    CDp =  0.00196

 Side 1  free  transition at x/c =  0.7723   63
 Side 2  free  transition at x/c =  0.6967   61

   3   rms: 0.3209E-01   max: -.3232E+00   D at   62  2
       a = -1.500      CL =  0.0033
      Cm = -0.0400     CD =  0.00672   =>   CDf =  0.00479    CDp =  0.00193

 Side 1  free  transition at x/c =  0.7708   63
 Side 2  free  transition at x/c =  0.7072   62

   4   rms: 0.1982E-01   max: 0.2819E+00   C at   62  2
       a = -1.500      CL =  0.0026
      Cm = -0.0398     CD =  0.00660   =>   CDf =  0.00462    CDp =  0.00198

 Side 1  free  transition at x/c =  0.7708   63
 Side 2  free  transition at x/c =  0.7043   62

   5   rms: 0.3584E-02   max: -.4719E-01   D at   64  2
       a = -1.500      CL =  0.0025
      Cm = -0.0398     CD =  0.00663   =>   CDf =  0.00467    CDp =  0.00196

 Side 1  free  transition at x/c =  0.7708   63
 Side 2  free  transition at x/c =  0.7032   62

   6   rms: 0.1462E-03   max: -.2801E-02   D at   64  2
       a = -1.500      CL =  0.0025
      Cm = -0.0398     CD =  0.00663   =>   CDf =  0.00468    CDp =  0.00194

 Side 1  free  transition at x/c =  0.7708   63
 Side 2  free  transition at x/c =  0.7032   62

   7   rms: 0.1592E-05   max: 0.1740E-04   D at   62  2
       a = -1.500      CL =  0.0025
      Cm = -0.0398     CD =  0.00663   =>   CDf =  0.00468    CDp =  0.00194
 plradd ia,ip,cpol            6           0  9.15198214E-03

 Point added to stored polar  1
 Point written to save file  naca651212_Re600k.base.pol                      
 Dump file unspecified or not available
 Calculating wake trajectory ...
 Calculating source influence matrix ...

 Solving BL system ...

 Side 1  free  transition at x/c =  0.7708   63
 Side 2  free  transition at x/c =  0.7032   62

   1   rms: 0.9861E-01   max: -.5343E+00   T at   62  2   RLX: 0.936
       a = -1.000      CL =  0.0544
      Cm = -0.0396     CD =  0.00677   =>   CDf =  0.00470    CDp =  0.00207

 Side 1  free  transition at x/c =  0.7629   63
 Side 2  free  transition at x/c =  0.7117   61

   2   rms: 0.5258E-01   max: -.5069E+00   D at   61  2   RLX: 0.986
       a = -1.000      CL =  0.0607
      Cm = -0.0404     CD =  0.00709   =>   CDf =  0.00487    CDp =  0.00222

 Side 1  free  transition at x/c =  0.7598   63
 Side 2  free  transition at x/c =  0.7254   62

   3   rms: 0.1284E-01   max: -.1984E+00   C at   62  2
       a = -1.000      CL =  0.0589
      Cm = -0.0399     CD =  0.00666   =>   CDf =  0.00475    CDp =  0.00192

 Side 1  free  transition at x/c =  0.7602   63
 Side 2  free  transition at x/c =  0.7223   62

   4   rms: 0.6478E-03   max: 0.7240E-02   D at   64  2
       a = -1.000      CL =  0.0589
      Cm = -0.0399     CD =  0.00667   =>   CDf =  0.00470    CDp =  0.00197

 Side 1  free  transition at x/c =  0.7602   63
 Side 2  free  transition at x/c =  0.7223   62

   5   rms: 0.1844E-05   max: -.3249E-04   D at   64  2
       a = -1.000      CL =  0.0589
      Cm = -0.0399     CD =  0.00667   =>   CDf =  0.00470    CDp =  0.00197
 plradd ia,ip,cpol            7           0  0.44376728    

 Point added to stored polar  1
 Point written to save file  naca651212_Re600k.base.pol                      
 Dump file unspecified or not available
 Calculating wake trajectory ...
 Calculating source influence matrix ...

 Solving BL system ...

 Side 1  free  transition at x/c =  0.7602   63
 Side 2  free  transition at x/c =  0.7223   62

   1   rms: 0.8485E-01   max: -.2705E+00   T at   62  2
       a = -0.500      CL =  0.1159
      Cm = -0.0403     CD =  0.00671   =>   CDf =  0.00470    CDp =  0.00200

 Side 1  free  transition at x/c =  0.7510   63
 Side 2  free  transition at x/c =  0.7285   62

   2   rms: 0.3594E-01   max: -.2837E+00   T at   62  2
       a = -0.500      CL =  0.1158
      Cm = -0.0404     CD =  0.00656   =>   CDf =  0.00486    CDp =  0.00169

 Side 1  free  transition at x/c =  0.7504   63
 Side 2  free  transition at x/c =  0.7339   62

   3   rms: 0.4441E-02   max: -.5488E-01   D at   64  2
       a = -0.500      CL =  0.1159
      Cm = -0.0403     CD =  0.00667   =>   CDf =  0.00473    CDp =  0.00194

 Side 1  free  transition at x/c =  0.7503   63
 Side 2  free  transition at x/c =  0.7321   62

   4   rms: 0.5592E-03   max: -.8572E-02   D at   62  2
       a = -0.500      CL =  0.1159
      Cm = -0.0403     CD =  0.00667   =>   CDf =  0.00475    CDp =  0.00192

 Side 1  free  transition at x/c =  0.7503   63
 Side 2  free  transition at x/c =  0.7322   62

   5   rms: 0.2704E-05   max: 0.3832E-04   D at   62  2
       a = -0.500      CL =  0.1159
      Cm = -0.0403     CD =  0.00667   =>   CDf =  0.00475    CDp =  0.00193
 plradd ia,ip,cpol            8           0  0.42905948    

 Point added to stored polar  1
 Point written to save file  naca651212_Re600k.base.pol                      
 Dump file unspecified or not available
 Calculating wake trajectory ...
 Calculating source influence matrix ...

 Solving BL system ...

 Side 1  free  transition at x/c =  0.7503   63
 Side 2  free  transition at x/c =  0.7322   62

   1   rms: 0.8359E-01   max: -.2457E+00   T at   62  2
       a =  0.000      CL =  0.1729
      Cm = -0.0407     CD =  0.00665   =>   CDf =  0.00475    CDp =  0.00190

 Side 1  free  transition at x/c =  0.7391   62
 Side 2  free  transition at x/c =  0.7407   62

   2   rms: 0.1780E-01   max: -.1953E+00   D at   63  1
       a =  0.000      CL =  0.1732
      Cm = -0.0408     CD =  0.00674   =>   CDf =  0.00486    CDp =  0.00188

 Side 1  free  transition at x/c =  0.7409   63
 Side 2  free  transition at x/c =  0.7426   62

   3   rms: 0.6703E-02   max: -.8293E-01   C at   62  2
       a =  0.000      CL =  0.1732
      Cm = -0.0408     CD =  0.00671   =>   CDf =  0.00485    CDp =  0.00187

 Side 1  free  transition at x/c =  0.7407   63
 Side 2  free  transition at x/c =  0.7427   62

   4   rms: 0.5943E-03   max: 0.5178E-02   D at   63  1
       a =  0.000      CL =  0.1732
      Cm = -0.0408     CD =  0.00671   =>   CDf =  0.00481    CDp =  0.00191

 Side 1  free  transition at x/c =  0.7406   63
 Side 2  free  transition at x/c =  0.7426   62

   5   rms: 0.2162E-05   max: -.2929E-04   D at   64  1
       a =  0.000      CL =  0.1732
      Cm = -0.0408     CD =  0.00671   =>   CDf =  0.00481    CDp =  0.00191
 plradd ia,ip,cpol            9           0  0.41435319    

 Point added to stored polar  1
 Point written to save file  naca651212_Re600k.base.pol                      
 Dump file unspecified or not available
 Calculating wake trajectory ...
 Calculating source influence matrix ...

 Solving BL system ...

 Side 1  free  transition at x/c =  0.7406   63
 Side 2  free  transition at x/c =  0.7426   62

   1   rms: 0.8556E-01   max: -.2314E+00   T at   62  2
       a =  0.500      CL =  0.2309
      Cm = -0.0414     CD =  0.00687   =>   CDf =  0.00479    CDp =  0.00208

 Side 1  free  transition at x/c =  0.7327   63
 Side 2  free  transition at x/c =  0.7557   62

   2   rms: 0.1707E-01   max: -.2074E+00   C at   62  2
       a =  0.500      CL =  0.2300
      Cm = -0.0411     CD =  0.00670   =>   CDf =  0.00480    CDp =  0.00190

 Side 1  free  transition at x/c =  0.7306   63
 Side 2  free  transition at x/c =  0.7524   62

   3   rms: 0.9801E-03   max: -.1277E-01   D at   63  1
       a =  0.500      CL =  0.2300
      Cm = -0.0411     CD =  0.00671   =>   CDf =  0.00476    CDp =  0.00195

 Side 1  free  transition at x/c =  0.7308   63
 Side 2  free  transition at x/c =  0.7524   62

   4   rms: 0.6828E-05   max: -.6304E-04   D at   65  1
       a =  0.500      CL =  0.2300
      Cm = -0.0411     CD =  0.00671   =>   CDf =  0.00476    CDp =  0.00196
 plradd ia,ip,cpol           10           0  0.41435319    

 Point added to stored polar  1
 Point written to save file  naca651212_Re600k.base.pol                      
 Dump file unspecified or not available
 Calculating wake trajectory ...
 Calculating source influence matrix ...

 Solving BL system ...

 Side 1  free  transition at x/c =  0.7308   63
 Side 2  free  transition at x/c =  0.7524   62

   1   rms: 0.8358E-01   max: -.2113E+00   T at   62  2
       a =  1.000      CL =  0.2872
      Cm = -0.0416     CD =  0.00675   =>   CDf =  0.00473    CDp =  0.00203

 Side 1  free  transition at x/c =  0.7221   63
 Side 2  free  transition at x/c =  0.7628   62

   2   rms: 0.6123E-02   max: -.6189E-01   D at   61  2
       a =  1.000      CL =  0.2869
      Cm = -0.0415     CD =  0.00676   =>   CDf =  0.00477    CDp =  0.00199

 Side 1  free  transition at x/c =  0.7218   63
 Side 2  free  transition at x/c =  0.7628   62

   3   rms: 0.5873E-03   max: 0.5432E-02   D at   62  2
       a =  1.000      CL =  0.2870
      Cm = -0.0415     CD =  0.00676   =>   CDf =  0.00474    CDp =  0.00202

 Side 1  free  transition at x/c =  0.7218   63
 Side 2  free  transition at x/c =  0.7627   62

   4   rms: 0.2396E-05   max: 0.2884E-04   D at   62  2
       a =  1.000      CL =  0.2870
      Cm = -0.0415     CD =  0.00676   =>   CDf =  0.00474    CDp =  0.00202
 plradd ia,ip,cpol           11           0  0.39964476    

 Point added to stored polar  1
 Point written to save file  naca651212_Re600k.base.pol                      
 Dump file unspecified or not available
 Calculating wake trajectory ...
 Calculating source influence matrix ...

 Solving BL system ...

 Side 1  free  transition at x/c =  0.7218   63
 Side 2  free  transition at x/c =  0.7627   62

   1   rms: 0.8369E-01   max: -.2421E+00   T at   62  2
       a =  1.500      CL =  0.3436
      Cm = -0.0419     CD =  0.00677   =>   CDf =  0.00474    CDp =  0.00202

 Side 1  free  transition at x/c =  0.7106   63
 Side 2  free  transition at x/c =  0.7716   62

   2   rms: 0.1962E-01   max: -.1757E+00   D at   63  1
       a =  1.500      CL =  0.3442
      Cm = -0.0420     CD =  0.00683   =>   CDf =  0.00479    CDp =  0.00203

 Side 1  free  transition at x/c =  0.7124   63
 Side 2  free  transition at x/c =  0.7745   63

   3   rms: 0.3005E-02   max: -.5952E-01   D at   62  2
       a =  1.500      CL =  0.3440
      Cm = -0.0420     CD =  0.00682   =>   CDf =  0.00472    CDp =  0.00210

 Side 1  free  transition at x/c =  0.7122   63
 Side 2  free  transition at x/c =  0.7740   63

   4   rms: 0.3194E-03   max: 0.4148E-02   D at   63  2
       a =  1.500      CL =  0.3440
      Cm = -0.0420     CD =  0.00682   =>   CDf =  0.00471    CDp =  0.00210

 Side 1  free  transition at x/c =  0.7122   63
 Side 2  free  transition at x/c =  0.7740   63

   5   rms: 0.1441E-05   max: -.1918E-04   D at   64  2
       a =  1.500      CL =  0.3440
      Cm = -0.0420     CD =  0.00682   =>   CDf =  0.00471    CDp =  0.00210
 plradd ia,ip,cpol           12           0  1.03108929E-02

 Point added to stored polar  1
 Point written to save file  naca651212_Re600k.base.pol                      
 Dump file unspecified or not available
 Calculating wake trajectory ...
 Calculating source influence matrix ...

 Solving BL system ...

 Side 1  free  transition at x/c =  0.7122   63
 Side 2  free  transition at x/c =  0.7740   63

   1   rms: 0.8519E-01   max: -.2405E+00   T at   63  2
       a =  2.000      CL =  0.4000
      Cm = -0.0420     CD =  0.00685   =>   CDf =  0.00466    CDp =  0.00219

 Side 1  free  transition at x/c =  0.6889   62
 Side 2  free  transition at x/c =  0.7840   62

   2   rms: 0.4395E-01   max: -.5349E+00   D at   63  1   RLX: 0.935
       a =  2.000      CL =  0.3995
      Cm = -0.0418     CD =  0.00692   =>   CDf =  0.00472    CDp =  0.00221

 Side 1  free  transition at x/c =  0.6950   63
 Side 2  free  transition at x/c =  0.7853   62

   3   rms: 0.4344E-02   max: -.5908E-01   D at   62  1
       a =  2.000      CL =  0.3995
      Cm = -0.0419     CD =  0.00684   =>   CDf =  0.00471    CDp =  0.00213

 Side 1  free  transition at x/c =  0.6948   63
 Side 2  free  transition at x/c =  0.7851   62

   4   rms: 0.2843E-03   max: 0.2861E-02   T at   63  1
       a =  2.000      CL =  0.3995
      Cm = -0.0419     CD =  0.00684   =>   CDf =  0.00469    CDp =  0.00215

 Side 1  free  transition at x/c =  0.6948   63
 Side 2  free  transition at x/c =  0.7851   62

   5   rms: 0.1454E-05   max: -.1905E-04   D at   64  1
       a =  2.000      CL =  0.3995
      Cm = -0.0419     CD =  0.00684   =>   CDf =  0.00470    CDp =  0.00215
 plradd ia,ip,cpol           13           0  5.24115050E-03

 Point added to stored polar  1
 Point written to save file  naca651212_Re600k.base.pol                      
 Dump file unspecified or not available
 Calculating wake trajectory ...
 Calculating source influence matrix ...

 Solving BL system ...

 Side 1  free  transition at x/c =  0.6948   63
 Side 2  free  transition at x/c =  0.7851   62

   1   rms: 0.9521E-01   max: -.2138E+00   T at   62  2
       a =  2.500      CL =  0.4555
      Cm = -0.0420     CD =  0.00713   =>   CDf =  0.00463    CDp =  0.00249

 Side 1  free  transition at x/c =  0.6612   61
 Side 2  free  transition at x/c =  0.7985   62

   2   rms: 0.4142E-01   max: 0.6183E+00   D at   63  1
       a =  2.500      CL =  0.4519
      Cm = -0.0413     CD =  0.00698   =>   CDf =  0.00478    CDp =  0.00220

 Side 1  free  transition at x/c =  0.6659   62
 Side 2  free  transition at x/c =  0.7971   62

   3   rms: 0.9529E-02   max: 0.1500E+00   D at   64  1
       a =  2.500      CL =  0.4539
      Cm = -0.0416     CD =  0.00680   =>   CDf =  0.00469    CDp =  0.00212

 Side 1  free  transition at x/c =  0.6670   62
 Side 2  free  transition at x/c =  0.7965   62

   4   rms: 0.9169E-03   max: -.1685E-01   D at   64  1
       a =  2.500      CL =  0.4539
      Cm = -0.0416     CD =  0.00681   =>   CDf =  0.00465    CDp =  0.00217

 Side 1  free  transition at x/c =  0.6668   62
 Side 2  free  transition at x/c =  0.7965   62

   5   rms: 0.1061E-04   max: -.2208E-03   D at   64  1
       a =  2.500      CL =  0.4539
      Cm = -0.0416     CD =  0.00681   =>   CDf =  0.00465    CDp =  0.00216
 plradd ia,ip,cpol           14           0  5.24115050E-03

 Point added to stored polar  1
 Point written to save file  naca651212_Re600k.base.pol                      
 Dump file unspecified or not available
 Calculating wake trajectory ...
 Calculating source influence matrix ...

 Solving BL system ...

 Side 1  free  transition at x/c =  0.6668   62
 Side 2  free  transition at x/c =  0.7965   62

   1   rms: 0.1270E+00   max: -.9098E+00   D at   63  1   RLX: 0.550
       a =  3.000      CL =  0.4826
      Cm = -0.0411     CD =  0.00691   =>   CDf =  0.00465    CDp =  0.00226

 Side 1  free  transition at x/c =  0.6525   61
 Side 2  free  transition at x/c =  0.8027   62

   2   rms: 0.6012E-01   max: -.5491E+00   D at   63  1   RLX: 0.911
       a =  3.000      CL =  0.5063
      Cm = -0.0414     CD =  0.00683   =>   CDf =  0.00462    CDp =  0.00221

 Side 1  free  transition at x/c =  0.6302   59
 Side 2  free  transition at x/c =  0.8103   63

   3   rms: 0.1666E-01   max: 0.2249E+00   D at   60  1
       a =  3.000      CL =  0.5076
      Cm = -0.0411     CD =  0.00687   =>   CDf =  0.00465    CDp =  0.00222

 Side 1  free  transition at x/c =  0.6287   59
 Side 2  free  transition at x/c =  0.8089   63

   4   rms: 0.1207E-02   max: 0.1111E-01   C at   59  1
       a =  3.000      CL =  0.5076
      Cm = -0.0411     CD =  0.00687   =>   CDf =  0.00465    CDp =  0.00222

 Side 1  free  transition at x/c =  0.6284   59
 Side 2  free  transition at x/c =  0.8086   63

   5   rms: 0.8100E-05   max: -.1504E-03   D at   65  2
       a =  3.000      CL =  0.5076
      Cm = -0.0411     CD =  0.00687   =>   CDf =  0.00465    CDp =  0.00221
 plradd ia,ip,cpol           15           0  5.24115050E-03

 Point added to stored polar  1
 Point written to save file  naca651212_Re600k.base.pol                      
 Dump file unspecified or not available
 Calculating wake trajectory ...
 Calculating source influence matrix ...

 Solving BL system ...

 Side 1  free  transition at x/c =  0.6284   59
 Side 2  free  transition at x/c =  0.8086   63

   1   rms: 0.1057E+00   max: -.5359E+00   D at   60  1   RLX: 0.933
       a =  3.500      CL =  0.5572
      Cm = -0.0406     CD =  0.00694   =>   CDf =  0.00457    CDp =  0.00238

 Side 1  free  transition at x/c =  0.5774   57
 Side 2  free  transition at x/c =  0.8180   62

   2   rms: 0.2685E-01   max: 0.2425E+00   D at   59  1
       a =  3.500      CL =  0.5611
      Cm = -0.0408     CD =  0.00709   =>   CDf =  0.00479    CDp =  0.00230

 Side 1  free  transition at x/c =  0.5774   57
 Side 2  free  transition at x/c =  0.8235   63

   3   rms: 0.7402E-02   max: 0.1118E+00   D at   63  2
       a =  3.500      CL =  0.5602
      Cm = -0.0406     CD =  0.00707   =>   CDf =  0.00469    CDp =  0.00238

 Side 1  free  transition at x/c =  0.5766   57
 Side 2  free  transition at x/c =  0.8217   63

   4   rms: 0.6607E-03   max: 0.7799E-02   C at   63  2
       a =  3.500      CL =  0.5602
      Cm = -0.0405     CD =  0.00707   =>   CDf =  0.00471    CDp =  0.00236

 Side 1  free  transition at x/c =  0.5766   57
 Side 2  free  transition at x/c =  0.8215   63

   5   rms: 0.6466E-05   max: -.1085E-03   D at   65  2
       a =  3.500      CL =  0.5602
      Cm = -0.0405     CD =  0.00707   =>   CDf =  0.00471    CDp =  0.00236
 plradd ia,ip,cpol           16           0  5.24115050E-03

 Point added to stored polar  1
 Point written to save file  naca651212_Re600k.base.pol                      
 Dump file unspecified or not available
 Calculating wake trajectory ...
 Calculating source influence matrix ...

 Solving BL system ...

 Side 1  free  transition at x/c =  0.5766   57
 Side 2  free  transition at x/c =  0.8215   63

   1   rms: 0.1455E+00   max: 0.1697E+01   C at   57  1   RLX: 0.476
       a =  4.000      CL =  0.5824
      Cm = -0.0397     CD =  0.00733   =>   CDf =  0.00471    CDp =  0.00261

 Side 1  free  transition at x/c =  0.5143   52
 Side 2  free  transition at x/c =  0.8270   63

   2   rms: 0.9092E-01   max: 0.1439E+01   C at   52  1   RLX: 0.966
       a =  4.000      CL =  0.6067
      Cm = -0.0392     CD =  0.00771   =>   CDf =  0.00491    CDp =  0.00280

 Side 1  free  transition at x/c =  0.2919   37
 Side 2  free  transition at x/c =  0.8340   64

   3   rms: 0.5233E-01   max: -.1059E+01   C at   37  1   RLX: 0.472
       a =  4.000      CL =  0.6011
      Cm = -0.0384     CD =  0.00891   =>   CDf =  0.00591    CDp =  0.00300

 Side 1  free  transition at x/c =  0.3064   38
 Side 2  free  transition at x/c =  0.8349   64

   4   rms: 0.3168E-01   max: -.6521E+00   C at   38  1   RLX: 0.767
       a =  4.000      CL =  0.5972
      Cm = -0.0377     CD =  0.00877   =>   CDf =  0.00583    CDp =  0.00294

 Side 1  free  transition at x/c =  0.3196   39
 Side 2  free  transition at x/c =  0.8355   64

   5   rms: 0.5622E-02   max: -.1100E+00   C at   39  1
       a =  4.000      CL =  0.5960
      Cm = -0.0375     CD =  0.00873   =>   CDf =  0.00576    CDp =  0.00297

 Side 1  free  transition at x/c =  0.3223   39
 Side 2  free  transition at x/c =  0.8356   64

   6   rms: 0.3090E-03   max: -.6652E-02   C at   39  1
       a =  4.000      CL =  0.5960
      Cm = -0.0375     CD =  0.00873   =>   CDf =  0.00574    CDp =  0.00299

 Side 1  free  transition at x/c =  0.3225   39
 Side 2  free  transition at x/c =  0.8356   64

   7   rms: 0.1451E-05   max: -.2176E-04   C at   39  1
       a =  4.000      CL =  0.5960
      Cm = -0.0375     CD =  0.00873   =>   CDf =  0.00574    CDp =  0.00299
 plradd ia,ip,cpol           17           0  5.24115050E-03

 Point added to stored polar  1
 Point written to save file  naca651212_Re600k.base.pol                      
 Dump file unspecified or not available
 Calculating wake trajectory ...
 Calculating source influence matrix ...

 Solving BL system ...

 Side 1  free  transition at x/c =  0.3225   39
 Side 2  free  transition at x/c =  0.8356   64

   1   rms: 0.8415E+00   max: 0.1792E+02   C at   39  1   RLX: 0.084
       a =  4.500      CL =  0.5979
      Cm = -0.0371     CD =  0.00899   =>   CDf =  0.00574    CDp =  0.00325

 Side 1  free  transition at x/c =  0.2848   37
 Side 2  free  transition at x/c =  0.8368   64

   2   rms: 0.6322E+00   max: 0.1357E+02   C at   37  1   RLX: 0.111
       a =  4.500      CL =  0.5996
      Cm = -0.0366     CD =  0.00936   =>   CDf =  0.00591    CDp =  0.00345

 Side 1  free  transition at x/c =  0.2456   34
 Side 2  free  transition at x/c =  0.8383   64

   3   rms: 0.5772E+00   max: 0.1283E+02   C at   34  1   RLX: 0.117
       a =  4.500      CL =  0.6018
      Cm = -0.0363     CD =  0.00961   =>   CDf =  0.00608    CDp =  0.00353

 Side 1  free  transition at x/c =  0.2072   31
 Side 2  free  transition at x/c =  0.8398   64

   4   rms: 0.5109E+00   max: 0.1144E+02   C at   31  1   RLX: 0.131
       a =  4.500      CL =  0.6043
      Cm = -0.0360     CD =  0.00989   =>   CDf =  0.00625    CDp =  0.00364

 Side 1  free  transition at x/c =  0.1706   29
 Side 2  free  transition at x/c =  0.8412   64

   5   rms: 0.4074E+00   max: 0.9247E+01   C at   29  1   RLX: 0.162
       a =  4.500      CL =  0.6066
      Cm = -0.0356     CD =  0.01024   =>   CDf =  0.00641    CDp =  0.00383

 Side 1  free  transition at x/c =  0.1370   27
 Side 2  free  transition at x/c =  0.8429   64

   6   rms: 0.3055E+00   max: 0.6376E+01   C at   27  1   RLX: 0.235
       a =  4.500      CL =  0.6092
      Cm = -0.0350     CD =  0.01065   =>   CDf =  0.00657    CDp =  0.00407

 Side 1  free  transition at x/c =  0.1015   24
 Side 2  free  transition at x/c =  0.8451   64

   7   rms: 0.2691E+00   max: 0.6366E+01   C at   24  1   RLX: 0.236
       a =  4.500      CL =  0.6121
      Cm = -0.0347     CD =  0.01082   =>   CDf =  0.00663    CDp =  0.00419

 Side 1  free  transition at x/c =  0.0785   23
 Side 2  free  transition at x/c =  0.8468   63

   8   rms: 0.1727E+00   max: 0.3723E+01   C at   23  1   RLX: 0.403
       a =  4.500      CL =  0.6172
      Cm = -0.0345     CD =  0.01103   =>   CDf =  0.00685    CDp =  0.00418

 Side 1  free  transition at x/c =  0.0591   22
 Side 2  free  transition at x/c =  0.8485   63

   9   rms: 0.5404E-01   max: 0.9964E+00   C at   22  1
       a =  4.500      CL =  0.6248
      Cm = -0.0340     CD =  0.01140   =>   CDf =  0.00697    CDp =  0.00443

 Side 1  free  transition at x/c =  0.0489   21
 Side 2  free  transition at x/c =  0.8531   64

  10   rms: 0.7564E-02   max: -.1021E+00   D at   22  1
       a =  4.500      CL =  0.6249
      Cm = -0.0339     CD =  0.01125   =>   CDf =  0.00698    CDp =  0.00427

 Side 1  free  transition at x/c =  0.0484   21
 Side 2  free  transition at x/c =  0.8517   64

  11   rms: 0.4781E-03   max: 0.5750E-02   C at   64  2
       a =  4.500      CL =  0.6248
      Cm = -0.0339     CD =  0.01126   =>   CDf =  0.00699    CDp =  0.00426

 Side 1  free  transition at x/c =  0.0484   21
 Side 2  free  transition at x/c =  0.8515   64

  12   rms: 0.2432E-05   max: -.3894E-04   D at   66  2
       a =  4.500      CL =  0.6248
      Cm = -0.0339     CD =  0.01126   =>   CDf =  0.00700    CDp =  0.00426
 plradd ia,ip,cpol           18           0  5.24115050E-03

 Point added to stored polar  1
 Point written to save file  naca651212_Re600k.base.pol                      
 Dump file unspecified or not available
 Calculating wake trajectory ...
 Calculating source influence matrix ...

 Solving BL system ...

 Side 1  free  transition at x/c =  0.0484   21
 Side 2  free  transition at x/c =  0.8515   64

   1   rms: 0.1577E+00   max: 0.1856E+01   C at   21  1   RLX: 0.367
       a =  5.000      CL =  0.6403
      Cm = -0.0331     CD =  0.01167   =>   CDf =  0.00700    CDp =  0.00467

 Side 1  free  transition at x/c =  0.0408   20
 Side 2  free  transition at x/c =  0.8566   64

   2   rms: 0.6183E-01   max: -.5021E+00   D at   20  1   RLX: 0.996
       a =  5.000      CL =  0.6733
      Cm = -0.0328     CD =  0.01186   =>   CDf =  0.00696    CDp =  0.00490

 Side 1  free  transition at x/c =  0.0343   20
 Side 2  free  transition at x/c =  0.8659   65

   3   rms: 0.1917E-01   max: 0.1277E+00   D at   19  1
       a =  5.000      CL =  0.6686
      Cm = -0.0319     CD =  0.01228   =>   CDf =  0.00696    CDp =  0.00532

 Side 1  free  transition at x/c =  0.0326   19
 Side 2  free  transition at x/c =  0.8675   65

   4   rms: 0.1657E-01   max: -.1914E+00   D at   19  1
       a =  5.000      CL =  0.6701
      Cm = -0.0322     CD =  0.01213   =>   CDf =  0.00691    CDp =  0.00521

 Side 1  free  transition at x/c =  0.0330   19
 Side 2  free  transition at x/c =  0.8672   65

   5   rms: 0.4429E-03   max: 0.6031E-02   D at   19  1
       a =  5.000      CL =  0.6701
      Cm = -0.0322     CD =  0.01214   =>   CDf =  0.00695    CDp =  0.00519

 Side 1  free  transition at x/c =  0.0330   19
 Side 2  free  transition at x/c =  0.8672   65

   6   rms: 0.5226E-05   max: -.1488E-04   D at   65  2
       a =  5.000      CL =  0.6701
      Cm = -0.0322     CD =  0.01214   =>   CDf =  0.00695    CDp =  0.00519
 plradd ia,ip,cpol           19           0  3.45869060E-03

 Point added to stored polar  1
 Point written to save file  naca651212_Re600k.base.pol                      
 Dump file unspecified or not available
 Calculating wake trajectory ...
 Calculating source influence matrix ...

 Solving BL system ...

 Side 1  free  transition at x/c =  0.0330   19
 Side 2  free  transition at x/c =  0.8672   65

   1   rms: 0.8918E-01   max: 0.5367E+00   T at   19  1   RLX: 0.965
       a =  5.500      CL =  0.7157
      Cm = -0.0307     CD =  0.01262   =>   CDf =  0.00680    CDp =  0.00583

 Side 1  free  transition at x/c =  0.0290   20
 Side 2  free  transition at x/c =  0.8792   65

   2   rms: 0.2270E-01   max: -.2453E+00   C at   65  2
       a =  5.500      CL =  0.7157
      Cm = -0.0305     CD =  0.01282   =>   CDf =  0.00687    CDp =  0.00595

 Side 1  free  transition at x/c =  0.0284   20
 Side 2  free  transition at x/c =  0.8855   65

   3   rms: 0.3463E-02   max: -.5181E-01   D at   65  2
       a =  5.500      CL =  0.7151
      Cm = -0.0304     CD =  0.01286   =>   CDf =  0.00680    CDp =  0.00605

 Side 1  free  transition at x/c =  0.0284   20
 Side 2  free  transition at x/c =  0.8840   65

   4   rms: 0.2416E-03   max: 0.3167E-02   D at   67  2
       a =  5.500      CL =  0.7152
      Cm = -0.0304     CD =  0.01286   =>   CDf =  0.00681    CDp =  0.00605

 Side 1  free  transition at x/c =  0.0284   20
 Side 2  free  transition at x/c =  0.8841   65

   5   rms: 0.1129E-05   max: -.9037E-05   C at   65  2
       a =  5.500      CL =  0.7152
      Cm = -0.0304     CD =  0.01286   =>   CDf =  0.00681    CDp =  0.00605
 plradd ia,ip,cpol           20           0  3.45869060E-03

 Point added to stored polar  1
 Point written to save file  naca651212_Re600k.base.pol                      
 Dump file unspecified or not available
 Calculating wake trajectory ...
 Calculating source influence matrix ...

 Solving BL system ...

 Side 1  free  transition at x/c =  0.0284   20
 Side 2  free  transition at x/c =  0.8841   65

   1   rms: 0.9215E-01   max: 0.4654E+00   T at   20  1
       a =  6.000      CL =  0.7572
      Cm = -0.0280     CD =  0.01375   =>   CDf =  0.00681    CDp =  0.00694

 MRCHDU: Convergence failed at  20  side 1    Res =  0.5246E+01
 MRCHDU: Convergence failed at  21  side 1    Res =  0.5066E+02
 MRCHDU: Convergence failed at  22  side 1    Res =  0.2610E+02
 MRCHDU: Convergence failed at  23  side 1    Res =  0.2630E+02
 MRCHDU: Convergence failed at  24  side 1    Res =  0.2946E+02
 MRCHDU: Convergence failed at  25  side 1    Res =  0.3620E+02
 MRCHDU: Convergence failed at  26  side 1    Res =  0.5651E+02
 MRCHDU: Convergence failed at  27  side 1    Res =  0.1212E+03
 MRCHDU: Convergence failed at  28  side 1    Res =  0.4629E+03
 MRCHDU: Convergence failed at  29  side 1    Res =  0.1015E+03
 MRCHDU: Convergence failed at  30  side 1    Res =  0.6041E+02
 MRCHDU: Convergence failed at  31  side 1    Res =  0.4297E+02
 MRCHDU: Convergence failed at  32  side 1    Res =  0.3386E+02
 MRCHDU: Convergence failed at  33  side 1    Res =  0.2896E+02
 MRCHDU: Convergence failed at  34  side 1    Res =  0.2679E+02
 MRCHDU: Convergence failed at  35  side 1    Res =  0.2404E+02
 MRCHDU: Convergence failed at  36  side 1    Res =  0.2302E+02
 MRCHDU: Convergence failed at  37  side 1    Res =  0.2127E+02
 MRCHDU: Convergence failed at  38  side 1    Res =  0.2080E+02
 MRCHDU: Convergence failed at  39  side 1    Res =  0.2043E+02
 MRCHDU: Convergence failed at  40  side 1    Res =  0.1945E+02
 MRCHDU: Convergence failed at  41  side 1    Res =  0.1930E+02
 MRCHDU: Convergence failed at  42  side 1    Res =  0.1757E+02
 MRCHDU: Convergence failed at  43  side 1    Res =  0.1781E+02
 MRCHDU: Convergence failed at  44  side 1    Res =  0.1799E+02
 MRCHDU: Convergence failed at  45  side 1    Res =  0.1815E+02
 MRCHDU: Convergence failed at  46  side 1    Res =  0.1838E+02
 MRCHDU: Convergence failed at  47  side 1    Res =  0.1870E+02
 MRCHDU: Convergence failed at  48  side 1    Res =  0.1912E+02
 MRCHDU: Convergence failed at  49  side 1    Res =  0.1962E+02
 MRCHDU: Convergence failed at  50  side 1    Res =  0.2018E+02
 MRCHDU: Convergence failed at  51  side 1    Res =  0.2084E+02
 MRCHDU: Convergence failed at  52  side 1    Res =  0.3904E+02
 MRCHDU: Convergence failed at  53  side 1    Res =  0.5412E+02
 MRCHDU: Convergence failed at  54  side 1    Res =  0.4616E+02
 MRCHDU: Convergence failed at  55  side 1    Res =  0.3852E+02
 MRCHDU: Convergence failed at  56  side 1    Res =  0.3343E+02
 MRCHDU: Convergence failed at  57  side 1    Res =  0.2942E+02
 MRCHDU: Convergence failed at  58  side 1    Res =  0.2620E+02
 MRCHDU: Convergence failed at  59  side 1    Res =  0.5849E+02
 MRCHDU: Convergence failed at  60  side 1    Res =  0.4205E+02
 MRCHDU: Convergence failed at  61  side 1    Res =  0.4730E+02
 MRCHDU: Convergence failed at  62  side 1    Res =  0.5440E+02
 MRCHDU: Convergence failed at  63  side 1    Res =  0.6403E+02
 MRCHDU: Convergence failed at  64  side 1    Res =  0.7684E+02
 MRCHDU: Convergence failed at  65  side 1    Res =  0.8086E+02
 MRCHDU: Convergence failed at  66  side 1    Res =  0.8218E+02
 MRCHDU: Convergence failed at  67  side 1    Res =  0.1711E+03
 MRCHDU: Convergence failed at  68  side 1    Res =  0.5354E+02
 MRCHDU: Convergence failed at  69  side 1    Res =  0.5744E+03
 MRCHDU: Convergence failed at  70  side 1    Res =  0.8835E+03
 MRCHDU: Convergence failed at  71  side 1    Res =  0.2299E+03
 MRCHDU: Convergence failed at  72  side 1    Res =  0.1307E+03
 MRCHDU: Convergence failed at  73  side 1    Res =  0.9094E+02
 MRCHDU: Convergence failed at  74  side 1    Res =  0.7617E+02
 MRCHDU: Convergence failed at  75  side 1    Res =  0.5604E+02
 MRCHDU: Convergence failed at  76  side 1    Res =  0.4759E+02
 MRCHDU: Convergence failed at  77  side 1    Res =  0.4059E+02
 MRCHDU: Convergence failed at  78  side 1    Res =  0.4393E+02
 MRCHDU: Convergence failed at  79  side 1    Res =  0.4761E+02
 MRCHDU: Convergence failed at  80  side 1    Res =  0.7425E+02
 MRCHDU: Convergence failed at  81  side 1    Res =  0.8313E+02
 MRCHDU: Convergence failed at  82  side 1    Res =  0.9396E+02
 MRCHDU: Convergence failed at  83  side 1    Res =  0.4229E+03
 MRCHDU: Convergence failed at  84  side 1    Res =  0.4756E+03
 MRCHDU: Convergence failed at  85  side 1    Res =  0.2811E+03
 MRCHDU: Convergence failed at  86  side 1    Res =  0.2093E+03
 MRCHDU: Convergence failed at  87  side 1    Res =  0.1733E+03
 MRCHDU: Convergence failed at  88  side 1    Res =  0.1472E+03
 Side 1  free  transition at x/c =  0.0250   20
 Side 2  free  transition at x/c =  0.8999   66

   2   rms: 0.1466E+01   max: 0.5935E+01   D at   76  2   RLX: 0.253
       a =  6.000      CL =  1.9127
      Cm = -0.4189     CD =  0.00387   =>   CDf =  0.00143    CDp =  0.00244

 MRCHDU: Convergence failed at  22  side 1    Res =  0.1827E+00
 MRCHDU: Convergence failed at  23  side 1    Res =  0.1759E+00
 MRCHDU: Convergence failed at  24  side 1    Res =  0.1661E+00
 MRCHDU: Convergence failed at  25  side 1    Res =  0.1569E+00
 MRCHDU: Convergence failed at  26  side 1    Res =  0.1479E+00
 MRCHDU: Convergence failed at  27  side 1    Res =  0.1380E+00
 MRCHDU: Convergence failed at  28  side 1    Res =  0.1252E+00
 MRCHDU: Convergence failed at  29  side 1    Res =  0.1102E+00
 MRCHDU: Convergence failed at  30  side 1    Res =  0.8453E-01
 MRCHDU: Convergence failed at  41  side 1    Res =  0.2098E+00
 MRCHDU: Convergence failed at  42  side 1    Res =  0.1346E+00
 Side 1  free  transition at x/c =  0.0261   20
 Side 2  free  transition at x/c =  0.9123   67
 idif Ue xi dudx           1  0.14100689      2.95686722E-03   47.687935    
 Uenew xinew           2  2.21708950E-04  4.64916229E-06

   3   rms: 0.5539E+00   max: -.1913E+01   C at   67  2   RLX: 0.261
       a =  6.000      CL =  1.1559
      Cm = -0.2013     CD =  0.03545   =>   CDf =  0.00293    CDp =  0.03252

 MRCHDU: Convergence failed at  29  side 1    Res =  0.3663E+00
 MRCHDU: Convergence failed at  30  side 1    Res =  0.5445E+00
 MRCHDU: Convergence failed at  31  side 1    Res =  0.1980E-01
 MRCHDU: Convergence failed at  42  side 1    Res =  0.1478E+00
 MRCHDU: Convergence failed at  43  side 1    Res =  0.8356E+00
 MRCHDU: Convergence failed at  44  side 1    Res =  0.3158E+00
 MRCHDU: Convergence failed at  45  side 1    Res =  0.2589E+00
 MRCHDU: Convergence failed at  46  side 1    Res =  0.1848E+00
 MRCHDU: Convergence failed at  47  side 1    Res =  0.8400E-01
 Side 1  free  transition at x/c =  0.0279   19
 Side 2  free  transition at x/c =  0.9378   70

   4   rms: 0.3775E+01   max: -.6628E+02   T at    2  2   RLX: 0.008
       a =  6.000      CL =  0.9572
      Cm = -0.1619     CD =  0.03859   =>   CDf =  0.00293    CDp =  0.03565

 MRCHDU: Convergence failed at  31  side 1    Res =  0.1327E+00
 MRCHDU: Convergence failed at  32  side 1    Res =  0.2246E+00
 MRCHDU: Convergence failed at  47  side 1    Res =  0.5603E+00
 MRCHDU: Convergence failed at  48  side 1    Res =  0.8605E+00
 MRCHDU: Convergence failed at  49  side 1    Res =  0.1955E+00
 MRCHDU: Convergence failed at  50  side 1    Res =  0.1564E+00
 Side 1  free  transition at x/c =  0.0280   19
 Side 2  free  transition at x/c =  0.9383   70

   5   rms: 0.5085E+00   max: -.2896E+01   C at   70  2   RLX: 0.173
       a =  6.000      CL =  0.7369
      Cm = -0.1024     CD =  0.03941   =>   CDf =  0.00241    CDp =  0.03699

 MRCHDU: Convergence failed at  51  side 1    Res =  0.1384E+00
 MRCHDU: Convergence failed at  52  side 1    Res =  0.5572E+00
 Side 1  free  transition at x/c =  0.0320   19
 Side 2  free  transition at x/c =  0.9551   71

   6   rms: 0.5467E+01   max: -.5864E+02   T at   19  1   RLX: 0.009
       a =  6.000      CL =  0.5694
      Cm = -0.0311     CD =  0.05610   =>   CDf =  0.00225    CDp =  0.05385

 Side 1  free  transition at x/c =  0.0342   20
 Side 2  free  transition at x/c =  0.9582   71

   7   rms: 0.1106E+01   max: -.7803E+01   D at   43  1   RLX: 0.064
       a =  6.000      CL =  0.4378
      Cm =  0.0128     CD =  0.04024   =>   CDf =  0.00309    CDp =  0.03716

 Side 1  free  transition at x/c =  0.0344   20
 Side 2  free  transition at x/c =  0.9602   71

   8   rms: 0.3050E+01   max: -.1942E+02   D at   43  1   RLX: 0.026
       a =  6.000      CL =  0.4432
      Cm =  0.0093     CD =  0.03942   =>   CDf =  0.00333    CDp =  0.03609

 MRCHDU: Convergence failed at  43  side 1    Res =  0.7450E-01
 Side 1  free  transition at x/c =  0.0345   20
 Side 2  free  transition at x/c =  0.9628   71

   9   rms: 0.1950E+01   max: 0.1295E+02   D at   43  1   RLX: 0.109
       a =  6.000      CL =  0.4484
      Cm =  0.0078     CD =  0.04023   =>   CDf =  0.00356    CDp =  0.03667

 Side 1  free  transition at x/c =  0.0353   20
 Side 2  free  transition at x/c =  0.9608   71

  10   rms: 0.1232E+01   max: -.7506E+01   D at   43  1   RLX: 0.067
       a =  6.000      CL =  0.4386
      Cm =  0.0133     CD =  0.03940   =>   CDf =  0.00326    CDp =  0.03613

 Side 1  free  transition at x/c =  0.0358   20
 Side 2  free  transition at x/c =  0.9700   72

  11   rms: 0.1533E+01   max: -.8959E+01   D at   43  1   RLX: 0.056
       a =  6.000      CL =  0.4482
      Cm =  0.0092     CD =  0.03936   =>   CDf =  0.00347    CDp =  0.03589

 Side 1  free  transition at x/c =  0.0360   20
 Side 2  free  transition at x/c =  0.9727   72

  12   rms: 0.1050E+01   max: -.5776E+01   D at   43  1   RLX: 0.087
       a =  6.000      CL =  0.4688
      Cm =  0.0039     CD =  0.03929   =>   CDf =  0.00371    CDp =  0.03558

 Side 1  free  transition at x/c =  0.0362   20
 Side 2  free  transition at x/c =  0.9744   72

  13   rms: 0.1099E+01   max: -.1148E+02   C at   72  2   RLX: 0.044
       a =  6.000      CL =  0.4773
      Cm =  0.0014     CD =  0.04065   =>   CDf =  0.00402    CDp =  0.03663

 Side 1  free  transition at x/c =  0.0365   20
 Side 2  free  transition at x/c =  0.9728   72

  14   rms: 0.6180E+00   max: -.3324E+01   D at   37  1   RLX: 0.150
       a =  6.000      CL =  0.4903
      Cm = -0.0003     CD =  0.03832   =>   CDf =  0.00386    CDp =  0.03446

 Side 1  free  transition at x/c =  0.0365   20
 Side 2  free  transition at x/c =  0.9748   72

  15   rms: 0.6423E+00   max: -.4124E+01   D at   29  1   RLX: 0.121
       a =  6.000      CL =  0.5061
      Cm = -0.0012     CD =  0.03794   =>   CDf =  0.00420    CDp =  0.03374

 Side 1  free  transition at x/c =  0.0359   20
 Side 2  free  transition at x/c =  0.9711   72

  16   rms: 0.3990E+00   max: -.2410E+01   D at   28  1   RLX: 0.207
       a =  6.000      CL =  0.5255
      Cm = -0.0024     CD =  0.03519   =>   CDf =  0.00452    CDp =  0.03067

 Side 1  free  transition at x/c =  0.0352   20
 Side 2  free  transition at x/c =  0.9669   72

  17   rms: 0.3363E+00   max: -.1569E+01   D at   28  1   RLX: 0.319
       a =  6.000      CL =  0.5543
      Cm = -0.0020     CD =  0.03045   =>   CDf =  0.00464    CDp =  0.02580

 Side 1  free  transition at x/c =  0.0334   20
 Side 2  free  transition at x/c =  0.9548   71

  18   rms: 0.5346E+00   max: 0.2676E+01   C at   71  2   RLX: 0.395
       a =  6.000      CL =  0.6010
      Cm =  0.0019     CD =  0.02499   =>   CDf =  0.00478    CDp =  0.02021

 MRCHDU: Convergence failed at  20  side 1    Res =  0.4018E+01
 MRCHDU: Convergence failed at  21  side 1    Res =  0.4743E+02
 MRCHDU: Convergence failed at  22  side 1    Res =  0.1525E+02
 MRCHDU: Convergence failed at  23  side 1    Res =  0.1299E+02
 MRCHDU: Convergence failed at  24  side 1    Res =  0.1625E+02
 MRCHDU: Convergence failed at  25  side 1    Res =  0.1649E+02
 MRCHDU: Convergence failed at  26  side 1    Res =  0.1865E+02
 Side 1  free  transition at x/c =  0.0277   19
 Side 2  free  transition at x/c =  0.9326   69

  19   rms: 0.7953E+00   max: -.3352E+01   D at   59  1   RLX: 0.149
       a =  6.000      CL =  0.6514
      Cm =  0.0105     CD =  0.01956   =>   CDf =  0.00390    CDp =  0.01565

 MRCHDU: Convergence failed at  28  side 1    Res =  0.6685E+00
 Side 1  free  transition at x/c =  0.0271   20
 Side 2  free  transition at x/c =  0.9276   68

  20   rms: 0.8936E+00   max: 0.5294E+01   D at    2  1   RLX: 0.172
       a =  6.000      CL =  0.6938
      Cm = -0.0171     CD =  0.02574   =>   CDf =  0.00381    CDp =  0.02193

 Side 1  free  transition at x/c =  0.0265   20
 Side 2  free  transition at x/c =  0.9069   66

  21   rms: 0.1236E+01   max: -.3619E+01   D at   75  1   RLX: 0.138
       a =  6.000      CL =  0.7766
      Cm = -0.0242     CD =  0.02299   =>   CDf =  0.00462    CDp =  0.01837

 Side 1  free  transition at x/c =  0.0256   20
 Side 2  free  transition at x/c =  0.8874   65

  22   rms: 0.7525E+00   max: -.2930E+01   D at   29  1   RLX: 0.171
       a =  6.000      CL =  0.8223
      Cm = -0.0348     CD =  0.02078   =>   CDf =  0.00537    CDp =  0.01540

 Side 1  free  transition at x/c =  0.0257   21
 Side 2  free  transition at x/c =  0.8809   64

  23   rms: 0.5398E+00   max: -.3295E+01   D at   30  1   RLX: 0.152
       a =  6.000      CL =  0.8093
      Cm = -0.0352     CD =  0.01831   =>   CDf =  0.00624    CDp =  0.01207

 MRCHDU: Convergence failed at  30  side 1    Res =  0.8913E-01
 Side 1  free  transition at x/c =  0.0266   21
 Side 2  free  transition at x/c =  0.8838   64

  24   rms: 0.6652E+00   max: -.4451E+01   D at   30  1   RLX: 0.112
       a =  6.000      CL =  0.7873
      Cm = -0.0319     CD =  0.01706   =>   CDf =  0.00636    CDp =  0.01070

 MRCHDU: Convergence failed at  30  side 1    Res =  0.1911E+00
 MRCHDU: Convergence failed at  31  side 1    Res =  0.3590E+00
 MRCHDU: Convergence failed at  32  side 1    Res =  0.2531E+00
 MRCHDU: Convergence failed at  33  side 1    Res =  0.2197E+00
 MRCHDU: Convergence failed at  34  side 1    Res =  0.1936E+00
 MRCHDU: Convergence failed at  35  side 1    Res =  0.1151E+00
 MRCHDU: Convergence failed at  36  side 1    Res =  0.1489E+00
 MRCHDU: Convergence failed at  37  side 1    Res =  0.7230E-01
 Side 1  free  transition at x/c =  0.0281   21
 Side 2  free  transition at x/c =  0.8885   64
 idif Ue xi dudx           1  0.17278354      4.03070450E-03   42.866833    
 Uenew xinew           2  2.19684262E-02  5.12480736E-04

  25   rms: 0.1896E+01   max: -.9772E+01   D at   37  1   RLX: 0.051
       a =  6.000      CL =  0.6516
      Cm = -0.0224     CD =  0.01791   =>   CDf =  0.00554    CDp =  0.01237

 Side 1  free  transition at x/c =  0.0320   20
 Side 2  free  transition at x/c =  0.9054   66

  26   rms: 0.1833E+01   max: -.8610E+01   T at   20  1   RLX: 0.058
       a =  6.000      CL =  0.6023
      Cm = -0.0207     CD =  0.02077   =>   CDf =  0.00469    CDp =  0.01607

 Side 1  free  transition at x/c =  0.0380   21
 Side 2  free  transition at x/c =  0.9190   67

  27   rms: 0.6881E+00   max: -.2894E+01   D at   29  1   RLX: 0.173
       a =  6.000      CL =  0.6330
      Cm = -0.0206     CD =  0.01327   =>   CDf =  0.00540    CDp =  0.00787

 Side 1  free  transition at x/c =  0.0341   21
 Side 2  free  transition at x/c =  0.9163   67

  28   rms: 0.3507E+00   max: 0.2192E+01   T at   21  1   RLX: 0.427
       a =  6.000      CL =  0.6951
      Cm = -0.0259     CD =  0.01401   =>   CDf =  0.00585    CDp =  0.00816

 MRCHDU: Convergence failed at  21  side 1    Res =  0.1082E+02
 MRCHDU: Convergence failed at  22  side 1    Res =  0.4794E+02
 MRCHDU: Convergence failed at  23  side 1    Res =  0.9184E+02
 MRCHDU: Convergence failed at  24  side 1    Res =  0.1799E+02
 MRCHDU: Convergence failed at  25  side 1    Res =  0.3331E+02
 MRCHDU: Convergence failed at  26  side 1    Res =  0.6458E+02
 MRCHDU: Convergence failed at  27  side 1    Res =  0.9655E+02
 MRCHDU: Convergence failed at  28  side 1    Res =  0.1049E+03
 MRCHDU: Convergence failed at  29  side 1    Res =  0.3601E+02
 MRCHDU: Convergence failed at  30  side 1    Res =  0.7325E+02
 MRCHDU: Convergence failed at  31  side 1    Res =  0.8994E+03
 MRCHDU: Convergence failed at  32  side 1    Res =  0.4133E+02
 MRCHDU: Convergence failed at  33  side 1    Res =  0.1466E+04
 MRCHDU: Convergence failed at  34  side 1    Res =  0.1819E+03
 MRCHDU: Convergence failed at  35  side 1    Res =  0.5565E+03
 MRCHDU: Convergence failed at  36  side 1    Res =  0.1368E+02
 MRCHDU: Convergence failed at  37  side 1    Res =  0.1800E+02
 MRCHDU: Convergence failed at  38  side 1    Res =  0.2170E+02
 MRCHDU: Convergence failed at  39  side 1    Res =  0.2603E+02
 MRCHDU: Convergence failed at  40  side 1    Res =  0.3303E+02
 MRCHDU: Convergence failed at  41  side 1    Res =  0.4004E+02
 MRCHDU: Convergence failed at  42  side 1    Res =  0.5553E+02
 MRCHDU: Convergence failed at  43  side 1    Res =  0.8252E+02
 MRCHDU: Convergence failed at  44  side 1    Res =  0.2532E+02
 MRCHDU: Convergence failed at  45  side 1    Res =  0.3069E+02
 MRCHDU: Convergence failed at  46  side 1    Res =  0.3237E+02
 MRCHDU: Convergence failed at  47  side 1    Res =  0.3047E+02
 MRCHDU: Convergence failed at  48  side 1    Res =  0.2232E+02
 MRCHDU: Convergence failed at  49  side 1    Res =  0.1045E+02
 MRCHDU: Convergence failed at  50  side 1    Res =  0.7520E+02
 MRCHDU: Convergence failed at  51  side 1    Res =  0.2764E+02
 MRCHDU: Convergence failed at  52  side 1    Res =  0.1515E+02
 MRCHDU: Convergence failed at  53  side 1    Res =  0.1502E+02
 MRCHDU: Convergence failed at  54  side 1    Res =  0.4308E+02
 MRCHDU: Convergence failed at  55  side 1    Res =  0.3266E+02
 MRCHDU: Convergence failed at  56  side 1    Res =  0.3951E+02
 MRCHDU: Convergence failed at  57  side 1    Res =  0.4672E+02
 MRCHDU: Convergence failed at  58  side 1    Res =  0.3275E+02
 MRCHDU: Convergence failed at  59  side 1    Res =  0.4399E+02
 MRCHDU: Convergence failed at  60  side 1    Res =  0.3516E+02
 MRCHDU: Convergence failed at  61  side 1    Res =  0.2573E+03
 MRCHDU: Convergence failed at  62  side 1    Res =  0.9231E+02
 MRCHDU: Convergence failed at  63  side 1    Res =  0.5341E+02
 MRCHDU: Convergence failed at  64  side 1    Res =  0.7170E+02
 MRCHDU: Convergence failed at  65  side 1    Res =  0.6285E+02
 MRCHDU: Convergence failed at  66  side 1    Res =  0.2880E+02
 MRCHDU: Convergence failed at  67  side 1    Res =  0.3060E+02
 MRCHDU: Convergence failed at  68  side 1    Res =  0.3123E+02
 MRCHDU: Convergence failed at  69  side 1    Res =  0.3670E+02
 MRCHDU: Convergence failed at  70  side 1    Res =  0.1277E+03
 MRCHDU: Convergence failed at  71  side 1    Res =  0.3405E+03
 MRCHDU: Convergence failed at  72  side 1    Res =  0.3157E+05
 MRCHDU: Convergence failed at  73  side 1    Res =  0.1768E+03
 MRCHDU: Convergence failed at  74  side 1    Res =  0.2257E+03
 MRCHDU: Convergence failed at  75  side 1    Res =  0.2177E+03
 MRCHDU: Convergence failed at  76  side 1    Res =  0.1706E+03
 MRCHDU: Convergence failed at  77  side 1    Res =  0.1559E+03
 MRCHDU: Convergence failed at  78  side 1    Res =  0.2988E+03
 MRCHDU: Convergence failed at  79  side 1    Res =  0.2114E+03
 MRCHDU: Convergence failed at  80  side 1    Res =  0.1264E+03
 MRCHDU: Convergence failed at  81  side 1    Res =  0.1127E+03
 MRCHDU: Convergence failed at  82  side 1    Res =  0.1013E+03
 MRCHDU: Convergence failed at  83  side 1    Res =  0.9094E+02
 MRCHDU: Convergence failed at  84  side 1    Res =  0.1220E+03
 MRCHDU: Convergence failed at  85  side 1    Res =  0.9414E+02
 MRCHDU: Convergence failed at  86  side 1    Res =  0.7305E+02
 MRCHDU: Convergence failed at  87  side 1    Res =  0.5558E+02
 MRCHDU: Convergence failed at  88  side 1    Res =  0.8243E+02
 Side 1  free  transition at x/c =  0.0268   20
 Side 2  free  transition at x/c =  0.9103   67

  29   rms: 0.1087E+01   max: 0.5901E+01   D at   77  2   RLX: 0.213
       a =  6.000      CL =  1.6391
      Cm = -0.3587     CD =  0.00745   =>   CDf =  0.00178    CDp =  0.00567

 MRCHDU: Convergence failed at  32  side 1    Res =  0.2324E+00
 MRCHDU: Convergence failed at  77  side 2    Res =  0.1516E+02
 MRCHDU: Convergence failed at  78  side 2    Res =  0.4652E+03
 MRCHDU: Convergence failed at  79  side 2    Res =  0.2478E+01
 MRCHDU: Convergence failed at  80  side 2    Res =  0.1591E+01
 MRCHDU: Convergence failed at  81  side 2    Res =  0.3116E+01
 Side 1  free  transition at x/c =  0.0289   20
 Side 2  free  transition at x/c =  0.9329   68
 idif Ue xi dudx           1  0.15219289      3.14772129E-03   48.350182    
 Uenew xinew           2  9.45261680E-03  1.95503235E-04

  30   rms: 0.5608E+00   max: -.3475E+01   T at   20  1   RLX: 0.144
       a =  6.000      CL =  1.0560
      Cm = -0.1854     CD =  0.04898   =>   CDf =  0.00236    CDp =  0.04662

 MRCHDU: Convergence failed at  32  side 1    Res =  0.4867E+00
 MRCHDU: Convergence failed at  33  side 1    Res =  0.1278E+01
 MRCHDU: Convergence failed at  34  side 1    Res =  0.8756E+00
 MRCHDU: Convergence failed at  35  side 1    Res =  0.8402E+00
 MRCHDU: Convergence failed at  36  side 1    Res =  0.7984E+00
 MRCHDU: Convergence failed at  37  side 1    Res =  0.7541E+00
 MRCHDU: Convergence failed at  38  side 1    Res =  0.7072E+00
 MRCHDU: Convergence failed at  39  side 1    Res =  0.6568E+00
 MRCHDU: Convergence failed at  40  side 1    Res =  0.6032E+00
 MRCHDU: Convergence failed at  41  side 1    Res =  0.5446E+00
 MRCHDU: Convergence failed at  42  side 1    Res =  0.4805E+00
 MRCHDU: Convergence failed at  43  side 1    Res =  0.4061E+00
 MRCHDU: Convergence failed at  44  side 1    Res =  0.3129E+00
 MRCHDU: Convergence failed at  45  side 1    Res =  0.1650E+00
 Side 1  free  transition at x/c =  0.0328   19
 Side 2  free  transition at x/c =  0.9532   71

  31   rms: 0.5863E+00   max: -.4829E+01   T at    2  2   RLX: 0.104
       a =  6.000      CL =  0.7474
      Cm = -0.1208     CD =  0.04707   =>   CDf =  0.00208    CDp =  0.04498

 Side 1  free  transition at x/c =  0.0318   19
 Side 2  free  transition at x/c =  0.9632   71

  32   rms: 0.2433E+01   max: 0.2081E+02   C at   71  2   RLX: 0.055
       a =  6.000      CL =  0.7178
      Cm = -0.0971     CD =  0.05206   =>   CDf =  0.00215    CDp =  0.04991

 Side 1  free  transition at x/c =  0.0277   19
 Side 2  free  transition at x/c =  0.9582   71

  33   rms: 0.4868E+00   max: -.5439E+01   C at   71  2   RLX: 0.092
       a =  6.000      CL =  0.6748
      Cm = -0.0911     CD =  0.05301   =>   CDf =  0.00208    CDp =  0.05093

 Side 1  free  transition at x/c =  0.0287   19
 Side 2  free  transition at x/c =  0.9616   71

  34   rms: 0.4513E+00   max: -.2109E+01   T at   19  1   RLX: 0.237
       a =  6.000      CL =  0.5756
      Cm = -0.0657     CD =  0.05021   =>   CDf =  0.00214    CDp =  0.04807

 Side 1  free  transition at x/c =  0.0328   19
 Side 2 forced transition at x/c =  1.0000   75

  35   rms: 0.5987E+00   max: -.6601E+01   T at   20  1   RLX: 0.076
       a =  6.000      CL =  0.5695
      Cm = -0.0585     CD =  0.05605   =>   CDf =  0.00224    CDp =  0.05382

 Side 1  free  transition at x/c =  0.0315   19
 Side 2 forced transition at x/c =  1.0000   75

  36   rms: 0.5131E+00   max: -.2393E+01   D at   46  1   RLX: 0.209
       a =  6.000      CL =  0.5146
      Cm = -0.0493     CD =  0.05251   =>   CDf =  0.00219    CDp =  0.05033

 MRCHDU: Convergence failed at  46  side 1    Res =  0.9300E-01
 MRCHDU: Convergence failed at  47  side 1    Res =  0.4711E-04
 Side 1  free  transition at x/c =  0.0372   20
 Side 2 forced transition at x/c =  1.0000   75
 idif Ue xi dudx           1  0.17386842      2.62081623E-03   66.341324    
 Uenew xinew           2  2.53072067E-04  3.81469727E-06

  37   rms: 0.6820E+00   max: -.4982E+01   T at   20  1   RLX: 0.100
       a =  6.000      CL =  0.4600
      Cm = -0.0428     CD =  0.05364   =>   CDf =  0.00241    CDp =  0.05122

 MRCHDU: Convergence failed at  45  side 1    Res =  0.7190E-01
 MRCHDU: Convergence failed at  46  side 1    Res =  0.2994E-04
 Side 1  free  transition at x/c =  0.0428   19
 Side 2 forced transition at x/c =  1.0000   76

  38   rms: 0.9926E+00   max: 0.1253E+02   T at    2  2   RLX: 0.094
       a =  6.000      CL =  0.5007
      Cm = -0.0515     CD =  0.05650   =>   CDf =  0.00232    CDp =  0.05419

 MRCHDU: Convergence failed at  46  side 1    Res =  0.6881E-01
 MRCHDU: Convergence failed at  47  side 1    Res =  0.5598E-04
 Side 1  free  transition at x/c =  0.0417   20
 Side 2 forced transition at x/c =  1.0000   75

  39   rms: 0.1234E+01   max: -.1312E+02   T at   21  1   RLX: 0.038
       a =  6.000      CL =  0.5161
      Cm = -0.0507     CD =  0.05843   =>   CDf =  0.00238    CDp =  0.05605

 MRCHDU: Convergence failed at  46  side 1    Res =  0.2273E-04
 MRCHDU: Convergence failed at  47  side 1    Res =  0.8440E-03
 Side 1  free  transition at x/c =  0.0402   20
 Side 2 forced transition at x/c =  1.0000   75
 idif Ue xi dudx           1  0.17976901      2.74324417E-03   65.531540    
 Uenew xinew           2  8.27287417E-03  1.26242638E-04

  40   rms: 0.7231E+00   max: -.6606E+01   T at   20  1   RLX: 0.076
       a =  6.000      CL =  0.5068
      Cm = -0.0509     CD =  0.06013   =>   CDf =  0.00244    CDp =  0.05769

 Side 1  free  transition at x/c =  0.0429   19
 Side 2 forced transition at x/c =  1.0000   76

  41   rms: 0.5062E+00   max: -.2149E+01   D at   28  1   RLX: 0.233
       a =  6.000      CL =  0.4939
      Cm = -0.0401     CD =  0.04329   =>   CDf =  0.00311    CDp =  0.04018

 Side 1  free  transition at x/c =  0.0450   21
 Side 2 forced transition at x/c =  1.0000   75

  42   rms: 0.5600E+00   max: -.2868E+01   C at   21  1   RLX: 0.174
       a =  6.000      CL =  0.5041
      Cm = -0.0341     CD =  0.04185   =>   CDf =  0.00349    CDp =  0.03836

 Side 1  free  transition at x/c =  0.0396   20
 Side 2 forced transition at x/c =  1.0000   75

  43   rms: 0.4984E+00   max: -.1955E+01   D at   29  1   RLX: 0.256
       a =  6.000      CL =  0.5320
      Cm = -0.0300     CD =  0.03692   =>   CDf =  0.00352    CDp =  0.03340

 Side 1  free  transition at x/c =  0.0410   20
 Side 2 forced transition at x/c =  1.0000   75

  44   rms: 0.8125E+00   max: -.2483E+01   D at   53  1   RLX: 0.201
       a =  6.000      CL =  0.5781
      Cm = -0.0169     CD =  0.02865   =>   CDf =  0.00391    CDp =  0.02474

 Side 1  free  transition at x/c =  0.0376   20
 Side 2 forced transition at x/c =  1.0000   75

  45   rms: 0.8182E+00   max: -.3218E+01   D at   57  1   RLX: 0.155
       a =  6.000      CL =  0.5992
      Cm = -0.0064     CD =  0.02395   =>   CDf =  0.00433    CDp =  0.01961

 Side 1  free  transition at x/c =  0.0355   21
 Side 2  free  transition at x/c =  0.9465   69

  46   rms: 0.7737E+00   max: -.2856E+01   D at   26  1   RLX: 0.175
       a =  6.000      CL =  0.6342
      Cm = -0.0024     CD =  0.02050   =>   CDf =  0.00485    CDp =  0.01565

 Side 1  free  transition at x/c =  0.0322   20
 Side 2  free  transition at x/c =  0.9296   68

  47   rms: 0.1007E+01   max: -.3946E+01   D at   66  1   RLX: 0.127
       a =  6.000      CL =  0.6896
      Cm = -0.0077     CD =  0.01728   =>   CDf =  0.00511    CDp =  0.01217

 Side 1  free  transition at x/c =  0.0295   20
 Side 2  free  transition at x/c =  0.9114   67

  48   rms: 0.6797E+00   max: -.2536E+01   D at   72  1   RLX: 0.197
       a =  6.000      CL =  0.7464
      Cm = -0.0172     CD =  0.01502   =>   CDf =  0.00544    CDp =  0.00958

 Side 1  free  transition at x/c =  0.0273   20
 Side 2  free  transition at x/c =  0.9003   66

  49   rms: 0.5383E+00   max: -.2823E+01   D at   24  1   RLX: 0.177
       a =  6.000      CL =  0.7801
      Cm = -0.0250     CD =  0.01419   =>   CDf =  0.00583    CDp =  0.00836

 Side 1  free  transition at x/c =  0.0261   20
 Side 2  free  transition at x/c =  0.8950   66

  50   rms: 0.5268E+00   max: -.3789E+01   D at   23  1   RLX: 0.132
       a =  6.000      CL =  0.8004
      Cm = -0.0294     CD =  0.01365   =>   CDf =  0.00593    CDp =  0.00772

 Side 1  free  transition at x/c =  0.0254   21
 Side 2  free  transition at x/c =  0.8928   64
 idif Ue xi dudx           1  0.14147820      3.59177589E-03   39.389484    
 Uenew xinew           2  2.89718062E-03  7.35521317E-05

  51   rms: 0.1944E+00   max: -.1767E+01   T at    2  1   RLX: 0.283
       a =  6.000      CL =  0.8016
      Cm = -0.0309     CD =  0.01394   =>   CDf =  0.00647    CDp =  0.00746

 Side 1  free  transition at x/c =  0.0247   19
 Side 2  free  transition at x/c =  0.8930   65

  52   rms: 0.1540E+00   max: -.1784E+01   T at    2  2   RLX: 0.280
       a =  6.000      CL =  0.7963
      Cm = -0.0319     CD =  0.01418   =>   CDf =  0.00643    CDp =  0.00775

 Side 1  free  transition at x/c =  0.0246   19
 Side 2  free  transition at x/c =  0.8942   66

  53   rms: 0.8520E-01   max: -.5146E+00   D at   23  1   RLX: 0.972
[...]
 MRCHDU: Convergence failed at  91  side 2    Res =  0.2689E+00
 MRCHDU: Convergence failed at  92  side 2    Res =  0.1335E-01
 MRCHDU: Convergence failed at  93  side 2    Res =  0.3123E-01
 Side 1  free  transition at x/c =  0.0217   21
 Side 2 forced transition at x/c =  1.0000   72

 130   rms: 0.1056E+04   max: -.1947E+05   T at   94  2   RLX: 0.000
       a = 12.250      CL =  1.4994
      Cm = -0.2644     CD =*********   =>   CDf =  0.00201    CDp =*********

 MRCHDU: Convergence failed at  85  side 2    Res =  0.7959E-01
 MRCHDU: Convergence failed at  88  side 2    Res =  0.4948E-01
 MRCHDU: Convergence failed at  89  side 2    Res =  0.1567E-01
 MRCHDU: Convergence failed at  90  side 2    Res =  0.1607E-01
 MRCHDU: Convergence failed at  91  side 2    Res =  0.9365E-01
 MRCHDU: Convergence failed at  92  side 2    Res =  0.7621E-02
 MRCHDU: Convergence failed at  93  side 2    Res =  0.1101E-01
 MRCHDU: Convergence failed at  94  side 2    Res =  0.1272E-01
 Side 1  free  transition at x/c =  0.0217   21
 Side 2 forced transition at x/c =  1.0000   72

 131   rms: 0.1729E+04   max: 0.3526E+05   T at   94  2   RLX: 0.000
       a = 12.250      CL =  1.4953
      Cm = -0.2640     CD =*********   =>   CDf =  0.00202    CDp =*********

 MRCHDU: Convergence failed at  85  side 2    Res =  0.7300E-01
 MRCHDU: Convergence failed at  88  side 2    Res =  0.5058E-01
 MRCHDU: Convergence failed at  89  side 2    Res =  0.1555E-01
 MRCHDU: Convergence failed at  90  side 2    Res =  0.1571E-01
 MRCHDU: Convergence failed at  91  side 2    Res =  0.1211E+00
 MRCHDU: Convergence failed at  92  side 2    Res =  0.1762E-01
 MRCHDU: Convergence failed at  93  side 2    Res =  0.9765E-01
 Side 1  free  transition at x/c =  0.0217   21
 Side 2 forced transition at x/c =  1.0000   72

 132   rms: 0.4229E+03   max: -.6800E+04   C at   93  2   RLX: 0.000
       a = 12.250      CL =  1.4987
      Cm = -0.2643     CD =*********   =>   CDf =  0.00201    CDp =*********

 MRCHDU: Convergence failed at  85  side 2    Res =  0.7856E-01
 MRCHDU: Convergence failed at  88  side 2    Res =  0.4959E-01
 MRCHDU: Convergence failed at  89  side 2    Res =  0.1556E-01
 MRCHDU: Convergence failed at  90  side 2    Res =  0.1572E-01
 MRCHDU: Convergence failed at  91  side 2    Res =  0.9086E-01
 MRCHDU: Convergence failed at  92  side 2    Res =  0.1228E-01
 MRCHDU: Convergence failed at  93  side 2    Res =  0.2778E-01
 MRCHDU: Convergence failed at  94  side 2    Res =  0.7263E-01
 Side 1  free  transition at x/c =  0.0217   21
 Side 2 forced transition at x/c =  1.0000   72

 133   rms: 0.6558E+04   max: 0.1607E+06   C at   94  2   RLX: 0.000
       a = 12.250      CL =  1.4946
      Cm = -0.2639     CD =*********   =>   CDf =  0.00202    CDp =*********

 MRCHDU: Convergence failed at  85  side 2    Res =  0.7214E-01
 MRCHDU: Convergence failed at  88  side 2    Res =  0.5077E-01
 MRCHDU: Convergence failed at  89  side 2    Res =  0.1557E-01
 MRCHDU: Convergence failed at  90  side 2    Res =  0.1577E-01
 MRCHDU: Convergence failed at  91  side 2    Res =  0.8499E-01
 MRCHDU: Convergence failed at  92  side 2    Res =  0.1058E-01
 MRCHDU: Convergence failed at  93  side 2    Res =  0.1415E-01
 Side 1  free  transition at x/c =  0.0217   21
 Side 2 forced transition at x/c =  1.0000   72

 134   rms: 0.5551E+03   max: -.9130E+04   C at   94  2   RLX: 0.000
       a = 12.250      CL =  1.4969
      Cm = -0.2642     CD =*********   =>   CDf =  0.00201    CDp =*********

 MRCHDU: Convergence failed at  85  side 2    Res =  0.7577E-01
 MRCHDU: Convergence failed at  88  side 2    Res =  0.5017E-01
 MRCHDU: Convergence failed at  89  side 2    Res =  0.1564E-01
 MRCHDU: Convergence failed at  90  side 2    Res =  0.1599E-01
 MRCHDU: Convergence failed at  91  side 2    Res =  0.7319E-01
 MRCHDU: Convergence failed at  92  side 2    Res =  0.7506E-02
 MRCHDU: Convergence failed at  93  side 2    Res =  0.6348E-02
 MRCHDU: Convergence failed at  94  side 2    Res =  0.7473E-02
 Side 1  free  transition at x/c =  0.0217   21
 Side 2 forced transition at x/c =  1.0000   72

 135   rms: 0.8031E+04   max: -.1655E+06   T at   94  2   RLX: 0.000
       a = 12.250      CL =  1.4982
      Cm = -0.2643     CD =*********   =>   CDf =  0.00201    CDp =*********

 MRCHDU: Convergence failed at  85  side 2    Res =  0.7795E-01
 MRCHDU: Convergence failed at  88  side 2    Res =  0.4983E-01
 MRCHDU: Convergence failed at  89  side 2    Res =  0.1570E-01
 MRCHDU: Convergence failed at  90  side 2    Res =  0.1617E-01
 MRCHDU: Convergence failed at  91  side 2    Res =  0.6315E-01
 MRCHDU: Convergence failed at  92  side 2    Res =  0.5710E-02
 MRCHDU: Convergence failed at  93  side 2    Res =  0.4021E-02
 MRCHDU: Convergence failed at  94  side 2    Res =  0.1819E-02
 Side 1  free  transition at x/c =  0.0217   21
 Side 2 forced transition at x/c =  1.0000   72

 136   rms: 0.4061E+04   max: 0.9040E+05   T at   94  2   RLX: 0.000
       a = 12.250      CL =  1.4972
      Cm = -0.2642     CD =*********   =>   CDf =  0.00201    CDp =*********

 MRCHDU: Convergence failed at  85  side 2    Res =  0.7634E-01
 MRCHDU: Convergence failed at  88  side 2    Res =  0.4999E-01
 MRCHDU: Convergence failed at  89  side 2    Res =  0.1554E-01
 MRCHDU: Convergence failed at  90  side 2    Res =  0.1566E-01
 MRCHDU: Convergence failed at  91  side 2    Res =  0.1248E+00
 MRCHDU: Convergence failed at  92  side 2    Res =  0.2115E-01
 MRCHDU: Convergence failed at  93  side 2    Res =  0.2926E-01
 MRCHDU: Convergence failed at  94  side 2    Res =  0.4825E-01
 Side 1  free  transition at x/c =  0.0217   21
 Side 2 forced transition at x/c =  1.0000   72

 137   rms: 0.1670E+04   max: -.3867E+05   C at   94  2   RLX: 0.000
       a = 12.250      CL =  1.4990
      Cm = -0.2643     CD =*********   =>   CDf =  0.00201    CDp =*********

 MRCHDU: Convergence failed at  85  side 2    Res =  0.7925E-01
 MRCHDU: Convergence failed at  88  side 2    Res =  0.4946E-01
 MRCHDU: Convergence failed at  89  side 2    Res =  0.1555E-01
 MRCHDU: Convergence failed at  90  side 2    Res =  0.1567E-01
 MRCHDU: Convergence failed at  91  side 2    Res =  0.8789E-01
 MRCHDU: Convergence failed at  92  side 2    Res =  0.1452E-01
 MRCHDU: Convergence failed at  93  side 2    Res =  0.2401E-01
 MRCHDU: Convergence failed at  94  side 2    Res =  0.8196E-02
 Side 1  free  transition at x/c =  0.0217   21
 Side 2 forced transition at x/c =  1.0000   72

 138   rms: 0.1728E+04   max: 0.3720E+05   T at   94  2   RLX: 0.000
       a = 12.250      CL =  1.4952
      Cm = -0.2640     CD =*********   =>   CDf =  0.00202    CDp =*********

 MRCHDU: Convergence failed at  85  side 2    Res =  0.7317E-01
 MRCHDU: Convergence failed at  88  side 2    Res =  0.5053E-01
 MRCHDU: Convergence failed at  89  side 2    Res =  0.1549E-01
 MRCHDU: Convergence failed at  90  side 2    Res =  0.1553E-01
 MRCHDU: Convergence failed at  91  side 2    Res =  0.9572E-01
 MRCHDU: Convergence failed at  92  side 2    Res =  0.1962E-01
 MRCHDU: Convergence failed at  93  side 2    Res =  0.6132E+00
 MRCHDU: Convergence failed at  94  side 2    Res =  0.2056E+00
 Side 1  free  transition at x/c =  0.0217   21
 Side 2 forced transition at x/c =  1.0000   72

 139   rms: 0.7793E+03   max: -.1553E+05   T at   94  2   RLX: 0.000
       a = 12.250      CL =  1.4970
      Cm = -0.2641     CD =*********   =>   CDf =  0.00201    CDp =*********

 MRCHDU: Convergence failed at  85  side 2    Res =  0.7612E-01
 MRCHDU: Convergence failed at  88  side 2    Res =  0.5001E-01
 MRCHDU: Convergence failed at  89  side 2    Res =  0.1551E-01
 MRCHDU: Convergence failed at  90  side 2    Res =  0.1558E-01
 MRCHDU: Convergence failed at  91  side 2    Res =  0.9338E-01
 MRCHDU: Convergence failed at  92  side 2    Res =  0.1717E-01
 MRCHDU: Convergence failed at  93  side 2    Res =  0.7592E-02
 MRCHDU: Convergence failed at  94  side 2    Res =  0.2564E-02
 Side 1  free  transition at x/c =  0.0217   21
 Side 2 forced transition at x/c =  1.0000   72

 140   rms: 0.2418E+05   max: -.5458E+06   T at   94  2   RLX: 0.000
       a = 12.250      CL =  1.4977
      Cm = -0.2642     CD =*********   =>   CDf =  0.00201    CDp =*********

 MRCHDU: Convergence failed at  85  side 2    Res =  0.7726E-01
 MRCHDU: Convergence failed at  88  side 2    Res =  0.4983E-01
 MRCHDU: Convergence failed at  89  side 2    Res =  0.1555E-01
 MRCHDU: Convergence failed at  90  side 2    Res =  0.1567E-01
 MRCHDU: Convergence failed at  91  side 2    Res =  0.8766E-01
 MRCHDU: Convergence failed at  92  side 2    Res =  0.1352E-01
 MRCHDU: Convergence failed at  93  side 2    Res =  0.4705E-02
 MRCHDU: Convergence failed at  94  side 2    Res =  0.7252E-03
 Side 1  free  transition at x/c =  0.0217   21
 Side 2 forced transition at x/c =  1.0000   72

 141   rms: 0.5593E+04   max: 0.1261E+06   T at   94  2   RLX: 0.000
       a = 12.250      CL =  1.4975
      Cm = -0.2642     CD =*********   =>   CDf =  0.00201    CDp =*********

 MRCHDU: Convergence failed at  85  side 2    Res =  0.7704E-01
 MRCHDU: Convergence failed at  88  side 2    Res =  0.4977E-01
 MRCHDU: Convergence failed at  89  side 2    Res =  0.1543E-01
 MRCHDU: Convergence failed at  90  side 2    Res =  0.1531E-01
 MRCHDU: Convergence failed at  91  side 2    Res =  0.1207E+00
 MRCHDU: Convergence failed at  92  side 2    Res =  0.5919E-01
 MRCHDU: Convergence failed at  93  side 2    Res =  0.4460E-01
 MRCHDU: Convergence failed at  94  side 2    Res =  0.5713E-02
 Side 1  free  transition at x/c =  0.0217   21
 Side 2 forced transition at x/c =  1.0000   72

 142   rms: 0.1660E+05   max: -.3746E+06   T at   94  2   RLX: 0.000
       a = 12.250      CL =  1.4988
      Cm = -0.2643     CD =*********   =>   CDf =  0.00201    CDp =*********

 MRCHDU: Convergence failed at  85  side 2    Res =  0.7910E-01
 MRCHDU: Convergence failed at  88  side 2    Res =  0.4940E-01
 MRCHDU: Convergence failed at  89  side 2    Res =  0.1543E-01
 MRCHDU: Convergence failed at  90  side 2    Res =  0.1532E-01
 MRCHDU: Convergence failed at  91  side 2    Res =  0.7477E-01
 MRCHDU: Convergence failed at  92  side 2    Res =  0.3573E-01
 MRCHDU: Convergence failed at  93  side 2    Res =  0.2071E-01
 MRCHDU: Convergence failed at  94  side 2    Res =  0.1370E-02
 Side 1  free  transition at x/c =  0.0217   21
 Side 2 forced transition at x/c =  1.0000   72

 143   rms: 0.6275E+04   max: 0.1513E+06   T at   94  2   RLX: 0.000
       a = 12.250      CL =  1.4982
      Cm = -0.2643     CD =*********   =>   CDf =  0.00202    CDp =*********

 MRCHDU: Convergence failed at  85  side 2    Res =  0.7824E-01
 MRCHDU: Convergence failed at  88  side 2    Res =  0.4955E-01
 MRCHDU: Convergence failed at  89  side 2    Res =  0.1543E-01
 MRCHDU: Convergence failed at  90  side 2    Res =  0.1530E-01
 MRCHDU: Convergence failed at  91  side 2    Res =  0.7543E-01
 MRCHDU: Convergence failed at  92  side 2    Res =  0.5158E-01
 MRCHDU: Convergence failed at  93  side 2    Res =  0.2683E+00
 MRCHDU: Convergence failed at  94  side 2    Res =  0.9842E-02
 Side 1  free  transition at x/c =  0.0217   21
 Side 2 forced transition at x/c =  1.0000   72

 144   rms: 0.2208E+04   max: 0.4675E+05   T at   94  2   RLX: 0.000
       a = 12.250      CL =  1.4929
      Cm = -0.2637     CD =*********   =>   CDf =  0.00201    CDp =*********

 MRCHDU: Convergence failed at  85  side 2    Res =  0.6979E-01
 MRCHDU: Convergence failed at  88  side 2    Res =  0.5109E-01
 MRCHDU: Convergence failed at  89  side 2    Res =  0.1540E-01
 MRCHDU: Convergence failed at  90  side 2    Res =  0.1526E-01
 MRCHDU: Convergence failed at  91  side 2    Res =  0.7509E-01
 MRCHDU: Convergence failed at  92  side 2    Res =  0.4613E-01
 MRCHDU: Convergence failed at  93  side 2    Res =  0.4284E+00
 Side 1  free  transition at x/c =  0.0217   21
 Side 2 forced transition at x/c =  1.0000   72

 145   rms: 0.2860E+03   max: -.5049E+04   C at   94  2   RLX: 0.000
       a = 12.250      CL =  1.4954
      Cm = -0.2640     CD =*********   =>   CDf =  0.00200    CDp =*********

 MRCHDU: Convergence failed at  85  side 2    Res =  0.7389E-01
 MRCHDU: Convergence failed at  88  side 2    Res =  0.5035E-01
 MRCHDU: Convergence failed at  89  side 2    Res =  0.1542E-01
 MRCHDU: Convergence failed at  90  side 2    Res =  0.1528E-01
 MRCHDU: Convergence failed at  91  side 2    Res =  0.7542E-01
 MRCHDU: Convergence failed at  92  side 2    Res =  0.4723E-01
 MRCHDU: Convergence failed at  93  side 2    Res =  0.1259E-01
 MRCHDU: Convergence failed at  94  side 2    Res =  0.1135E-01
 Side 1  free  transition at x/c =  0.0217   21
 Side 2 forced transition at x/c =  1.0000   72

 146   rms: 0.1364E+04   max: -.2434E+05   T at   94  2   RLX: 0.000
       a = 12.250      CL =  1.4975
      Cm = -0.2642     CD =*********   =>   CDf =  0.00201    CDp =*********

 MRCHDU: Convergence failed at  85  side 2    Res =  0.7734E-01
 MRCHDU: Convergence failed at  88  side 2    Res =  0.4973E-01
 MRCHDU: Convergence failed at  89  side 2    Res =  0.1542E-01
 MRCHDU: Convergence failed at  90  side 2    Res =  0.1529E-01
 MRCHDU: Convergence failed at  91  side 2    Res =  0.7631E-01
 MRCHDU: Convergence failed at  92  side 2    Res =  0.3712E-01
 MRCHDU: Convergence failed at  93  side 2    Res =  0.6836E-02
 MRCHDU: Convergence failed at  94  side 2    Res =  0.2633E-02
 Side 1  free  transition at x/c =  0.0217   21
 Side 2 forced transition at x/c =  1.0000   72

 147   rms: 0.4640E+04   max: 0.1010E+06   T at   94  2   RLX: 0.000
       a = 12.250      CL =  1.4948
      Cm = -0.2639     CD =*********   =>   CDf =  0.00201    CDp =*********

 MRCHDU: Convergence failed at  85  side 2    Res =  0.7296E-01
 MRCHDU: Convergence failed at  88  side 2    Res =  0.5051E-01
 MRCHDU: Convergence failed at  89  side 2    Res =  0.1540E-01
 MRCHDU: Convergence failed at  90  side 2    Res =  0.1525E-01
 MRCHDU: Convergence failed at  91  side 2    Res =  0.7742E-01
 MRCHDU: Convergence failed at  92  side 2    Res =  0.1752E+00
 MRCHDU: Convergence failed at  93  side 2    Res =  0.1568E+00
 MRCHDU: Convergence failed at  94  side 2    Res =  0.1249E+00
 Side 1  free  transition at x/c =  0.0217   21
 Side 2 forced transition at x/c =  1.0000   72

 148   rms: 0.6098E+03   max: -.1395E+05   C at   94  2   RLX: 0.000
       a = 12.250      CL =  1.4965
      Cm = -0.2641     CD =*********   =>   CDf =  0.00201    CDp =*********

 MRCHDU: Convergence failed at  85  side 2    Res =  0.7583E-01
 MRCHDU: Convergence failed at  88  side 2    Res =  0.4999E-01
 MRCHDU: Convergence failed at  89  side 2    Res =  0.1540E-01
 MRCHDU: Convergence failed at  90  side 2    Res =  0.1523E-01
 MRCHDU: Convergence failed at  91  side 2    Res =  0.7997E-01
 MRCHDU: Convergence failed at  92  side 2    Res =  0.5361E-01
 MRCHDU: Convergence failed at  93  side 2    Res =  0.1160E+00
 MRCHDU: Convergence failed at  94  side 2    Res =  0.1493E-01
 Side 1  free  transition at x/c =  0.0217   21
 Side 2 forced transition at x/c =  1.0000   72

 149   rms: 0.3617E+04   max: -.7046E+05   T at   94  2   RLX: 0.000
       a = 12.250      CL =  1.4987
      Cm = -0.2643     CD =*********   =>   CDf =  0.00201    CDp =*********

 MRCHDU: Convergence failed at  85  side 2    Res =  0.7941E-01
 MRCHDU: Convergence failed at  88  side 2    Res =  0.4935E-01
 MRCHDU: Convergence failed at  89  side 2    Res =  0.1541E-01
 MRCHDU: Convergence failed at  90  side 2    Res =  0.1525E-01
 MRCHDU: Convergence failed at  91  side 2    Res =  0.8017E-01
 MRCHDU: Convergence failed at  92  side 2    Res =  0.5530E-01
 MRCHDU: Convergence failed at  93  side 2    Res =  0.2566E-01
 MRCHDU: Convergence failed at  94  side 2    Res =  0.2510E-02
 Side 1  free  transition at x/c =  0.0217   21
 Side 2 forced transition at x/c =  1.0000   72

 150   rms: 0.1839E+04   max: 0.4312E+05   T at   94  2   RLX: 0.000
       a = 12.250      CL =  1.4967
      Cm = -0.2641     CD =*********   =>   CDf =  0.00202    CDp =*********

 MRCHDU: Convergence failed at  85  side 2    Res =  0.7618E-01
 MRCHDU: Convergence failed at  88  side 2    Res =  0.4993E-01
 MRCHDU: Convergence failed at  89  side 2    Res =  0.1541E-01
 MRCHDU: Convergence failed at  90  side 2    Res =  0.1525E-01
 MRCHDU: Convergence failed at  91  side 2    Res =  0.7879E-01
 MRCHDU: Convergence failed at  92  side 2    Res =  0.7222E-01
 MRCHDU: Convergence failed at  93  side 2    Res =  0.2934E+00
 MRCHDU: Convergence failed at  94  side 2    Res =  0.4681E-01
 Side 1  free  transition at x/c =  0.0217   21
 Side 2 forced transition at x/c =  1.0000   72

 151   rms: 0.4747E+04   max: -.1114E+06   C at   94  2   RLX: 0.000
       a = 12.250      CL =  1.4985
      Cm = -0.2643     CD =*********   =>   CDf =  0.00201    CDp =*********

 MRCHDU: Convergence failed at  85  side 2    Res =  0.7911E-01
 MRCHDU: Convergence failed at  88  side 2    Res =  0.4941E-01
 MRCHDU: Convergence failed at  89  side 2    Res =  0.1542E-01
 MRCHDU: Convergence failed at  90  side 2    Res =  0.1527E-01
 MRCHDU: Convergence failed at  91  side 2    Res =  0.7914E-01
 MRCHDU: Convergence failed at  92  side 2    Res =  0.7132E-01
 MRCHDU: Convergence failed at  93  side 2    Res =  0.7264E-01
 MRCHDU: Convergence failed at  94  side 2    Res =  0.8598E-02
 Side 1  free  transition at x/c =  0.0217   21
 Side 2 forced transition at x/c =  1.0000   72

 152   rms: 0.8723E+03   max: 0.1725E+05   T at   94  2   RLX: 0.000
       a = 12.250      CL =  1.4929
      Cm = -0.2637     CD =*********   =>   CDf =  0.00202    CDp =*********

 MRCHDU: Convergence failed at  85  side 2    Res =  0.7045E-01
 MRCHDU: Convergence failed at  88  side 2    Res =  0.5098E-01
 MRCHDU: Convergence failed at  89  side 2    Res =  0.1538E-01
 MRCHDU: Convergence failed at  90  side 2    Res =  0.1520E-01
 MRCHDU: Convergence failed at  91  side 2    Res =  0.8023E-01
 MRCHDU: Convergence failed at  92  side 2    Res =  0.5574E-01
 Side 1  free  transition at x/c =  0.0217   21
 Side 2 forced transition at x/c =  1.0000   72

 153   rms: 0.1740E+04   max: -.3743E+05   C at   93  2   RLX: 0.000
       a = 12.250      CL =  1.4934
      Cm = -0.2637     CD =*********   =>   CDf =  0.00201    CDp =*********

 MRCHDU: Convergence failed at  85  side 2    Res =  0.7113E-01
 MRCHDU: Convergence failed at  88  side 2    Res =  0.5085E-01
 MRCHDU: Convergence failed at  89  side 2    Res =  0.1539E-01
 MRCHDU: Convergence failed at  90  side 2    Res =  0.1521E-01
 MRCHDU: Convergence failed at  91  side 2    Res =  0.8002E-01
 MRCHDU: Convergence failed at  92  side 2    Res =  0.5930E-01
 MRCHDU: Convergence failed at  93  side 2    Res =  0.9486E-01
 Side 1  free  transition at x/c =  0.0217   21
 Side 2 forced transition at x/c =  1.0000   72

 154   rms: 0.3409E+06   max: -.6579E+07   C at   94  2   RLX: 0.000
       a = 12.250      CL =  1.4934
      Cm = -0.2637     CD =*********   =>   CDf =  0.00201    CDp =*********

 MRCHDU: Convergence failed at  85  side 2    Res =  0.7113E-01
 MRCHDU: Convergence failed at  88  side 2    Res =  0.5085E-01
 MRCHDU: Convergence failed at  89  side 2    Res =  0.1539E-01
 MRCHDU: Convergence failed at  90  side 2    Res =  0.1521E-01
 MRCHDU: Convergence failed at  91  side 2    Res =  0.7989E-01
 MRCHDU: Convergence failed at  92  side 2    Res =  0.6078E-01
 Side 1  free  transition at x/c =  0.0217   21
 Side 2 forced transition at x/c =  1.0000   72

 155   rms: 0.2536E+05   max: -.5018E+06   C at   93  2   RLX: 0.000
       a = 12.250      CL =  1.4934
      Cm = -0.2638     CD =*********   =>   CDf =  0.00201    CDp =*********
 VISCAL:  Convergence failed

 Sequence halted since previous  4 points did not converge
 Last-converged  alpha =  11.250    CL =   1.04524

.OPERva   c>  
 Polar accumulation disabled

.OPERv   c>  
 XFOIL   c>  
 XFOIL   c>  