
 ===================================================
  XFOIL Version 6.99
  Copyright (C) 2000   Mark Drela, Harold Youngren

  This software comes with ABSOLUTELY NO WARRANTY,
    subject to the GNU General Public License.

  Caveat computor
 ===================================================

 File  xfoil.def  not found

   QUIT    Exit program

  .OPER    Direct operating point(s)
  .MDES    Complex mapping design routine
  .QDES    Surface speed design routine
  .GDES    Geometry design routine

   SAVE f  Write airfoil to labeled coordinate file
   PSAV f  Write airfoil to plain coordinate file
   ISAV f  Write airfoil to ISES coordinate file
   MSAV f  Write airfoil to MSES coordinate file
   REVE    Reverse written-airfoil node ordering

   LOAD f  Read buffer airfoil from coordinate file
   NACA i  Set NACA 4,5-digit airfoil and buffer airfoil
   INTE    Set buffer airfoil by interpolating two airfoils
   NORM    Buffer airfoil normalization toggle
   XYCM rr Change CM reference location, currently  0.25000 0.00000

   BEND    Display structural properties of current airfoil

   PCOP    Set current-airfoil panel nodes directly from buffer airfoil points
   PANE    Set current-airfoil panel nodes ( 160 ) based on curvature
  .PPAR    Show/change paneling

  .PLOP    Plotting options

   WDEF f  Write  current-settings file
   RDEF f  Reread current-settings file
   NAME s  Specify new airfoil name
   NINC    Increment name version number

   Z       Zoom    | (available in all menus)
   U       Unzoom  | 

 XFOIL   c>  
 Labeled airfoil file.  Name:  NACA 747A415                                    

 Number of input coordinate points:  51
 Counterclockwise ordering
 Max thickness =     0.149941  at x =   0.399
 Max camber    =     0.027659  at x =   0.351

  LE  x,y  =  -0.00061   0.00430  |   Chord =   1.00061
  TE  x,y  =   1.00000   0.00000  |

 Current airfoil nodes set from buffer airfoil nodes (  51 )

 WARNING: Poor input coordinate distribution
          Excessive panel angle   47.3  at i =  26
          Repaneling with PANE and/or PPAR suggested
           (doing GDES,CADD before repaneling _may_
            improve excessively coarse LE spacing

 XFOIL   c>  
 XFOIL   c>  
 Sharp trailing edge

 Paneling parameters used...
   Number of panel nodes       160
   Panel bunching parameter    1.000
   TE/LE panel density ratio   0.150
   Refined-area/LE panel density ratio    0.200
   Top    side refined area x/c limits  1.000 1.000
   Bottom side refined area x/c limits  1.000 1.000

 XFOIL   c>  
.OPERi   c>  
 Xtr/c     =  1.0000    top    side
 Xtr/c     =  1.0000    bottom side
 Ncrit     =    9.00   ( 0.070 % turb. level )
 Vacc      =  0.0100

 Klag  =  5.6000     Uxwt  =    1.00
 A     =  6.7000     B     =  0.7500       KCt = 0.01485
 CtiniK=  1.8000     CtiniX=  3.3000

..VPAR   c>  
..VPAR   c>  
.OPERi   c>  
 M  =    0.0000
 Re =    400000

.OPERv   c>  
.OPERv   c>  
.OPERv   c>  
 Polar  1 newly created for accumulation
 Airfoil archived with polar: NACA 747A415                                    

Enter  polar save filename  OR  <return> for no file   s>  
 New polar save file available

Enter  polar dump filename  OR  <return> for no file   s>  
 Polar dump file will NOT be written

 Polar accumulation enabled

.OPERva   c>   Calculating unit vorticity distributions ...
 Calculating wake trajectory ...
 Calculating source influence matrix ...

 Solving BL system ...

 Initializing BL ...
    side            1  ...
 MRCHUE: Inverse mode at  27     Hk =   4.101
 MRCHUE: Convergence failed at  28  side 1    Res =  0.5433E+01
 MRCHUE: Inverse mode at  29     Hk =   5.063
 MRCHUE: Convergence failed at  30  side 1    Res =  0.3695E+01
 MRCHUE: Inverse mode at  31     Hk =   6.101
 MRCHUE: Inverse mode at  32     Hk =   7.168
 MRCHUE: Inverse mode at  33     Hk =   8.296
 MRCHUE: Inverse mode at  34     Hk =   5.328
 MRCHUE: Inverse mode at  35     Hk =   2.500
 MRCHUE: Inverse mode at  76     Hk =   2.500
 MRCHUE: Inverse mode at  77     Hk =   2.500
 MRCHUE: Inverse mode at  78     Hk =   2.500
 MRCHUE: Inverse mode at  79     Hk =   2.500
 MRCHUE: Inverse mode at  80     Hk =   2.500
 MRCHUE: Inverse mode at  81     Hk =   2.500
 MRCHUE: Inverse mode at  82     Hk =   2.500
 MRCHUE: Inverse mode at  83     Hk =   2.500
 MRCHUE: Inverse mode at  84     Hk =   2.500
 MRCHUE: Inverse mode at  85     Hk =   2.500
 MRCHUE: Inverse mode at  86     Hk =   2.500
 MRCHUE: Inverse mode at  87     Hk =   2.500
 MRCHUE: Inverse mode at  88     Hk =   2.500
 MRCHUE: Inverse mode at  89     Hk =   2.500
 MRCHUE: Inverse mode at  90     Hk =   2.500
 MRCHUE: Inverse mode at  91     Hk =   2.500
 MRCHUE: Convergence failed at  92  side 1    Res =  0.5092E+01
 MRCHUE: Inverse mode at  93     Hk =   2.500
 MRCHUE: Inverse mode at  94     Hk =   2.500
 MRCHUE: Inverse mode at  95     Hk =   2.500
 MRCHUE: Inverse mode at  96     Hk =   2.500
 MRCHUE: Inverse mode at  97     Hk =   2.500
 MRCHUE: Inverse mode at  98     Hk =   2.500
 MRCHUE: Convergence failed at  99  side 1    Res =  0.4659E+01
 MRCHUE: Inverse mode at 100     Hk =   2.500
 MRCHUE: Inverse mode at 101     Hk =   2.500
 MRCHUE: Convergence failed at 102  side 1    Res =  0.3737E+01
    side            2  ...
 MRCHUE: Inverse mode at  49     Hk =   4.220
 MRCHUE: Inverse mode at  50     Hk =   4.824
 MRCHUE: Inverse mode at  51     Hk =   5.399
 MRCHUE: Inverse mode at  52     Hk =   5.946
 MRCHUE: Inverse mode at  53     Hk =   6.466
 MRCHUE: Inverse mode at  54     Hk =   6.954
 MRCHUE: Inverse mode at  55     Hk =   7.403
 MRCHUE: Inverse mode at  56     Hk =   7.810
 MRCHUE: Inverse mode at  57     Hk =   8.175
 MRCHUE: Inverse mode at  58     Hk =   8.502
 MRCHUE: Inverse mode at  59     Hk =   8.796
 MRCHUE: Inverse mode at  60     Hk =   8.977

 MRCHDU: Convergence failed at  30  side 1    Res =  0.1283E+01
 MRCHDU: Convergence failed at  31  side 1    Res =  0.1058E+02
 MRCHDU: Convergence failed at  34  side 1    Res =  0.5321E+03
 MRCHDU: Convergence failed at  35  side 1    Res =  0.2394E+02
 MRCHDU: Convergence failed at  36  side 1    Res =  0.3596E+02
 MRCHDU: Convergence failed at  37  side 1    Res =  0.1047E+02
 MRCHDU: Convergence failed at  38  side 1    Res =  0.2020E+02
 MRCHDU: Convergence failed at  39  side 1    Res =  0.2139E+02
 MRCHDU: Convergence failed at  40  side 1    Res =  0.1846E+02
 MRCHDU: Convergence failed at  41  side 1    Res =  0.1804E+02
 MRCHDU: Convergence failed at  42  side 1    Res =  0.3489E+02
 MRCHDU: Convergence failed at  43  side 1    Res =  0.4911E+02
 MRCHDU: Convergence failed at  44  side 1    Res =  0.5914E+02
 MRCHDU: Convergence failed at  45  side 1    Res =  0.5412E+02
 MRCHDU: Convergence failed at  46  side 1    Res =  0.6052E+02
 MRCHDU: Convergence failed at  47  side 1    Res =  0.7003E+02
 MRCHDU: Convergence failed at  48  side 1    Res =  0.9720E+02
 MRCHDU: Convergence failed at  49  side 1    Res =  0.1496E+03
 MRCHDU: Convergence failed at  50  side 1    Res =  0.2742E+03
 MRCHDU: Convergence failed at  51  side 1    Res =  0.8030E+03
 MRCHDU: Convergence failed at  52  side 1    Res =  0.8682E+02
 MRCHDU: Convergence failed at  53  side 1    Res =  0.7474E+02
 MRCHDU: Convergence failed at  54  side 1    Res =  0.6604E+02
 MRCHDU: Convergence failed at  55  side 1    Res =  0.5955E+02
 MRCHDU: Convergence failed at  56  side 1    Res =  0.3643E+02
 MRCHDU: Convergence failed at  57  side 1    Res =  0.6108E+04
 MRCHDU: Convergence failed at  58  side 1    Res =  0.6659E+03
 MRCHDU: Convergence failed at  59  side 1    Res =  0.3277E+03
 MRCHDU: Convergence failed at  60  side 1    Res =  0.2210E+03
 MRCHDU: Convergence failed at  61  side 1    Res =  0.1777E+03
 MRCHDU: Convergence failed at  62  side 1    Res =  0.5809E+02
 MRCHDU: Convergence failed at  63  side 1    Res =  0.6487E+02
 MRCHDU: Convergence failed at  64  side 1    Res =  0.7774E+02
 MRCHDU: Convergence failed at  65  side 1    Res =  0.1010E+03
 MRCHDU: Convergence failed at  66  side 1    Res =  0.1448E+03
 MRCHDU: Convergence failed at  67  side 1    Res =  0.1482E+03
 MRCHDU: Convergence failed at  68  side 1    Res =  0.2664E+03
 MRCHDU: Convergence failed at  69  side 1    Res =  0.6571E+03
 MRCHDU: Convergence failed at  70  side 1    Res =  0.2194E+04
 MRCHDU: Convergence failed at  71  side 1    Res =  0.9163E+03
 MRCHDU: Convergence failed at  72  side 1    Res =  0.1017E+04
 MRCHDU: Convergence failed at  73  side 1    Res =  0.5872E+03
 MRCHDU: Convergence failed at  74  side 1    Res =  0.2717E+02
 MRCHDU: Convergence failed at  75  side 1    Res =  0.2728E+02
 MRCHDU: Convergence failed at  76  side 1    Res =  0.6787E+04
 MRCHDU: Convergence failed at  77  side 1    Res =  0.9495E+03
 MRCHDU: Convergence failed at  78  side 1    Res =  0.4140E+03
 MRCHDU: Convergence failed at  79  side 1    Res =  0.2672E+03
 MRCHDU: Convergence failed at  80  side 1    Res =  0.2061E+03
 MRCHDU: Convergence failed at  81  side 1    Res =  0.1743E+03
 MRCHDU: Convergence failed at  82  side 1    Res =  0.1515E+03
 MRCHDU: Convergence failed at  83  side 1    Res =  0.1306E+03
 MRCHDU: Convergence failed at  84  side 1    Res =  0.1120E+03
 MRCHDU: Convergence failed at  85  side 1    Res =  0.9793E+02
 MRCHDU: Convergence failed at  86  side 1    Res =  0.8815E+02
 MRCHDU: Convergence failed at  87  side 1    Res =  0.8107E+02
 MRCHDU: Convergence failed at  88  side 1    Res =  0.7518E+02
 MRCHDU: Convergence failed at  89  side 1    Res =  0.6971E+02
 MRCHDU: Convergence failed at  90  side 1    Res =  0.6464E+02
 MRCHDU: Convergence failed at  91  side 1    Res =  0.6014E+02
 MRCHDU: Convergence failed at  92  side 1    Res =  0.3536E+02
 MRCHDU: Convergence failed at  93  side 1    Res =  0.3422E+02
 MRCHDU: Convergence failed at  94  side 1    Res =  0.3321E+02
 MRCHDU: Convergence failed at  95  side 1    Res =  0.3227E+02
 MRCHDU: Convergence failed at  96  side 1    Res =  0.3124E+02
 MRCHDU: Convergence failed at  97  side 1    Res =  0.3003E+02
 MRCHDU: Convergence failed at  98  side 1    Res =  0.2876E+02
 MRCHDU: Convergence failed at  99  side 1    Res =  0.2270E+02
 MRCHDU: Convergence failed at 100  side 1    Res =  0.2218E+02
 MRCHDU: Convergence failed at 101  side 1    Res =  0.2176E+02
 MRCHDU: Convergence failed at 102  side 1    Res =  0.1646E+02
 Side 1  free  transition at x/c =  0.0214   34
 Side 2 forced transition at x/c =  1.0000   60

   1   rms: 0.3668E+01   max: 0.5422E+01   D at   62  2   RLX: 0.138
       a = 16.250      CL =  9.7526
      Cm = -2.3934     CD =  0.00145   =>   CDf = -0.00124    CDp =  0.00269

 MRCHDU: Convergence failed at  43  side 1    Res =  0.6302E-01
 MRCHDU: Convergence failed at  50  side 1    Res =  0.8466E-01
 MRCHDU: Convergence failed at  69  side 1    Res =  0.8259E-01
 Side 1  free  transition at x/c =  0.0208   34
 Side 2 forced transition at x/c =  1.0000   60

   2   rms: 0.2092E+01   max: -.7368E+01   C at   60  2   RLX: 0.064
       a = 16.250      CL =  7.8513
      Cm = -1.8153     CD =  0.01077   =>   CDf =  0.01221    CDp = -0.00144

 MRCHDU: Convergence failed at  43  side 1    Res =  0.5247E-01
 MRCHDU: Convergence failed at  50  side 1    Res =  0.8161E-01
 MRCHDU: Convergence failed at  69  side 1    Res =  0.5820E-01
 Side 1  free  transition at x/c =  0.0198   34
 Side 2 forced transition at x/c =  1.0000   60

   3   rms: 0.1858E+01   max: -.3888E+01   C at   60  2   RLX: 0.087
       a = 16.250      CL =  7.1896
      Cm = -1.6009     CD =  0.01202   =>   CDf =  0.01177    CDp =  0.00025

 MRCHDU: Convergence failed at  43  side 1    Res =  0.4085E-01
 MRCHDU: Convergence failed at  50  side 1    Res =  0.6829E-01
 MRCHDU: Convergence failed at  69  side 1    Res =  0.2483E-01
 Side 1  free  transition at x/c =  0.0187   34
 Side 2 forced transition at x/c =  1.0000   60

   4   rms: 0.1780E+01   max: 0.2513E+01   D at   64  2   RLX: 0.101
       a = 16.250      CL =  6.5245
      Cm = -1.3861     CD =  0.01362   =>   CDf =  0.01126    CDp =  0.00236

 MRCHDU: Convergence failed at  43  side 1    Res =  0.1301E-01
 MRCHDU: Convergence failed at  50  side 1    Res =  0.2987E-01
 MRCHDU: Convergence failed at  69  side 1    Res =  0.1115E-01
 Side 1  free  transition at x/c =  0.0180   33
 Side 2 forced transition at x/c =  1.0000   60

   5   rms: 0.2014E+01   max: 0.1845E+01   D at   65  2   RLX: 0.051
       a = 16.250      CL =  6.2196
      Cm = -1.2861     CD =  0.01476   =>   CDf =  0.01093    CDp =  0.00382

 MRCHDU: Convergence failed at  40  side 1    Res =  0.4833E+00
 MRCHDU: Convergence failed at  41  side 1    Res =  0.9366E+00
 MRCHDU: Convergence failed at  42  side 1    Res =  0.1148E+01
 Side 1  free  transition at x/c =  0.0178   33
 Side 2 forced transition at x/c =  1.0000   60

   6   rms: 0.1476E+01   max: 0.1676E+01   D at   66  2   RLX: 0.119
       a = 16.250      CL =  5.7987
      Cm = -1.0742     CD =  0.01641   =>   CDf =  0.01178    CDp =  0.00463

 Side 1  free  transition at x/c =  0.0172   33
 Side 2 forced transition at x/c =  1.0000   60

   7   rms: 0.1336E+01   max: 0.1346E+01   D at   67  2   RLX: 0.130
       a = 16.250      CL =  5.2129
      Cm = -0.9070     CD =  0.01878   =>   CDf =  0.00981    CDp =  0.00897

 Side 1  free  transition at x/c =  0.0169   33
 Side 2 forced transition at x/c =  1.0000   60

   8   rms: 0.1206E+01   max: -.1112E+01   U at  102  1   RLX: 0.150
       a = 16.250      CL =  4.6034
      Cm = -0.7401     CD =  0.02119   =>   CDf =  0.00926    CDp =  0.01194

 Side 1  free  transition at x/c =  0.0166   33
 Side 2 forced transition at x/c =  1.0000   60

   9   rms: 0.1687E+02   max: 0.8308E+02   D at   56  1   RLX: 0.004
       a = 16.250      CL =  4.5870
      Cm = -0.7340     CD =  0.02219   =>   CDf =  0.00875    CDp =  0.01344

 Side 1  free  transition at x/c =  0.0166   33
 Side 2 forced transition at x/c =  1.0000   60

  10   rms: 0.2144E+01   max: -.8191E+01   D at   50  1   RLX: 0.047
       a = 16.250      CL =  4.4386
      Cm = -0.6944     CD =  0.02244   =>   CDf =  0.00839    CDp =  0.01405

 MRCHDU: Convergence failed at  46  side 1    Res =  0.1586E+01
 MRCHDU: Convergence failed at  47  side 1    Res =  0.1088E+01
 MRCHDU: Convergence failed at  48  side 1    Res =  0.1953E+02
 MRCHDU: Convergence failed at  49  side 1    Res =  0.1073E+01
 Side 1  free  transition at x/c =  0.0165   33
 Side 2 forced transition at x/c =  1.0000   60
 idif Ue xi dudx           1  9.47109759E-02  1.27251148E-02   7.4428387    
 Uenew xinew           2  8.20800103E-03  1.10280514E-03

  11   rms: 0.1120E+01   max: 0.1167E+01   D at   70  2   RLX: 0.179
       a = 16.250      CL =  4.0913
      Cm = -0.5492     CD =  0.02603   =>   CDf =  0.01085    CDp =  0.01518

 Side 1  free  transition at x/c =  0.0165   32
 Side 2 forced transition at x/c =  1.0000   61

  12   rms: 0.1052E+01   max: -.1678E+01   T at    2  2   RLX: 0.187
       a = 16.250      CL =  3.5242
      Cm = -0.4310     CD =  0.03081   =>   CDf =  0.00880    CDp =  0.02201

 Side 1  free  transition at x/c =  0.0168   32
 Side 2 forced transition at x/c =  1.0000   61
 idif Ue xi dudx           1  8.62206370E-02  1.04796886E-02   8.2274046    
 Uenew xinew           2  3.45726032E-03  4.20212746E-04

  13   rms: 0.1005E+01   max: 0.1366E+01   D at   73  2   RLX: 0.217
       a = 16.250      CL =  2.9521
      Cm = -0.3219     CD =  0.03713   =>   CDf =  0.00871    CDp =  0.02842

 Side 1  free  transition at x/c =  0.0172   31
 Side 2 forced transition at x/c =  1.0000   62

  14   rms: 0.1365E+01   max: -.6774E+01   D at   67  1   RLX: 0.074
       a = 16.250      CL =  2.8302
      Cm = -0.2873     CD =  0.03472   =>   CDf =  0.00756    CDp =  0.02716

 Side 1  free  transition at x/c =  0.0172   31
 Side 2 forced transition at x/c =  1.0000   62

  15   rms: 0.8056E+00   max: 0.8286E+00   D at   75  2   RLX: 0.261
       a = 16.250      CL =  2.3786
      Cm = -0.1976     CD =  0.03993   =>   CDf =  0.00800    CDp =  0.03193

 MRCHDU: Convergence failed at  56  side 1    Res =  0.2950E+00
 MRCHDU: Convergence failed at  57  side 1    Res =  0.3530E+00
 MRCHDU: Convergence failed at  58  side 1    Res =  0.4786E+00
 MRCHDU: Convergence failed at  59  side 1    Res =  0.6675E+00
 MRCHDU: Convergence failed at  60  side 1    Res =  0.9218E+00
 MRCHDU: Convergence failed at  61  side 1    Res =  0.7705E+00
 MRCHDU: Convergence failed at  62  side 1    Res =  0.8830E+00
 MRCHDU: Convergence failed at  63  side 1    Res =  0.3164E+01
 MRCHDU: Convergence failed at  64  side 1    Res =  0.2261E+01
 MRCHDU: Convergence failed at  65  side 1    Res =  0.1360E+01
 MRCHDU: Convergence failed at  66  side 1    Res =  0.1401E+01
 MRCHDU: Convergence failed at  67  side 1    Res =  0.2973E+00
 MRCHDU: Convergence failed at  68  side 1    Res =  0.6581E+00
 MRCHDU: Convergence failed at  69  side 1    Res =  0.1188E+01
 MRCHDU: Convergence failed at  70  side 1    Res =  0.1084E+01
 MRCHDU: Convergence failed at  71  side 1    Res =  0.1450E+01
 MRCHDU: Convergence failed at  73  side 1    Res =  0.1336E+01
 MRCHDU: Convergence failed at  74  side 1    Res =  0.1238E+01
 MRCHDU: Convergence failed at  75  side 1    Res =  0.1843E+01
 MRCHDU: Convergence failed at  76  side 1    Res =  0.4067E+01
 MRCHDU: Convergence failed at  77  side 1    Res =  0.1022E+02
 MRCHDU: Convergence failed at  78  side 1    Res =  0.1744E+01
 MRCHDU: Convergence failed at  79  side 1    Res =  0.1281E+01
 MRCHDU: Convergence failed at  80  side 1    Res =  0.9678E+00
 MRCHDU: Convergence failed at  81  side 1    Res =  0.8979E+00
 MRCHDU: Convergence failed at  82  side 1    Res =  0.9771E+00
 MRCHDU: Convergence failed at  83  side 1    Res =  0.1037E+01
 MRCHDU: Convergence failed at  84  side 1    Res =  0.1433E+01
 MRCHDU: Convergence failed at  85  side 1    Res =  0.1785E+01
 MRCHDU: Convergence failed at  86  side 1    Res =  0.2998E+01
 MRCHDU: Convergence failed at  87  side 1    Res =  0.4524E+01
 MRCHDU: Convergence failed at  88  side 1    Res =  0.2632E+01
 MRCHDU: Convergence failed at  89  side 1    Res =  0.5655E+01
 MRCHDU: Convergence failed at  90  side 1    Res =  0.6946E+01
 MRCHDU: Convergence failed at  91  side 1    Res =  0.2997E+01
 MRCHDU: Convergence failed at  92  side 1    Res =  0.3384E+01
 MRCHDU: Convergence failed at  93  side 1    Res =  0.4089E+01
 MRCHDU: Convergence failed at  94  side 1    Res =  0.5379E+01
 MRCHDU: Convergence failed at  95  side 1    Res =  0.6778E+01
 MRCHDU: Convergence failed at  96  side 1    Res =  0.8223E+01
 MRCHDU: Convergence failed at  97  side 1    Res =  0.1006E+02
 MRCHDU: Convergence failed at  98  side 1    Res =  0.1231E+02
 MRCHDU: Convergence failed at  99  side 1    Res =  0.1593E+02
 MRCHDU: Convergence failed at 100  side 1    Res =  0.3528E+02
 Side 1  free  transition at x/c =  0.0176   31
 Side 2 forced transition at x/c =  1.0000   62

  16   rms: 0.8589E+00   max: 0.1305E+01   D at   63  2   RLX: 0.413
       a = 16.250      CL =  2.7541
      Cm = -0.3164     CD =  0.01611   =>   CDf =  0.01391    CDp =  0.00221

 MRCHDU: Convergence failed at  73  side 1    Res =  0.3160E+00
 MRCHDU: Convergence failed at  74  side 1    Res =  0.2637E+00
 Side 1  free  transition at x/c =  0.0166   32
 Side 2 forced transition at x/c =  1.0000   61

  17   rms: 0.5805E+00   max: 0.1194E+01   D at   62  2   RLX: 0.456
       a = 16.250      CL =  2.2984
      Cm = -0.1716     CD =  0.02829   =>   CDf =  0.01049    CDp =  0.01780

 Side 1  free  transition at x/c =  0.0163   32
 Side 2 forced transition at x/c =  1.0000   61
 idif Ue xi dudx           1  0.13103795      1.51475668E-02   8.6507587    
 Uenew xinew           2  4.40158471E-02  5.08809090E-03

  18   rms: 0.5365E+00   max: 0.1481E+01   D at  101  1   RLX: 0.592
       a = 16.250      CL =  1.7929
      Cm = -0.0620     CD =  0.03941   =>   CDf =  0.00858    CDp =  0.03083

 Side 1  free  transition at x/c =  0.0172   31
 Side 2 forced transition at x/c =  1.0000   62
 idif Ue xi dudx           1  0.15279998      1.49567127E-02   10.216147    
 Uenew xinew           2  6.49119243E-02  6.35385513E-03

  19   rms: 0.5286E+00   max: 0.1636E+01   D at   89  1   RLX: 0.730
       a = 16.250      CL =  1.3495
      Cm = -0.0045     CD =  0.05636   =>   CDf =  0.00694    CDp =  0.04942

 Side 1  free  transition at x/c =  0.0185   30
 Side 2 forced transition at x/c =  1.0000   63
 idif Ue xi dudx           1  0.10066657      8.40091705E-03   11.982807    
 Uenew xinew           2  1.32832676E-02  1.10852718E-03

  20   rms: 0.1344E+00   max: 0.1283E+01   D at   76  2
       a = 16.250      CL =  1.2268
      Cm =  0.0155     CD =  0.06753   =>   CDf =  0.00647    CDp =  0.06106

 MRCHDU: Convergence failed at  77  side 2    Res =  0.2751E+01
 Side 1  free  transition at x/c =  0.0187   30
 Side 2 forced transition at x/c =  1.0000   64

  21   rms: 0.5774E-01   max: 0.4757E+00   D at   78  2
       a = 16.250      CL =  1.2073
      Cm =  0.0133     CD =  0.07213   =>   CDf =  0.00606    CDp =  0.06607

 Side 1  free  transition at x/c =  0.0188   30
 Side 2 forced transition at x/c =  1.0000   64

  22   rms: 0.9579E-02   max: 0.7915E-01   D at   68  1
       a = 16.250      CL =  1.2048
      Cm =  0.0137     CD =  0.07092   =>   CDf =  0.00593    CDp =  0.06499

 Side 1  free  transition at x/c =  0.0188   30
 Side 2 forced transition at x/c =  1.0000   64

  23   rms: 0.1785E-02   max: 0.8830E-02   D at   67  1
       a = 16.250      CL =  1.2036
      Cm =  0.0137     CD =  0.07088   =>   CDf =  0.00592    CDp =  0.06496

 Side 1  free  transition at x/c =  0.0188   30
 Side 2 forced transition at x/c =  1.0000   64

  24   rms: 0.1263E-03   max: 0.9992E-03   D at   79  2
       a = 16.250      CL =  1.2035
      Cm =  0.0137     CD =  0.07085   =>   CDf =  0.00592    CDp =  0.06493

 Side 1  free  transition at x/c =  0.0188   30
 Side 2 forced transition at x/c =  1.0000   64

  25   rms: 0.5496E-05   max: -.4044E-04   C at   64  2
       a = 16.250      CL =  1.2035
      Cm =  0.0137     CD =  0.07085   =>   CDf =  0.00592    CDp =  0.06493
 plradd ia,ip,cpol            1           0  3.95246228E-04

 Point added to stored polar  1
 Point written to save file  naca747a415_Re400k.ext.pol                      
 Dump file unspecified or not available
 Calculating wake trajectory ...
 Calculating source influence matrix ...

 Solving BL system ...

 Side 1  free  transition at x/c =  0.0188   30
 Side 2 forced transition at x/c =  1.0000   64

   1   rms: 0.3866E-01   max: 0.1133E+00   T at   30  1   RLX: 0.498
       a = 16.500      CL =  1.2124
      Cm =  0.0140     CD =  0.07140   =>   CDf =  0.00592    CDp =  0.06547

 Side 1  free  transition at x/c =  0.0187   30
 Side 2 forced transition at x/c =  1.0000   64

   2   rms: 0.2030E-01   max: 0.5650E-01   T at   30  1
       a = 16.500      CL =  1.2205
      Cm =  0.0144     CD =  0.07211   =>   CDf =  0.00589    CDp =  0.06621

 Side 1  free  transition at x/c =  0.0186   30
 Side 2 forced transition at x/c =  1.0000   64

   3   rms: 0.3326E-02   max: 0.1211E-01   D at   68  1
       a = 16.500      CL =  1.2181
      Cm =  0.0143     CD =  0.07237   =>   CDf =  0.00585    CDp =  0.06652

 Side 1  free  transition at x/c =  0.0186   30
 Side 2 forced transition at x/c =  1.0000   64

   4   rms: 0.1474E-03   max: 0.1296E-02   D at   80  2
       a = 16.500      CL =  1.2181
      Cm =  0.0143     CD =  0.07230   =>   CDf =  0.00585    CDp =  0.06645

 Side 1  free  transition at x/c =  0.0186   30
 Side 2 forced transition at x/c =  1.0000   64

   5   rms: 0.9167E-05   max: 0.6794E-04   C at   64  2
       a = 16.500      CL =  1.2181
      Cm =  0.0143     CD =  0.07230   =>   CDf =  0.00585    CDp =  0.06645
 plradd ia,ip,cpol            2           0  3.95246228E-04

 Point added to stored polar  1
 Point written to save file  naca747a415_Re400k.ext.pol                      
 Dump file unspecified or not available
 Calculating wake trajectory ...
 Calculating source influence matrix ...

 Solving BL system ...

 Side 1  free  transition at x/c =  0.0186   30
 Side 2 forced transition at x/c =  1.0000   64

   1   rms: 0.5017E-01   max: 0.1440E+00   T at   68  1   RLX: 0.493
       a = 16.750      CL =  1.2291
      Cm =  0.0149     CD =  0.07269   =>   CDf =  0.00585    CDp =  0.06684

 Side 1  free  transition at x/c =  0.0185   30
 Side 2 forced transition at x/c =  1.0000   64

   2   rms: 0.2838E-01   max: 0.8489E-01   T at   68  1
       a = 16.750      CL =  1.2391
      Cm =  0.0155     CD =  0.07360   =>   CDf =  0.00540    CDp =  0.06821

 Side 1  free  transition at x/c =  0.0184   30
 Side 2 forced transition at x/c =  1.0000   63

   3   rms: 0.2304E-01   max: 0.1246E+00   D at   70  1
       a = 16.750      CL =  1.2300
      Cm =  0.0145     CD =  0.07517   =>   CDf =  0.00573    CDp =  0.06944

 Side 1  free  transition at x/c =  0.0184   30
 Side 2 forced transition at x/c =  1.0000   63

   4   rms: 0.2765E-02   max: 0.2228E-01   D at   79  2
       a = 16.750      CL =  1.2287
      Cm =  0.0147     CD =  0.07448   =>   CDf =  0.00572    CDp =  0.06876

 Side 1  free  transition at x/c =  0.0184   30
 Side 2 forced transition at x/c =  1.0000   63

   5   rms: 0.1785E-03   max: 0.3345E-02   D at   79  2
       a = 16.750      CL =  1.2286
      Cm =  0.0147     CD =  0.07443   =>   CDf =  0.00572    CDp =  0.06871

 Side 1  free  transition at x/c =  0.0184   30
 Side 2 forced transition at x/c =  1.0000   63

   6   rms: 0.2079E-05   max: 0.2979E-04   D at   79  2
       a = 16.750      CL =  1.2286
      Cm =  0.0147     CD =  0.07443   =>   CDf =  0.00572    CDp =  0.06871
 plradd ia,ip,cpol            3           0  3.95246228E-04

 Point added to stored polar  1
 Point written to save file  naca747a415_Re400k.ext.pol                      
 Dump file unspecified or not available
 Calculating wake trajectory ...
 Calculating source influence matrix ...

 Solving BL system ...

 Side 1  free  transition at x/c =  0.0184   30
 Side 2 forced transition at x/c =  1.0000   63

   1   rms: 0.2814E-01   max: 0.8275E-01   D at   64  1   RLX: 0.476
       a = 17.000      CL =  1.2309
      Cm =  0.0144     CD =  0.07599   =>   CDf =  0.00572    CDp =  0.07027

 Side 1  free  transition at x/c =  0.0184   30
 Side 2 forced transition at x/c =  1.0000   63

   2   rms: 0.1494E-01   max: 0.4618E-01   D at   63  1
       a = 17.000      CL =  1.2317
      Cm =  0.0141     CD =  0.07769   =>   CDf =  0.00564    CDp =  0.07204

 Side 1  free  transition at x/c =  0.0184   30
 Side 2 forced transition at x/c =  1.0000   63

   3   rms: 0.2416E-02   max: 0.1089E-01   D at   79  2
       a = 17.000      CL =  1.2299
      Cm =  0.0141     CD =  0.07752   =>   CDf =  0.00555    CDp =  0.07197

 Side 1  free  transition at x/c =  0.0184   30
 Side 2 forced transition at x/c =  1.0000   63

   4   rms: 0.1037E-03   max: 0.1096E-02   D at   79  2
       a = 17.000      CL =  1.2299
      Cm =  0.0142     CD =  0.07746   =>   CDf =  0.00556    CDp =  0.07191

 Side 1  free  transition at x/c =  0.0184   30
 Side 2 forced transition at x/c =  1.0000   63

   5   rms: 0.3266E-05   max: 0.2144E-04   C at   63  2
       a = 17.000      CL =  1.2299
      Cm =  0.0142     CD =  0.07747   =>   CDf =  0.00556    CDp =  0.07191
 plradd ia,ip,cpol            4           0  3.95246228E-04

 Point added to stored polar  1
 Point written to save file  naca747a415_Re400k.ext.pol                      
 Dump file unspecified or not available
 Calculating wake trajectory ...
 Calculating source influence matrix ...

 Solving BL system ...

 Side 1  free  transition at x/c =  0.0184   30
 Side 2 forced transition at x/c =  1.0000   63

   1   rms: 0.2929E-01   max: 0.9111E-01   D at   63  1   RLX: 0.463
       a = 17.250      CL =  1.2314
      Cm =  0.0139     CD =  0.07916   =>   CDf =  0.00556    CDp =  0.07360

 Side 1  free  transition at x/c =  0.0184   30
 Side 2 forced transition at x/c =  1.0000   63

   2   rms: 0.1622E-01   max: 0.5207E-01   D at   63  1
       a = 17.250      CL =  1.2313
      Cm =  0.0135     CD =  0.08112   =>   CDf =  0.00548    CDp =  0.07564

 Side 1  free  transition at x/c =  0.0183   30
 Side 2 forced transition at x/c =  1.0000   63

   3   rms: 0.2574E-02   max: 0.1081E-01   D at   80  2
       a = 17.250      CL =  1.2294
      Cm =  0.0135     CD =  0.08093   =>   CDf =  0.00538    CDp =  0.07555

 Side 1  free  transition at x/c =  0.0183   30
 Side 2 forced transition at x/c =  1.0000   63

   4   rms: 0.1143E-03   max: 0.1092E-02   D at   79  2
       a = 17.250      CL =  1.2294
      Cm =  0.0135     CD =  0.08085   =>   CDf =  0.00538    CDp =  0.07547

 Side 1  free  transition at x/c =  0.0183   30
 Side 2 forced transition at x/c =  1.0000   63

   5   rms: 0.4037E-05   max: 0.4566E-04   C at   63  2
       a = 17.250      CL =  1.2294
      Cm =  0.0135     CD =  0.08086   =>   CDf =  0.00538    CDp =  0.07547
 plradd ia,ip,cpol            5           0  3.95246228E-04

 Point added to stored polar  1
 Point written to save file  naca747a415_Re400k.ext.pol                      
 Dump file unspecified or not available
 Calculating wake trajectory ...
 Calculating source influence matrix ...

 Solving BL system ...

 Side 1  free  transition at x/c =  0.0183   30
 Side 2 forced transition at x/c =  1.0000   63

   1   rms: 0.2862E-01   max: 0.1050E+00   D at   63  1   RLX: 0.449
       a = 17.500      CL =  1.2289
      Cm =  0.0130     CD =  0.08279   =>   CDf =  0.00538    CDp =  0.07741

 Side 1  free  transition at x/c =  0.0183   30
 Side 2 forced transition at x/c =  1.0000   63

   2   rms: 0.1635E-01   max: 0.5963E-01   D at   62  1
       a = 17.500      CL =  1.2269
      Cm =  0.0124     CD =  0.08505   =>   CDf =  0.00530    CDp =  0.07975

 Side 1  free  transition at x/c =  0.0182   30
 Side 2 forced transition at x/c =  1.0000   63

   3   rms: 0.2944E-02   max: 0.1555E-01   D at   67  1
       a = 17.500      CL =  1.2248
      Cm =  0.0124     CD =  0.08482   =>   CDf =  0.00519    CDp =  0.07963

 Side 1  free  transition at x/c =  0.0182   30
 Side 2 forced transition at x/c =  1.0000   63

   4   rms: 0.1348E-03   max: 0.1431E-02   D at   80  2
       a = 17.500      CL =  1.2248
      Cm =  0.0124     CD =  0.08474   =>   CDf =  0.00519    CDp =  0.07955

 Side 1  free  transition at x/c =  0.0182   30
 Side 2 forced transition at x/c =  1.0000   63

   5   rms: 0.7221E-05   max: 0.6732E-04   C at   63  2
       a = 17.500      CL =  1.2248
      Cm =  0.0124     CD =  0.08474   =>   CDf =  0.00519    CDp =  0.07955
 plradd ia,ip,cpol            6           0  3.95246228E-04

 Point added to stored polar  1
 Point written to save file  naca747a415_Re400k.ext.pol                      
 Dump file unspecified or not available
 Calculating wake trajectory ...
 Calculating source influence matrix ...

 Solving BL system ...

 Side 1  free  transition at x/c =  0.0182   30
 Side 2 forced transition at x/c =  1.0000   63

   1   rms: 0.2942E-01   max: 0.1019E+00   D at   62  1   RLX: 0.437
       a = 17.750      CL =  1.2252
      Cm =  0.0120     CD =  0.08660   =>   CDf =  0.00520    CDp =  0.08141

 Side 1  free  transition at x/c =  0.0182   30
 Side 2 forced transition at x/c =  1.0000   63

   2   rms: 0.1716E-01   max: 0.6066E-01   D at   61  1
       a = 17.750      CL =  1.2240
      Cm =  0.0114     CD =  0.08899   =>   CDf =  0.00512    CDp =  0.08387

 Side 1  free  transition at x/c =  0.0182   30
 Side 2 forced transition at x/c =  1.0000   63

   3   rms: 0.3128E-02   max: 0.1450E-01   D at   80  2
       a = 17.750      CL =  1.2217
      Cm =  0.0114     CD =  0.08873   =>   CDf =  0.00501    CDp =  0.08372

 Side 1  free  transition at x/c =  0.0182   30
 Side 2 forced transition at x/c =  1.0000   63

   4   rms: 0.1712E-03   max: 0.2358E-02   D at   80  2
       a = 17.750      CL =  1.2217
      Cm =  0.0114     CD =  0.08864   =>   CDf =  0.00502    CDp =  0.08362

 Side 1  free  transition at x/c =  0.0182   30
 Side 2 forced transition at x/c =  1.0000   63

   5   rms: 0.3466E-05   max: 0.3922E-04   C at   63  2
       a = 17.750      CL =  1.2217
      Cm =  0.0114     CD =  0.08864   =>   CDf =  0.00502    CDp =  0.08362
 plradd ia,ip,cpol            7           0  3.95246228E-04

 Point added to stored polar  1
 Point written to save file  naca747a415_Re400k.ext.pol                      
 Dump file unspecified or not available
 Calculating wake trajectory ...
 Calculating source influence matrix ...

 Solving BL system ...

 Side 1  free  transition at x/c =  0.0182   30
 Side 2 forced transition at x/c =  1.0000   63

   1   rms: 0.2979E-01   max: 0.1137E+00   D at   62  1   RLX: 0.424
       a = 18.000      CL =  1.2207
      Cm =  0.0109     CD =  0.09073   =>   CDf =  0.00502    CDp =  0.08570

 Side 1  free  transition at x/c =  0.0182   30
 Side 2 forced transition at x/c =  1.0000   63

   2   rms: 0.1814E-01   max: 0.6890E-01   D at   61  1
       a = 18.000      CL =  1.2175
      Cm =  0.0100     CD =  0.09351   =>   CDf =  0.00494    CDp =  0.08857

 Side 1  free  transition at x/c =  0.0182   30
 Side 2 forced transition at x/c =  1.0000   63

   3   rms: 0.3040E-02   max: 0.1610E-01   D at   80  2
       a = 18.000      CL =  1.2153
      Cm =  0.0100     CD =  0.09309   =>   CDf =  0.00483    CDp =  0.08826

 Side 1  free  transition at x/c =  0.0182   30
 Side 2 forced transition at x/c =  1.0000   63

   4   rms: 0.1368E-03   max: 0.1162E-02   D at   80  2
       a = 18.000      CL =  1.2153
      Cm =  0.0101     CD =  0.09299   =>   CDf =  0.00483    CDp =  0.08816

 Side 1  free  transition at x/c =  0.0182   30
 Side 2 forced transition at x/c =  1.0000   63

   5   rms: 0.7898E-05   max: 0.9308E-04   C at   63  2
       a = 18.000      CL =  1.2153
      Cm =  0.0101     CD =  0.09300   =>   CDf =  0.00483    CDp =  0.08816
 plradd ia,ip,cpol            8           0  3.95246228E-04

 Point added to stored polar  1
 Point written to save file  naca747a415_Re400k.ext.pol                      
 Dump file unspecified or not available

.OPERva   c>   Calculating wake trajectory ...
 Calculating source influence matrix ...

 Solving BL system ...

 Side 1  free  transition at x/c =  0.0182   30
 Side 2 forced transition at x/c =  1.0000   63

   1   rms: 0.3064E-01   max: 0.1223E+00   D at   61  1   RLX: 0.411
       a = 18.250      CL =  1.2137
      Cm =  0.0094     CD =  0.09520   =>   CDf =  0.00484    CDp =  0.09037

 Side 1  free  transition at x/c =  0.0182   30
 Side 2 forced transition at x/c =  1.0000   63

   2   rms: 0.1927E-01   max: 0.7558E-01   D at   60  1
       a = 18.250      CL =  1.2094
      Cm =  0.0084     CD =  0.09835   =>   CDf =  0.00476    CDp =  0.09360

 Side 1  free  transition at x/c =  0.0181   30
 Side 2 forced transition at x/c =  1.0000   63

   3   rms: 0.3636E-02   max: 0.1546E-01   D at   80  2
       a = 18.250      CL =  1.2069
      Cm =  0.0084     CD =  0.09790   =>   CDf =  0.00464    CDp =  0.09327

 Side 1  free  transition at x/c =  0.0182   30
 Side 2 forced transition at x/c =  1.0000   63

   4   rms: 0.1985E-03   max: 0.1601E-02   D at   80  2
       a = 18.250      CL =  1.2069
      Cm =  0.0084     CD =  0.09776   =>   CDf =  0.00464    CDp =  0.09312

 Side 1  free  transition at x/c =  0.0181   30
 Side 2 forced transition at x/c =  1.0000   63

   5   rms: 0.1278E-04   max: -.8996E-04   D at   80  2
       a = 18.250      CL =  1.2069
      Cm =  0.0084     CD =  0.09777   =>   CDf =  0.00464    CDp =  0.09312
 plradd ia,ip,cpol            9           0  3.95246228E-04

 Point added to stored polar  1
 Point written to save file  naca747a415_Re400k.ext.pol                      
 Dump file unspecified or not available
 Calculating wake trajectory ...
 Calculating source influence matrix ...

 Solving BL system ...

 Side 1  free  transition at x/c =  0.0181   30
 Side 2 forced transition at x/c =  1.0000   63

   1   rms: 0.6290E-01   max: 0.2621E+00   D at   60  1   RLX: 0.388
       a = 18.750      CL =  1.2024
      Cm =  0.0069     CD =  0.10239   =>   CDf =  0.00465    CDp =  0.09774

 Side 1  free  transition at x/c =  0.0181   30
 Side 2 forced transition at x/c =  1.0000   63

   2   rms: 0.4223E-01   max: 0.1727E+00   D at   64  1
       a = 18.750      CL =  1.1900
      Cm =  0.0040     CD =  0.11009   =>   CDf =  0.00449    CDp =  0.10560

 Side 1  free  transition at x/c =  0.0181   30
 Side 2 forced transition at x/c =  1.0000   63

   3   rms: 0.8001E-02   max: 0.5499E-01   D at   63  1
       a = 18.750      CL =  1.1851
      Cm =  0.0039     CD =  0.10882   =>   CDf =  0.00425    CDp =  0.10457

 Side 1  free  transition at x/c =  0.0181   30
 Side 2 forced transition at x/c =  1.0000   63

   4   rms: 0.4158E-03   max: 0.4684E-02   D at   81  2
       a = 18.750      CL =  1.1851
      Cm =  0.0040     CD =  0.10850   =>   CDf =  0.00427    CDp =  0.10423

 Side 1  free  transition at x/c =  0.0181   30
 Side 2 forced transition at x/c =  1.0000   63

   5   rms: 0.2192E-04   max: -.1418E-03   D at   82  2
       a = 18.750      CL =  1.1851
      Cm =  0.0040     CD =  0.10850   =>   CDf =  0.00427    CDp =  0.10424
 plradd ia,ip,cpol           10           0  3.95246228E-04

 Point added to stored polar  1
 Point written to save file  naca747a415_Re400k.ext.pol                      
 Dump file unspecified or not available
 Calculating wake trajectory ...
 Calculating source influence matrix ...

 Solving BL system ...

 Side 1  free  transition at x/c =  0.0181   30
 Side 2 forced transition at x/c =  1.0000   63

   1   rms: 0.6840E-01   max: 0.3040E+00   D at   59  1   RLX: 0.363
       a = 19.250      CL =  1.1776
      Cm =  0.0019     CD =  0.11386   =>   CDf =  0.00427    CDp =  0.10959

 Side 1  free  transition at x/c =  0.0181   30
 Side 2 forced transition at x/c =  1.0000   63

   2   rms: 0.4817E-01   max: 0.2045E+00   D at   62  1
       a = 19.250      CL =  1.1609
      Cm = -0.0023     CD =  0.12342   =>   CDf =  0.00412    CDp =  0.11929

 Side 1  free  transition at x/c =  0.0181   30
 Side 2 forced transition at x/c =  1.0000   63

   3   rms: 0.9507E-02   max: 0.7265E-01   D at   61  1
       a = 19.250      CL =  1.1557
      Cm = -0.0024     CD =  0.12153   =>   CDf =  0.00387    CDp =  0.11765

 Side 1  free  transition at x/c =  0.0181   30
 Side 2 forced transition at x/c =  1.0000   63

   4   rms: 0.5420E-03   max: -.4243E-02   D at   61  1
       a = 19.250      CL =  1.1558
      Cm = -0.0023     CD =  0.12109   =>   CDf =  0.00388    CDp =  0.11721

 Side 1  free  transition at x/c =  0.0181   30
 Side 2 forced transition at x/c =  1.0000   63

   5   rms: 0.3878E-04   max: -.2477E-03   D at   83  2
       a = 19.250      CL =  1.1558
      Cm = -0.0023     CD =  0.12111   =>   CDf =  0.00388    CDp =  0.11722
 plradd ia,ip,cpol           11           0  3.95246228E-04

 Point added to stored polar  1
 Point written to save file  naca747a415_Re400k.ext.pol                      
 Dump file unspecified or not available
 Calculating wake trajectory ...
 Calculating source influence matrix ...

 Solving BL system ...

 Side 1  free  transition at x/c =  0.0181   30
 Side 2 forced transition at x/c =  1.0000   63

   1   rms: 0.8101E-01   max: 0.3603E+00   D at   57  1   RLX: 0.340
       a = 19.750      CL =  1.1458
      Cm = -0.0051     CD =  0.12750   =>   CDf =  0.00389    CDp =  0.12361

 Side 1  free  transition at x/c =  0.0181   30
 Side 2 forced transition at x/c =  1.0000   63

   2   rms: 0.5840E-01   max: 0.2495E+00   D at   59  1
       a = 19.750      CL =  1.1244
      Cm = -0.0109     CD =  0.13979   =>   CDf =  0.00375    CDp =  0.13604

 Side 1  free  transition at x/c =  0.0181   30
 Side 2 forced transition at x/c =  1.0000   63

   3   rms: 0.1202E-01   max: 0.9566E-01   D at   58  1
       a = 19.750      CL =  1.1185
      Cm = -0.0110     CD =  0.13700   =>   CDf =  0.00348    CDp =  0.13351

 Side 1  free  transition at x/c =  0.0181   30
 Side 2 forced transition at x/c =  1.0000   63

   4   rms: 0.8117E-03   max: 0.9827E-02   D at   57  1
       a = 19.750      CL =  1.1185
      Cm = -0.0109     CD =  0.13630   =>   CDf =  0.00350    CDp =  0.13280

 Side 1  free  transition at x/c =  0.0181   30
 Side 2 forced transition at x/c =  1.0000   63

   5   rms: 0.3829E-04   max: -.2376E-03   D at   83  2
       a = 19.750      CL =  1.1185
      Cm = -0.0109     CD =  0.13630   =>   CDf =  0.00350    CDp =  0.13281
 plradd ia,ip,cpol           12           0  3.95246228E-04

 Point added to stored polar  1
 Point written to save file  naca747a415_Re400k.ext.pol                      
 Dump file unspecified or not available
 Calculating wake trajectory ...
 Calculating source influence matrix ...

 Solving BL system ...

 Side 1  free  transition at x/c =  0.0181   30
 Side 2 forced transition at x/c =  1.0000   63

   1   rms: 0.9372E-01   max: 0.4128E+00   D at   53  1   RLX: 0.319
       a = 20.250      CL =  1.1077
      Cm = -0.0142     CD =  0.14364   =>   CDf =  0.00350    CDp =  0.14013

 Side 1  free  transition at x/c =  0.0182   30
 Side 2 forced transition at x/c =  1.0000   63

   2   rms: 0.7024E-01   max: 0.2979E+00   D at   55  1
       a = 20.250      CL =  1.0833
      Cm = -0.0217     CD =  0.15903   =>   CDf =  0.00338    CDp =  0.15565

 Side 1  free  transition at x/c =  0.0183   30
 Side 2 forced transition at x/c =  1.0000   63

   3   rms: 0.1297E-01   max: 0.9856E-01   D at   54  1
       a = 20.250      CL =  1.0783
      Cm = -0.0213     CD =  0.15413   =>   CDf =  0.00314    CDp =  0.15099

 Side 1  free  transition at x/c =  0.0183   30
 Side 2 forced transition at x/c =  1.0000   63

   4   rms: 0.9993E-03   max: 0.1422E-01   D at   82  2
       a = 20.250      CL =  1.0786
      Cm = -0.0212     CD =  0.15327   =>   CDf =  0.00317    CDp =  0.15011

 Side 1  free  transition at x/c =  0.0183   30
 Side 2 forced transition at x/c =  1.0000   63

   5   rms: 0.9014E-04   max: -.4265E-03   D at   81  2
       a = 20.250      CL =  1.0786
      Cm = -0.0212     CD =  0.15334   =>   CDf =  0.00317    CDp =  0.15017
 plradd ia,ip,cpol           13           0 -1.65071629E-04

 Point added to stored polar  1
 Point written to save file  naca747a415_Re400k.ext.pol                      
 Dump file unspecified or not available
 Calculating wake trajectory ...
 Calculating source influence matrix ...

 Solving BL system ...

 Side 1  free  transition at x/c =  0.0183   30
 Side 2 forced transition at x/c =  1.0000   63

   1   rms: 0.1067E+00   max: 0.4579E+00   D at   50  1   RLX: 0.300
       a = 20.750      CL =  1.0680
      Cm = -0.0248     CD =  0.16118   =>   CDf =  0.00317    CDp =  0.15801

 Side 1  free  transition at x/c =  0.0184   30
 Side 2 forced transition at x/c =  1.0000   63

   2   rms: 0.7315E-01   max: 0.2923E+00   D at   51  1
       a = 20.750      CL =  1.0478
      Cm = -0.0323     CD =  0.17725   =>   CDf =  0.00308    CDp =  0.17418

 Side 1  free  transition at x/c =  0.0186   31
 Side 2 forced transition at x/c =  1.0000   63

   3   rms: 0.9775E-01   max: 0.5768E+00   D at   50  1
       a = 20.750      CL =  1.0766
      Cm = -0.0269     CD =  0.16770   =>   CDf =  0.00322    CDp =  0.16448

 Side 1  free  transition at x/c =  0.0185   31
 Side 2 forced transition at x/c =  1.0000   63

   4   rms: 0.8416E-01   max: 0.3736E+00   D at   53  1
       a = 20.750      CL =  1.0414
      Cm = -0.0349     CD =  0.17813   =>   CDf =  0.00285    CDp =  0.17528

 Side 1  free  transition at x/c =  0.0187   31
 Side 2 forced transition at x/c =  1.0000   63
 idif Ue xi dudx           1  8.32676440E-02  7.49802589E-03   11.105275    
 Uenew xinew           2  2.28364463E-03  2.05636024E-04

   5   rms: 0.1273E+00   max: 0.4706E+00   D at   50  1
       a = 20.750      CL =  0.9994
      Cm = -0.0444     CD =  0.19651   =>   CDf =  0.00315    CDp =  0.19335

 MRCHDU: Convergence failed at  43  side 1    Res =  0.2148E+01
 MRCHDU: Convergence failed at  44  side 1    Res =  0.1689E+01
 MRCHDU: Convergence failed at  45  side 1    Res =  0.1017E+01
 MRCHDU: Convergence failed at  46  side 1    Res =  0.2192E+01
 Side 1  free  transition at x/c =  0.0196   30
 Side 2 forced transition at x/c =  1.0000   64

   6   rms: 0.1524E+00   max: 0.8586E+00   D at    2  2
       a = 20.750      CL =  1.0139
      Cm = -0.0374     CD =  0.16974   =>   CDf =  0.00231    CDp =  0.16743

 Side 1  free  transition at x/c =  0.0190   31
 Side 2 forced transition at x/c =  1.0000   63

   7   rms: 0.5453E-01   max: -.2651E+00   D at   42  1
       a = 20.750      CL =  1.0274
      Cm = -0.0344     CD =  0.16600   =>   CDf =  0.00270    CDp =  0.16330

 Side 1  free  transition at x/c =  0.0189   31
 Side 2 forced transition at x/c =  1.0000   63

   8   rms: 0.3556E-01   max: -.1428E+00   D at   43  1
       a = 20.750      CL =  1.0423
      Cm = -0.0324     CD =  0.16783   =>   CDf =  0.00280    CDp =  0.16503

 Side 1  free  transition at x/c =  0.0187   31
 Side 2 forced transition at x/c =  1.0000   63
 idif Ue xi dudx           1  8.91107768E-02  7.97128677E-03   11.178970    
 Uenew xinew           2  7.58936815E-03  6.78896904E-04

   9   rms: 0.2271E+00   max: 0.7891E+00   D at   48  1   RLX: 0.664
       a = 20.750      CL =  0.9982
      Cm = -0.0481     CD =  0.19969   =>   CDf =  0.00313    CDp =  0.19656

 MRCHDU: Convergence failed at  39  side 1    Res =  0.8655E+00
 MRCHDU: Convergence failed at  40  side 1    Res =  0.1510E+01
 MRCHDU: Convergence failed at  41  side 1    Res =  0.2311E+01
 MRCHDU: Convergence failed at  42  side 1    Res =  0.5590E+01
 MRCHDU: Convergence failed at  43  side 1    Res =  0.1353E+02
 MRCHDU: Convergence failed at  44  side 1    Res =  0.3347E+01
 MRCHDU: Convergence failed at  45  side 1    Res =  0.2046E+01
 MRCHDU: Convergence failed at  46  side 1    Res =  0.3049E+01
 MRCHDU: Convergence failed at  47  side 1    Res =  0.1074E+02
 MRCHDU: Convergence failed at  48  side 1    Res =  0.2899E+01
 MRCHDU: Convergence failed at  49  side 1    Res =  0.1253E+01
 MRCHDU: Convergence failed at  50  side 1    Res =  0.1740E+01
 MRCHDU: Convergence failed at  51  side 1    Res =  0.2560E+01
 MRCHDU: Convergence failed at  52  side 1    Res =  0.4679E+01
 MRCHDU: Convergence failed at  53  side 1    Res =  0.1412E+02
 MRCHDU: Convergence failed at  54  side 1    Res =  0.8696E+01
 MRCHDU: Convergence failed at  55  side 1    Res =  0.4412E+01
 MRCHDU: Convergence failed at  56  side 1    Res =  0.2928E+01
 MRCHDU: Convergence failed at  57  side 1    Res =  0.2355E+01
 MRCHDU: Convergence failed at  58  side 1    Res =  0.1924E+01
 MRCHDU: Convergence failed at  59  side 1    Res =  0.1693E+01
 MRCHDU: Convergence failed at  60  side 1    Res =  0.1889E+01
 MRCHDU: Convergence failed at  61  side 1    Res =  0.2195E+01
 MRCHDU: Convergence failed at  62  side 1    Res =  0.2658E+01
 MRCHDU: Convergence failed at  63  side 1    Res =  0.3377E+01
 MRCHDU: Convergence failed at  64  side 1    Res =  0.4849E+01
 MRCHDU: Convergence failed at  65  side 1    Res =  0.7953E+01
 MRCHDU: Convergence failed at  66  side 1    Res =  0.1958E+02
 MRCHDU: Convergence failed at  67  side 1    Res =  0.1931E+02
 MRCHDU: Convergence failed at  68  side 1    Res =  0.8720E+01
 MRCHDU: Convergence failed at  69  side 1    Res =  0.5872E+01
 MRCHDU: Convergence failed at  70  side 1    Res =  0.4357E+01
 MRCHDU: Convergence failed at  71  side 1    Res =  0.3628E+01
 MRCHDU: Convergence failed at  72  side 1    Res =  0.3160E+01
 MRCHDU: Convergence failed at  73  side 1    Res =  0.2833E+01
 MRCHDU: Convergence failed at  74  side 1    Res =  0.2599E+01
 MRCHDU: Convergence failed at  75  side 1    Res =  0.2325E+01
 MRCHDU: Convergence failed at  76  side 1    Res =  0.2214E+01
 MRCHDU: Convergence failed at  77  side 1    Res =  0.2041E+01
 MRCHDU: Convergence failed at  78  side 1    Res =  0.2127E+01
 MRCHDU: Convergence failed at  79  side 1    Res =  0.2224E+01
 MRCHDU: Convergence failed at  80  side 1    Res =  0.2335E+01
 MRCHDU: Convergence failed at  81  side 1    Res =  0.2452E+01
 MRCHDU: Convergence failed at  82  side 1    Res =  0.2565E+01
 MRCHDU: Convergence failed at  83  side 1    Res =  0.2699E+01
 MRCHDU: Convergence failed at  84  side 1    Res =  0.2841E+01
 MRCHDU: Convergence failed at  85  side 1    Res =  0.2993E+01
 MRCHDU: Convergence failed at  86  side 1    Res =  0.3154E+01
 MRCHDU: Convergence failed at  87  side 1    Res =  0.3322E+01
 MRCHDU: Convergence failed at  88  side 1    Res =  0.3497E+01
 MRCHDU: Convergence failed at  89  side 1    Res =  0.3666E+01
 MRCHDU: Convergence failed at  90  side 1    Res =  0.3832E+01
 MRCHDU: Convergence failed at  91  side 1    Res =  0.3994E+01
 MRCHDU: Convergence failed at  92  side 1    Res =  0.4161E+01
 MRCHDU: Convergence failed at  93  side 1    Res =  0.4359E+01
 MRCHDU: Convergence failed at  94  side 1    Res =  0.4560E+01
 MRCHDU: Convergence failed at  95  side 1    Res =  0.4761E+01
 MRCHDU: Convergence failed at  96  side 1    Res =  0.4993E+01
 MRCHDU: Convergence failed at  97  side 1    Res =  0.5164E+01
 MRCHDU: Convergence failed at  98  side 1    Res =  0.5743E+01
 Side 1  free  transition at x/c =  0.0197   30
 Side 2 forced transition at x/c =  1.0000   64

  10   rms: 0.1408E+01   max: 0.6076E+01   T at    2  2   RLX: 0.142
       a = 20.750      CL =  1.8100
      Cm = -0.2788     CD =  0.07701   =>   CDf =  0.00279    CDp =  0.07422

 Side 1  free  transition at x/c =  0.0185   31
 Side 2 forced transition at x/c =  1.0000   63

  11   rms: 0.1638E+01   max: 0.4128E+01   C at   63  2   RLX: 0.234
       a = 20.750      CL =  1.9894
      Cm = -0.2259     CD =  0.04616   =>   CDf =  0.00832    CDp =  0.03784

 MRCHDU: Convergence failed at  34  side 1    Res =  0.2039E+03
 MRCHDU: Convergence failed at  35  side 1    Res =  0.1232E+03
 MRCHDU: Convergence failed at  36  side 1    Res =  0.1508E+03
 MRCHDU: Convergence failed at  37  side 1    Res =  0.1886E+03
 MRCHDU: Convergence failed at  38  side 1    Res =  0.2351E+03
 MRCHDU: Convergence failed at  39  side 1    Res =  0.3035E+03
 MRCHDU: Convergence failed at  40  side 1    Res =  0.2205E+03
 MRCHDU: Convergence failed at  41  side 1    Res =  0.2984E+03
 MRCHDU: Convergence failed at  42  side 1    Res =  0.1048E+03
 MRCHDU: Convergence failed at  43  side 1    Res =  0.1851E+03
 MRCHDU: Convergence failed at  44  side 1    Res =  0.1212E+03
 MRCHDU: Convergence failed at  45  side 1    Res =  0.2211E+03
 MRCHDU: Convergence failed at  46  side 1    Res =  0.8592E+03
 MRCHDU: Convergence failed at  47  side 1    Res =  0.1715E+04
 MRCHDU: Convergence failed at  48  side 1    Res =  0.5709E+03
 MRCHDU: Convergence failed at  49  side 1    Res =  0.4662E+03
 MRCHDU: Convergence failed at  50  side 1    Res =  0.1109E+03
 MRCHDU: Convergence failed at  51  side 1    Res =  0.1049E+03
 MRCHDU: Convergence failed at  52  side 1    Res =  0.9046E+02
 MRCHDU: Convergence failed at  53  side 1    Res =  0.1254E+03
 MRCHDU: Convergence failed at  54  side 1    Res =  0.7953E+02
 MRCHDU: Convergence failed at  55  side 1    Res =  0.7919E+02
 MRCHDU: Convergence failed at  56  side 1    Res =  0.7874E+02
 MRCHDU: Convergence failed at  57  side 1    Res =  0.7813E+02
 MRCHDU: Convergence failed at  58  side 1    Res =  0.7777E+02
 MRCHDU: Convergence failed at  59  side 1    Res =  0.1057E+03
 MRCHDU: Convergence failed at  60  side 1    Res =  0.1055E+03
 MRCHDU: Convergence failed at  61  side 1    Res =  0.1022E+03
 MRCHDU: Convergence failed at  62  side 1    Res =  0.6768E+02
 MRCHDU: Convergence failed at  63  side 1    Res =  0.6958E+02
 MRCHDU: Convergence failed at  64  side 1    Res =  0.7072E+02
 MRCHDU: Convergence failed at  65  side 1    Res =  0.7113E+02
 MRCHDU: Convergence failed at  66  side 1    Res =  0.1554E+03
 MRCHDU: Convergence failed at  67  side 1    Res =  0.1541E+03
 MRCHDU: Convergence failed at  68  side 1    Res =  0.1506E+03
 MRCHDU: Convergence failed at  69  side 1    Res =  0.1456E+03
 MRCHDU: Convergence failed at  70  side 1    Res =  0.1408E+03
 MRCHDU: Convergence failed at  71  side 1    Res =  0.1367E+03
 MRCHDU: Convergence failed at  72  side 1    Res =  0.1332E+03
 MRCHDU: Convergence failed at  73  side 1    Res =  0.1303E+03
 MRCHDU: Convergence failed at  74  side 1    Res =  0.1278E+03
 MRCHDU: Convergence failed at  75  side 1    Res =  0.1254E+03
 MRCHDU: Convergence failed at  76  side 1    Res =  0.1228E+03
 MRCHDU: Convergence failed at  77  side 1    Res =  0.1199E+03
 MRCHDU: Convergence failed at  78  side 1    Res =  0.9440E+02
 MRCHDU: Convergence failed at  79  side 1    Res =  0.9690E+02
 MRCHDU: Convergence failed at  80  side 1    Res =  0.9909E+02
 MRCHDU: Convergence failed at  81  side 1    Res =  0.8612E+02
 MRCHDU: Convergence failed at  82  side 1    Res =  0.9530E+05
 MRCHDU: Convergence failed at  83  side 1    Res =  0.6345E+04
 MRCHDU: Convergence failed at  84  side 1    Res =  0.3320E+04
 MRCHDU: Convergence failed at  85  side 1    Res =  0.2282E+04
 MRCHDU: Convergence failed at  86  side 1    Res =  0.1782E+04
 MRCHDU: Convergence failed at  87  side 1    Res =  0.1457E+04
 MRCHDU: Convergence failed at  88  side 1    Res =  0.1224E+04
 MRCHDU: Convergence failed at  89  side 1    Res =  0.1048E+04
 MRCHDU: Convergence failed at  90  side 1    Res =  0.9181E+03
 MRCHDU: Convergence failed at  91  side 1    Res =  0.8205E+03
 MRCHDU: Convergence failed at  92  side 1    Res =  0.7476E+03
 MRCHDU: Convergence failed at  93  side 1    Res =  0.6926E+03
 MRCHDU: Convergence failed at  94  side 1    Res =  0.6484E+03
 MRCHDU: Convergence failed at  95  side 1    Res =  0.6079E+03
 MRCHDU: Convergence failed at  96  side 1    Res =  0.5642E+03
 MRCHDU: Convergence failed at  97  side 1    Res =  0.5229E+03
 MRCHDU: Convergence failed at  98  side 1    Res =  0.4896E+03
 MRCHDU: Convergence failed at  99  side 1    Res =  0.4637E+03
 MRCHDU: Convergence failed at 100  side 1    Res =  0.4414E+03
 MRCHDU: Convergence failed at 101  side 1    Res =  0.3091E+03
 MRCHDU: Convergence failed at  70  side 2    Res =  0.4960E+01
 MRCHDU: Convergence failed at  71  side 2    Res =  0.9195E+01
 MRCHDU: Convergence failed at  72  side 2    Res =  0.1514E+02
 Side 1  free  transition at x/c =  0.0224   33
 Side 2 forced transition at x/c =  1.0000   61

  12   rms: 0.5248E+01   max: 0.3134E+02   D at   66  2   RLX: 0.048
       a = 20.750      CL =  6.2512
      Cm = -1.5860     CD =  0.00711   =>   CDf =  0.00066    CDp =  0.00645

 MRCHDU: Convergence failed at  66  side 2    Res =  0.2209E+02
 MRCHDU: Convergence failed at  67  side 2    Res =  0.6138E+01
 MRCHDU: Convergence failed at  68  side 2    Res =  0.8871E+01
 MRCHDU: Convergence failed at  69  side 2    Res =  0.4535E+01
 MRCHDU: Convergence failed at  70  side 2    Res =  0.1168E+02
 Side 1  free  transition at x/c =  0.0252   34
 Side 2 forced transition at x/c =  1.0000   61
 idif Ue xi dudx           1  0.11193247      1.26119852E-02   8.8750877    
 Uenew xinew           2  2.26537436E-02  2.55250931E-03

  13   rms: 0.2262E+01   max: 0.1468E+02   C at   61  2   RLX: 0.085
       a = 20.750      CL =  4.8821
      Cm = -1.1594     CD =  0.17315   =>   CDf =  0.00228    CDp =  0.17087

 MRCHDU: Convergence failed at  81  side 2    Res =  0.3447E+01
 Side 1  free  transition at x/c =  0.0254   33
 Side 2 forced transition at x/c =  1.0000   62

  14   rms: 0.2006E+01   max: 0.1665E+02   C at   62  2   RLX: 0.063
       a = 20.750      CL =  4.6454
      Cm = -1.0848     CD =  0.21414   =>   CDf =  0.00228    CDp =  0.21185

 Side 1  free  transition at x/c =  0.0255   33
 Side 2 forced transition at x/c =  1.0000   62

  15   rms: 0.2112E+01   max: 0.3143E+02   C at   62  2   RLX: 0.045
       a = 20.750      CL =  4.5372
      Cm = -1.0441     CD =  0.28348   =>   CDf =  0.00256    CDp =  0.28092

 Side 1  free  transition at x/c =  0.0255   33
 Side 2 forced transition at x/c =  1.0000   62

  16   rms: 0.2113E+01   max: 0.3030E+02   C at   62  2   RLX: 0.036
       a = 20.750      CL =  4.4641
      Cm = -1.0146     CD =  0.31122   =>   CDf =  0.00279    CDp =  0.30843

 Side 1  free  transition at x/c =  0.0256   33
 Side 2 forced transition at x/c =  1.0000   62
 idif Ue xi dudx           1  0.10501896      9.63354111E-03   10.901387    
 Uenew xinew           2  1.12358797E-02  1.03068352E-03

  17   rms: 0.1997E+01   max: 0.2684E+02   C at   62  2   RLX: 0.034
       a = 20.750      CL =  4.3883
      Cm = -0.9859     CD =  0.31871   =>   CDf =  0.00328    CDp =  0.31543

 MRCHDU: Convergence failed at  85  side 2    Res =  0.1366E+00
 Side 1  free  transition at x/c =  0.0257   32
 Side 2 forced transition at x/c =  1.0000   63

  18   rms: 0.2569E+01   max: -.5724E+01   T at   84  2   RLX: 0.087
       a = 20.750      CL =  3.7949
      Cm = -0.8380     CD =  0.63362   =>   CDf =  0.00315    CDp =  0.63047

 Side 1  free  transition at x/c =  0.0254   32
 Side 2 forced transition at x/c =  1.0000   63
 idif Ue xi dudx           1  0.10082605      9.28819180E-03   10.855293    
 Uenew xinew           2  2.16650143E-02  1.99580193E-03

  19   rms: 0.2007E+01   max: 0.1153E+02   C at   63  2   RLX: 0.096
       a = 20.750      CL =  3.3288
      Cm = -0.7183     CD =  1.51075   =>   CDf =  0.00352    CDp =  1.50723

 Side 1  free  transition at x/c =  0.0254   31
 Side 2 forced transition at x/c =  1.0000   64

  20   rms: 0.1735E+01   max: 0.1516E+02   C at   64  2   RLX: 0.068
       a = 20.750      CL =  3.0513
      Cm = -0.6459     CD =  2.88338   =>   CDf =  0.00329    CDp =  2.88010

 Side 1  free  transition at x/c =  0.0256   31
 Side 2 forced transition at x/c =  1.0000   64

  21   rms: 0.1706E+01   max: 0.2151E+02   C at   64  2   RLX: 0.070
       a = 20.750      CL =  2.8200
      Cm = -0.5856     CD =  2.43593   =>   CDf =  0.00332    CDp =  2.43261

 Side 1  free  transition at x/c =  0.0258   31
 Side 2 forced transition at x/c =  1.0000   64

  22   rms: 0.7478E+01   max: 0.4575E+02   C at   98  1   RLX: 0.033
       a = 20.750      CL =  2.7534
      Cm = -0.5648     CD =  1.15711   =>   CDf =  0.00335    CDp =  1.15376

 Side 1  free  transition at x/c =  0.0259   31
 Side 2 forced transition at x/c =  1.0000   64
 idif Ue xi dudx           1  7.45101124E-02  6.39045238E-03   11.659599    
 Uenew xinew           2  2.59222416E-03  2.22325325E-04

  23   rms: 0.1313E+02   max: -.7296E+02   T at   86  2   RLX: 0.007
       a = 20.750      CL =  2.7051
      Cm = -0.5524     CD =  1.12954   =>   CDf =  0.00367    CDp =  1.12587

 MRCHDU: Convergence failed at  96  side 1    Res =  0.3261E+00
 Side 1  free  transition at x/c =  0.0258   30
 Side 2 forced transition at x/c =  1.0000   65

  24   rms: 0.4711E+01   max: -.3444E+02   D at    2  2   RLX: 0.015
       a = 20.750      CL =  2.6422
      Cm = -0.5374     CD =  3.09389   =>   CDf =  0.00340    CDp =  3.09049

 Side 1  free  transition at x/c =  0.0258   30
 Side 2 forced transition at x/c =  1.0000   65

  25   rms: 0.1785E+01   max: 0.1814E+02   C at   65  2   RLX: 0.075
       a = 20.750      CL =  2.4084
      Cm = -0.4803     CD = 15.66467   =>   CDf =  0.00339    CDp = 15.66127

 Side 1  free  transition at x/c =  0.0260   30
 Side 2 forced transition at x/c =  1.0000   65

  26   rms: 0.1568E+01   max: 0.1978E+02   C at   65  2   RLX: 0.076
       a = 20.750      CL =  2.2007
      Cm = -0.4279     CD =109.83177   =>   CDf =  0.00338    CDp =109.82838

 Side 1  free  transition at x/c =  0.0261   30
 Side 2 forced transition at x/c =  1.0000   65

  27   rms: 0.1543E+01   max: 0.2036E+02   C at   65  2   RLX: 0.074
       a = 20.750      CL =  2.0190
      Cm = -0.3824     CD =*********   =>   CDf =  0.00338    CDp =*********

 Side 1  free  transition at x/c =  0.0263   30
 Side 2 forced transition at x/c =  1.0000   65
 idif Ue xi dudx           1  9.20168534E-02  5.97965717E-03   15.388316    
 Uenew xinew           2  1.10542765E-02  7.18355179E-04

  28   rms: 0.1436E+01   max: 0.2220E+02   C at   65  2   RLX: 0.068
       a = 20.750      CL =  1.8738
      Cm = -0.3460     CD =*********   =>   CDf =  0.00360    CDp =*********

 Side 1  free  transition at x/c =  0.0263   29
 Side 2 forced transition at x/c =  1.0000   66

  29   rms: 0.1168E+01   max: 0.1097E+02   C at   66  2   RLX: 0.099
       a = 20.750      CL =  1.6865
      Cm = -0.3002     CD =*********   =>   CDf =  0.00335    CDp =*********

 MRCHDU: Convergence failed at  85  side 2    Res =  0.9760E-02
 Side 1  free  transition at x/c =  0.0265   29
 Side 2 forced transition at x/c =  1.0000   66

  30   rms: 0.1196E+01   max: 0.1024E+02   C at   66  2   RLX: 0.089
       a = 20.750      CL =  1.5377
      Cm = -0.2635     CD =*********   =>   CDf =  0.00331    CDp =*********

 MRCHDU: Convergence failed at  84  side 2    Res =  0.1353E-01
 MRCHDU: Convergence failed at  85  side 2    Res =  0.2707E-01
 Side 1  free  transition at x/c =  0.0265   29
 Side 2 forced transition at x/c =  1.0000   66

  31   rms: 0.6224E+01   max: 0.8029E+02   T at   88  2   RLX: 0.019
       a = 20.750      CL =  1.4985
      Cm = -0.2536     CD = 17.45337   =>   CDf =  0.00327    CDp = 17.45010

 MRCHDU: Convergence failed at  84  side 2    Res =  0.7426E-01
 Side 1  free  transition at x/c =  0.0266   29
 Side 2 forced transition at x/c =  1.0000   66

  32   rms: 0.3978E+01   max: 0.4906E+02   C at   85  2   RLX: 0.031
       a = 20.750      CL =  1.4458
      Cm = -0.2425     CD =  3.53640   =>   CDf =  0.00324    CDp =  3.53316

 Side 1  free  transition at x/c =  0.0266   29
 Side 2 forced transition at x/c =  1.0000   66

  33   rms: 0.2410E+01   max: -.3073E+02   T at   84  2   RLX: 0.016
       a = 20.750      CL =  1.4253
      Cm = -0.2373     CD =  2.40352   =>   CDf =  0.00320    CDp =  2.40032

 Side 1  free  transition at x/c =  0.0266   29
 Side 2 forced transition at x/c =  1.0000   66

  34   rms: 0.1013E+01   max: 0.1773E+02   C at   66  2   RLX: 0.085
       a = 20.750      CL =  1.3302
      Cm = -0.2155     CD =  2.35435   =>   CDf =  0.00319    CDp =  2.35116

 Side 1  free  transition at x/c =  0.0267   29
 Side 2 forced transition at x/c =  1.0000   66
 idif Ue xi dudx           1  7.41766319E-02  4.67407703E-03   15.869792    
 Uenew xinew           2  2.03182176E-03  1.28030777E-04

  35   rms: 0.3680E+01   max: 0.2562E+02   C at   85  2   RLX: 0.022
       a = 20.750      CL =  1.2931
      Cm = -0.2070     CD =  2.00914   =>   CDf =  0.00333    CDp =  2.00581

 MRCHDU: Convergence failed at  86  side 2    Res =  0.7750E-02
 Side 1  free  transition at x/c =  0.0267   28
 Side 2 forced transition at x/c =  1.0000   67

  36   rms: 0.1365E+01   max: 0.1022E+02   C at   86  2   RLX: 0.069
       a = 20.750      CL =  1.2146
      Cm = -0.1921     CD =  1.68626   =>   CDf =  0.00310    CDp =  1.68316

 Side 1  free  transition at x/c =  0.0268   28
 Side 2 forced transition at x/c =  1.0000   67

  37   rms: 0.1506E+01   max: 0.1963E+02   C at   67  2   RLX: 0.035
       a = 20.750      CL =  1.1864
      Cm = -0.1842     CD =  0.81625   =>   CDf =  0.00300    CDp =  0.81325

 Side 1  free  transition at x/c =  0.0268   28
 Side 2 forced transition at x/c =  1.0000   67

  38   rms: 0.8059E+01   max: 0.1060E+03   C at   86  2   RLX: 0.014
       a = 20.750      CL =  1.1556
      Cm = -0.1801     CD =  1.32596   =>   CDf =  0.00299    CDp =  1.32297

 MRCHDU: Convergence failed at  85  side 2    Res =  0.3609E-02
 Side 1  free  transition at x/c =  0.0268   28
 Side 2 forced transition at x/c =  1.0000   67

  39   rms: 0.9091E+00   max: 0.1690E+02   C at   67  2   RLX: 0.089
       a = 20.750      CL =  1.0938
      Cm = -0.1672     CD =  1.03747   =>   CDf =  0.00291    CDp =  1.03456

 Side 1  free  transition at x/c =  0.0269   28
 Side 2 forced transition at x/c =  1.0000   67

  40   rms: 0.1917E+01   max: 0.1889E+02   T at   85  2   RLX: 0.079
       a = 20.750      CL =  1.0129
      Cm = -0.1539     CD =  1.24884   =>   CDf =  0.00285    CDp =  1.24599

 MRCHDU: Convergence failed at  83  side 2    Res =  0.5222E-01
 MRCHDU: Convergence failed at  84  side 2    Res =  0.1433E+00
 Side 1  free  transition at x/c =  0.0269   28
 Side 2 forced transition at x/c =  1.0000   67

  41   rms: 0.3258E+01   max: 0.4050E+02   C at   67  2   RLX: 0.019
       a = 20.750      CL =  1.0158
      Cm = -0.1502     CD =  0.51974   =>   CDf =  0.00267    CDp =  0.51707

 MRCHDU: Convergence failed at  83  side 2    Res =  0.5393E-01
 MRCHDU: Convergence failed at  84  side 2    Res =  0.1531E-01
 MRCHDU: Convergence failed at  85  side 2    Res =  0.1464E-01
 Side 1  free  transition at x/c =  0.0269   28
 Side 2 forced transition at x/c =  1.0000   67

  42   rms: 0.5787E+01   max: 0.5086E+02   T at   85  2   RLX: 0.029
       a = 20.750      CL =  0.9610
      Cm = -0.1457     CD =  1.51393   =>   CDf =  0.00273    CDp =  1.51120

 MRCHDU: Convergence failed at  89  side 2    Res =  0.2323E+01
 Side 1  free  transition at x/c =  0.0269   28
 Side 2 forced transition at x/c =  1.0000   67

  43   rms: 0.3357E+01   max: -.3615E+02   C at   85  2   RLX: 0.014
       a = 20.750      CL =  0.9543
      Cm = -0.1434     CD =  0.32846   =>   CDf =  0.00254    CDp =  0.32591

 Side 1  free  transition at x/c =  0.0269   28
 Side 2 forced transition at x/c =  1.0000   67

  44   rms: 0.5578E+02   max: -.6245E+03   C at   85  2   RLX: 0.001
       a = 20.750      CL =  0.9534
      Cm = -0.1429     CD =  0.32671   =>   CDf =  0.00255    CDp =  0.32416

 Side 1  free  transition at x/c =  0.0269   28
 Side 2 forced transition at x/c =  1.0000   67

  45   rms: 0.1500E+03   max: -.1672E+04   C at   85  2   RLX: 0.000
       a = 20.750      CL =  0.9533
      Cm = -0.1429     CD =  0.32782   =>   CDf =  0.00255    CDp =  0.32527

 Side 1  free  transition at x/c =  0.0269   28
 Side 2 forced transition at x/c =  1.0000   67

  46   rms: 0.3768E+03   max: -.4191E+04   C at   85  2   RLX: 0.000
       a = 20.750      CL =  0.9532
      Cm = -0.1428     CD =  0.32841   =>   CDf =  0.00255    CDp =  0.32586

 Side 1  free  transition at x/c =  0.0269   28
 Side 2 forced transition at x/c =  1.0000   67

  47   rms: 0.9078E+02   max: -.1008E+04   C at   85  2   RLX: 0.000
       a = 20.750      CL =  0.9530
      Cm = -0.1428     CD =  0.32868   =>   CDf =  0.00255    CDp =  0.32614

 Side 1  free  transition at x/c =  0.0269   28
 Side 2 forced transition at x/c =  1.0000   67

  48   rms: 0.2462E+03   max: -.2732E+04   C at   85  2   RLX: 0.000
       a = 20.750      CL =  0.9528
      Cm = -0.1427     CD =  0.32917   =>   CDf =  0.00255    CDp =  0.32662

 Side 1  free  transition at x/c =  0.0269   28
 Side 2 forced transition at x/c =  1.0000   67

  49   rms: 0.1667E+03   max: -.1848E+04   C at   85  2   RLX: 0.000
       a = 20.750      CL =  0.9527
      Cm = -0.1427     CD =  0.32940   =>   CDf =  0.00255    CDp =  0.32685

 Side 1  free  transition at x/c =  0.0269   28
 Side 2 forced transition at x/c =  1.0000   67

  50   rms: 0.2038E+02   max: 0.2259E+03   C at   86  2   RLX: 0.007
       a = 20.750      CL =  0.9495
      Cm = -0.1420     CD =  0.32763   =>   CDf =  0.00255    CDp =  0.32508

 Side 1  free  transition at x/c =  0.0269   28
 Side 2 forced transition at x/c =  1.0000   67

  51   rms: 0.1826E+03   max: -.2026E+04   C at   85  2   RLX: 0.000
       a = 20.750      CL =  0.9491
      Cm = -0.1418     CD =  0.33132   =>   CDf =  0.00254    CDp =  0.32878

 Side 1  free  transition at x/c =  0.0269   28
 Side 2 forced transition at x/c =  1.0000   67

  52   rms: 0.3967E+02   max: -.4397E+03   C at   85  2   RLX: 0.001
       a = 20.750      CL =  0.9485
      Cm = -0.1416     CD =  0.33141   =>   CDf =  0.00254    CDp =  0.32887

 Side 1  free  transition at x/c =  0.0269   28
 Side 2 forced transition at x/c =  1.0000   67

  53   rms: 0.7787E+02   max: 0.8635E+03   C at   86  2   RLX: 0.002
       a = 20.750      CL =  0.9476
      Cm = -0.1414     CD =  0.33112   =>   CDf =  0.00254    CDp =  0.32858

 Side 1  free  transition at x/c =  0.0269   28
 Side 2 forced transition at x/c =  1.0000   67

  54   rms: 0.1175E+03   max: -.1304E+04   C at   85  2   RLX: 0.000
       a = 20.750      CL =  0.9474
      Cm = -0.1413     CD =  0.33225   =>   CDf =  0.00254    CDp =  0.32970

 Side 1  free  transition at x/c =  0.0269   28
 Side 2 forced transition at x/c =  1.0000   67

  55   rms: 0.2133E+03   max: -.2366E+04   C at   85  2   RLX: 0.000
       a = 20.750      CL =  0.9472
      Cm = -0.1413     CD =  0.33261   =>   CDf =  0.00254    CDp =  0.33007

 Side 1  free  transition at x/c =  0.0269   28
 Side 2 forced transition at x/c =  1.0000   67

  56   rms: 0.9867E+02   max: 0.1094E+04   C at   85  2   RLX: 0.001
       a = 20.750      CL =  0.9466
      Cm = -0.1412     CD =  0.33189   =>   CDf =  0.00254    CDp =  0.32935

 Side 1  free  transition at x/c =  0.0269   28
 Side 2 forced transition at x/c =  1.0000   67

  57   rms: 0.7745E+02   max: 0.8601E+03   C at   85  2   RLX: 0.002
       a = 20.750      CL =  0.9457
      Cm = -0.1409     CD =  0.33143   =>   CDf =  0.00254    CDp =  0.32889

 Side 1  free  transition at x/c =  0.0269   28
 Side 2 forced transition at x/c =  1.0000   67

  58   rms: 0.1496E+02   max: 0.1667E+03   C at   85  2   RLX: 0.009
       a = 20.750      CL =  0.9412
      Cm = -0.1400     CD =  0.32934   =>   CDf =  0.00254    CDp =  0.32680

 Side 1  free  transition at x/c =  0.0270   28
 Side 2 forced transition at x/c =  1.0000   67

  59   rms: 0.2579E+02   max: -.2899E+03   C at   85  2   RLX: 0.002
       a = 20.750      CL =  0.9405
      Cm = -0.1395     CD =  0.33423   =>   CDf =  0.00254    CDp =  0.33169

 Side 1  free  transition at x/c =  0.0270   28
 Side 2 forced transition at x/c =  1.0000   67

  60   rms: 0.6250E+02   max: -.6986E+03   C at   85  2   RLX: 0.001
       a = 20.750      CL =  0.9403
      Cm = -0.1394     CD =  0.33602   =>   CDf =  0.00254    CDp =  0.33348

 Side 1  free  transition at x/c =  0.0270   28
 Side 2 forced transition at x/c =  1.0000   67

  61   rms: 0.1274E+03   max: -.1419E+04   C at   85  2   RLX: 0.000
       a = 20.750      CL =  0.9401
      Cm = -0.1394     CD =  0.33689   =>   CDf =  0.00254    CDp =  0.33435

 Side 1  free  transition at x/c =  0.0270   28
 Side 2 forced transition at x/c =  1.0000   67

  62   rms: 0.1397E+02   max: -.1548E+03   C at   85  2   RLX: 0.003
       a = 20.750      CL =  0.9386
      Cm = -0.1390     CD =  0.33669   =>   CDf =  0.00254    CDp =  0.33414

 Side 1  free  transition at x/c =  0.0270   28
 Side 2 forced transition at x/c =  1.0000   67

  63   rms: 0.8067E+02   max: -.8954E+03   C at   85  2   RLX: 0.001
       a = 20.750      CL =  0.9382
      Cm = -0.1389     CD =  0.33838   =>   CDf =  0.00254    CDp =  0.33584

 Side 1  free  transition at x/c =  0.0270   28
 Side 2 forced transition at x/c =  1.0000   67

  64   rms: 0.2245E+03   max: -.2490E+04   C at   85  2   RLX: 0.000
       a = 20.750      CL =  0.9381
      Cm = -0.1388     CD =  0.33885   =>   CDf =  0.00254    CDp =  0.33631

 Side 1  free  transition at x/c =  0.0270   28
 Side 2 forced transition at x/c =  1.0000   67

  65   rms: 0.2127E+03   max: -.2358E+04   C at   85  2   RLX: 0.000
       a = 20.750      CL =  0.9379
      Cm = -0.1388     CD =  0.33907   =>   CDf =  0.00254    CDp =  0.33653

 Side 1  free  transition at x/c =  0.0270   28
 Side 2 forced transition at x/c =  1.0000   67

  66   rms: 0.7667E+02   max: -.8496E+03   C at   86  2   RLX: 0.001
       a = 20.750      CL =  0.9377
      Cm = -0.1387     CD =  0.33918   =>   CDf =  0.00254    CDp =  0.33664

 Side 1  free  transition at x/c =  0.0270   28
 Side 2 forced transition at x/c =  1.0000   67

  67   rms: 0.2165E+03   max: -.2400E+04   C at   86  2   RLX: 0.000
       a = 20.750      CL =  0.9375
      Cm = -0.1387     CD =  0.33954   =>   CDf =  0.00254    CDp =  0.33700

 Side 1  free  transition at x/c =  0.0270   28
 Side 2 forced transition at x/c =  1.0000   67

  68   rms: 0.2799E+03   max: -.3101E+04   C at   87  2   RLX: 0.000
       a = 20.750      CL =  0.9374
      Cm = -0.1387     CD =  0.33971   =>   CDf =  0.00254    CDp =  0.33717

 Side 1  free  transition at x/c =  0.0270   28
 Side 2 forced transition at x/c =  1.0000   67

  69   rms: 0.3520E+03   max: -.3901E+04   C at   88  2   RLX: 0.000
       a = 20.750      CL =  0.9374
      Cm = -0.1387     CD =  0.33985   =>   CDf =  0.00254    CDp =  0.33731

 Side 1  free  transition at x/c =  0.0270   28
 Side 2 forced transition at x/c =  1.0000   67

  70   rms: 0.2018E+03   max: -.2236E+04   C at   89  2   RLX: 0.000
       a = 20.750      CL =  0.9373
      Cm = -0.1386     CD =  0.33994   =>   CDf =  0.00254    CDp =  0.33740

 Side 1  free  transition at x/c =  0.0270   28
 Side 2 forced transition at x/c =  1.0000   67

  71   rms: 0.6358E+01   max: 0.6996E+02   C at   86  2   RLX: 0.021
       a = 20.750      CL =  0.9273
      Cm = -0.1364     CD =  0.33496   =>   CDf =  0.00254    CDp =  0.33242

 Side 1  free  transition at x/c =  0.0270   28
 Side 2 forced transition at x/c =  1.0000   67

  72   rms: 0.2184E+03   max: -.2420E+04   C at   88  2   RLX: 0.000
       a = 20.750      CL =  0.9262
      Cm = -0.1358     CD =  0.34334   =>   CDf =  0.00253    CDp =  0.34081

 Side 1  free  transition at x/c =  0.0270   28
 Side 2 forced transition at x/c =  1.0000   67

  73   rms: 0.3574E+03   max: -.3960E+04   C at   88  2   RLX: 0.000
       a = 20.750      CL =  0.9261
      Cm = -0.1358     CD =  0.34350   =>   CDf =  0.00253    CDp =  0.34097

 Side 1  free  transition at x/c =  0.0270   28
 Side 2 forced transition at x/c =  1.0000   67

  74   rms: 0.4765E+03   max: -.5281E+04   C at   89  2   RLX: 0.000
       a = 20.750      CL =  0.9260
      Cm = -0.1358     CD =  0.34362   =>   CDf =  0.00253    CDp =  0.34109

 Side 1  free  transition at x/c =  0.0270   28
 Side 2 forced transition at x/c =  1.0000   67

  75   rms: 0.4924E+03   max: -.5457E+04   C at   89  2   RLX: 0.000
       a = 20.750      CL =  0.9260
      Cm = -0.1358     CD =  0.34371   =>   CDf =  0.00253    CDp =  0.34118

 Side 1  free  transition at x/c =  0.0270   28
 Side 2 forced transition at x/c =  1.0000   67

  76   rms: 0.7651E+03   max: -.8477E+04   C at   89  2   RLX: 0.000
       a = 20.750      CL =  0.9260
      Cm = -0.1358     CD =  0.34380   =>   CDf =  0.00253    CDp =  0.34127

 Side 1  free  transition at x/c =  0.0270   28
 Side 2 forced transition at x/c =  1.0000   67

  77   rms: 0.5371E+03   max: -.5952E+04   C at   89  2   RLX: 0.000
       a = 20.750      CL =  0.9259
      Cm = -0.1357     CD =  0.34387   =>   CDf =  0.00253    CDp =  0.34133

 Side 1  free  transition at x/c =  0.0270   28
 Side 2 forced transition at x/c =  1.0000   67

  78   rms: 0.3863E+03   max: -.4280E+04   C at   89  2   RLX: 0.000
       a = 20.750      CL =  0.9259
      Cm = -0.1357     CD =  0.34393   =>   CDf =  0.00253    CDp =  0.34140

 Side 1  free  transition at x/c =  0.0270   28
 Side 2 forced transition at x/c =  1.0000   67

  79   rms: 0.3487E+03   max: -.3863E+04   C at   89  2   RLX: 0.000
       a = 20.750      CL =  0.9258
      Cm = -0.1357     CD =  0.34400   =>   CDf =  0.00253    CDp =  0.34147

 Side 1  free  transition at x/c =  0.0270   28
 Side 2 forced transition at x/c =  1.0000   67

  80   rms: 0.3262E+03   max: -.3614E+04   C at   89  2   RLX: 0.000
       a = 20.750      CL =  0.9257
      Cm = -0.1357     CD =  0.34407   =>   CDf =  0.00253    CDp =  0.34154

 Side 1  free  transition at x/c =  0.0270   28
 Side 2 forced transition at x/c =  1.0000   67

  81   rms: 0.1862E+03   max: -.2063E+04   C at   89  2   RLX: 0.000
       a = 20.750      CL =  0.9256
      Cm = -0.1357     CD =  0.34412   =>   CDf =  0.00253    CDp =  0.34159

 Side 1  free  transition at x/c =  0.0270   28
 Side 2 forced transition at x/c =  1.0000   67

  82   rms: 0.1027E+04   max: -.1138E+05   C at   89  2   RLX: 0.000
       a = 20.750      CL =  0.9256
      Cm = -0.1357     CD =  0.34426   =>   CDf =  0.00253    CDp =  0.34173

 Side 1  free  transition at x/c =  0.0270   28
 Side 2 forced transition at x/c =  1.0000   67

  83   rms: 0.8078E+03   max: -.8949E+04   C at   89  2   RLX: 0.000
       a = 20.750      CL =  0.9255
      Cm = -0.1357     CD =  0.34430   =>   CDf =  0.00253    CDp =  0.34177

 Side 1  free  transition at x/c =  0.0270   28
 Side 2 forced transition at x/c =  1.0000   67

  84   rms: 0.1066E+04   max: -.1181E+05   C at   89  2   RLX: 0.000
       a = 20.750      CL =  0.9255
      Cm = -0.1356     CD =  0.34435   =>   CDf =  0.00253    CDp =  0.34181

 MRCHDU: Convergence failed at  84  side 2    Res =  0.1299E-01
 Side 1  free  transition at x/c =  0.0270   28
 Side 2 forced transition at x/c =  1.0000   67

  85   rms: 0.1242E+04   max: -.1376E+05   C at   89  2   RLX: 0.000
       a = 20.750      CL =  0.9255
      Cm = -0.1356     CD =  0.34439   =>   CDf =  0.00253    CDp =  0.34185

 MRCHDU: Convergence failed at  84  side 2    Res =  0.6462E-01
 Side 1  free  transition at x/c =  0.0270   28
 Side 2 forced transition at x/c =  1.0000   67

  86   rms: 0.9608E+03   max: -.1064E+05   C at   89  2   RLX: 0.000
       a = 20.750      CL =  0.9255
      Cm = -0.1356     CD =  0.34442   =>   CDf =  0.00253    CDp =  0.34189

 MRCHDU: Convergence failed at  84  side 2    Res =  0.1162E+00
 Side 1  free  transition at x/c =  0.0270   28
 Side 2 forced transition at x/c =  1.0000   67

  87   rms: 0.2690E+01   max: -.3299E+02   C at   84  2   RLX: 0.015
       a = 20.750      CL =  0.9271
      Cm = -0.1344     CD =  0.40994   =>   CDf =  0.00253    CDp =  0.40741

 MRCHDU: Convergence failed at  83  side 2    Res =  0.1522E+01
 MRCHDU: Convergence failed at  84  side 2    Res =  0.5018E-01
 Side 1  free  transition at x/c =  0.0270   28
 Side 2 forced transition at x/c =  1.0000   67

  88   rms: 0.1065E+02   max: 0.9971E+02   T at   85  2   RLX: 0.015
       a = 20.750      CL =  0.8846
      Cm = -0.1313     CD =  0.98936   =>   CDf =  0.00256    CDp =  0.98680

 MRCHDU: Convergence failed at  89  side 2    Res =  0.4686E+00
 Side 1  free  transition at x/c =  0.0270   28
 Side 2 forced transition at x/c =  1.0000   67

  89   rms: 0.1313E+01   max: 0.2019E+02   C at   67  2   RLX: 0.048
       a = 20.750      CL =  0.8653
      Cm = -0.1260     CD =  0.35462   =>   CDf =  0.00241    CDp =  0.35221

 MRCHDU: Convergence failed at  84  side 2    Res =  0.6373E-01
 Side 1  free  transition at x/c =  0.0270   28
 Side 2 forced transition at x/c =  1.0000   67

  90   rms: 0.1342E+01   max: 0.1394E+02   C at   67  2   RLX: 0.108
       a = 20.750      CL =  0.7856
      Cm = -0.1124     CD =  0.58143   =>   CDf =  0.00241    CDp =  0.57902

 MRCHDU: Convergence failed at  82  side 2    Res =  0.6783E-01
 MRCHDU: Convergence failed at  83  side 2    Res =  0.1412E+00
 Side 1  free  transition at x/c =  0.0270   28
 Side 2 forced transition at x/c =  1.0000   67

  91   rms: 0.8418E+01   max: 0.6730E+02   T at   89  2   RLX: 0.022
       a = 20.750      CL =  0.7177
      Cm = -0.1025     CD =  0.65505   =>   CDf =  0.00227    CDp =  0.65277

 MRCHDU: Convergence failed at  88  side 2    Res =  0.1820E+01
 MRCHDU: Convergence failed at  89  side 2    Res =  0.2073E+01
 Side 1  free  transition at x/c =  0.0271   28
 Side 2 forced transition at x/c =  1.0000   67

  92   rms: 0.9921E+00   max: 0.2032E+02   C at   67  2   RLX: 0.074
       a = 20.750      CL =  0.6818
[...]

 Side 1  free  transition at x/c =  0.0253   29
 Side 2 forced transition at x/c =  1.0000   66

  91   rms: 0.5881E-01   max: -.4422E+00   C at   66  2
       a = 21.750      CL =  0.6876
      Cm = -0.0673     CD =  0.24346   =>   CDf =  0.00204    CDp =  0.24142

 Side 1  free  transition at x/c =  0.0260   29
 Side 2 forced transition at x/c =  1.0000   66

  92   rms: 0.2709E-01   max: -.3347E+00   T at   29  1
       a = 21.750      CL =  0.6812
      Cm = -0.0654     CD =  0.23169   =>   CDf =  0.00204    CDp =  0.22965

 Side 1  free  transition at x/c =  0.0266   29
 Side 2 forced transition at x/c =  1.0000   66

  93   rms: 0.6349E-01   max: 0.3682E+00   T at   30  1
       a = 21.750      CL =  0.6867
      Cm = -0.0631     CD =  0.22417   =>   CDf =  0.00204    CDp =  0.22212

 Side 1  free  transition at x/c =  0.0266   29
 Side 2 forced transition at x/c =  1.0000   66

  94   rms: 0.1068E+00   max: 0.6640E+00   D at   30  1
       a = 21.750      CL =  0.6927
      Cm = -0.0669     CD =  0.24640   =>   CDf =  0.00203    CDp =  0.24437

 Side 1  free  transition at x/c =  0.0260   29
 Side 2 forced transition at x/c =  1.0000   66

  95   rms: 0.7547E-01   max: -.5023E+00   C at   66  2   RLX: 0.995
       a = 21.750      CL =  0.6883
      Cm = -0.0674     CD =  0.24720   =>   CDf =  0.00204    CDp =  0.24516

 Side 1  free  transition at x/c =  0.0260   29
 Side 2 forced transition at x/c =  1.0000   66

  96   rms: 0.2708E-01   max: -.2591E+00   T at   29  1
       a = 21.750      CL =  0.6835
      Cm = -0.0657     CD =  0.23458   =>   CDf =  0.00204    CDp =  0.23255

 Side 1  free  transition at x/c =  0.0267   29
 Side 2 forced transition at x/c =  1.0000   66

  97   rms: 0.3953E+01   max: 0.2615E+02   T at   30  1   RLX: 0.020
       a = 21.750      CL =  0.7029
      Cm = -0.0669     CD =  0.22496   =>   CDf =  0.00204    CDp =  0.22291

 Side 1  free  transition at x/c =  0.0258   29
 Side 2 forced transition at x/c =  1.0000   66

  98   rms: 0.2014E+00   max: 0.1095E+01   D at   30  1   RLX: 0.629
       a = 21.750      CL =  0.6750
      Cm = -0.0625     CD =  0.24555   =>   CDf =  0.00202    CDp =  0.24353

 Side 1  free  transition at x/c =  0.0254   29
 Side 2 forced transition at x/c =  1.0000   66

  99   rms: 0.8299E-01   max: -.5720E+00   C at   66  2   RLX: 0.874
       a = 21.750      CL =  0.6792
      Cm = -0.0650     CD =  0.24505   =>   CDf =  0.00204    CDp =  0.24301

 Side 1  free  transition at x/c =  0.0257   29
 Side 2 forced transition at x/c =  1.0000   66

 100   rms: 0.2753E-01   max: -.2032E+00   T at   29  1
       a = 21.750      CL =  0.6833
      Cm = -0.0662     CD =  0.23653   =>   CDf =  0.00204    CDp =  0.23449

 Side 1  free  transition at x/c =  0.0265   29
 Side 2 forced transition at x/c =  1.0000   66

 101   rms: 0.1077E+01   max: 0.8917E+01   T at   29  1   RLX: 0.062
       a = 21.750      CL =  0.6836
      Cm = -0.0702     CD =  0.23539   =>   CDf =  0.00204    CDp =  0.23335

 Side 1  free  transition at x/c =  0.0252   29
 Side 2 forced transition at x/c =  1.0000   66

 102   rms: 0.6755E-01   max: -.3858E+00   D at   30  1
       a = 21.750      CL =  0.6620
      Cm = -0.0656     CD =  0.22118   =>   CDf =  0.00205    CDp =  0.21913

 Side 1  free  transition at x/c =  0.0264   29
 Side 2 forced transition at x/c =  1.0000   66

 103   rms: 0.1137E+00   max: -.8543E+00   T at   29  1   RLX: 0.585
       a = 21.750      CL =  0.6666
      Cm = -0.0624     CD =  0.23128   =>   CDf =  0.00206    CDp =  0.22922

 Side 1  free  transition at x/c =  0.0259   29
 Side 2 forced transition at x/c =  1.0000   66

 104   rms: 0.6697E-01   max: 0.5069E+00   D at   30  1
       a = 21.750      CL =  0.6843
      Cm = -0.0666     CD =  0.24011   =>   CDf =  0.00204    CDp =  0.23806

 Side 1  free  transition at x/c =  0.0258   29
 Side 2 forced transition at x/c =  1.0000   66

 105   rms: 0.3604E-01   max: -.2708E+00   C at   66  2
       a = 21.750      CL =  0.6853
      Cm = -0.0665     CD =  0.23841   =>   CDf =  0.00204    CDp =  0.23637

 Side 1  free  transition at x/c =  0.0263   29
 Side 2 forced transition at x/c =  1.0000   66

 106   rms: 0.1117E+00   max: -.1066E+01   T at   29  1   RLX: 0.469
       a = 21.750      CL =  0.6872
      Cm = -0.0651     CD =  0.22619   =>   CDf =  0.00204    CDp =  0.22415

 Side 1  free  transition at x/c =  0.0259   29
 Side 2 forced transition at x/c =  1.0000   66

 107   rms: 0.8057E-01   max: 0.5193E+00   D at   30  1
       a = 21.750      CL =  0.6866
      Cm = -0.0671     CD =  0.24410   =>   CDf =  0.00203    CDp =  0.24207

 Side 1  free  transition at x/c =  0.0257   29
 Side 2 forced transition at x/c =  1.0000   66

 108   rms: 0.4037E-01   max: -.2945E+00   C at   66  2
       a = 21.750      CL =  0.6857
      Cm = -0.0666     CD =  0.23965   =>   CDf =  0.00204    CDp =  0.23761

 Side 1  free  transition at x/c =  0.0263   29
 Side 2 forced transition at x/c =  1.0000   66

 109   rms: 0.6300E-01   max: -.6504E+00   T at   29  1   RLX: 0.769
       a = 21.750      CL =  0.6851
      Cm = -0.0649     CD =  0.22793   =>   CDf =  0.00204    CDp =  0.22589

 Side 1  free  transition at x/c =  0.0260   29
 Side 2 forced transition at x/c =  1.0000   66

 110   rms: 0.6613E-01   max: 0.4421E+00   D at   30  1
       a = 21.750      CL =  0.6862
      Cm = -0.0667     CD =  0.24133   =>   CDf =  0.00204    CDp =  0.23930

 Side 1  free  transition at x/c =  0.0259   29
 Side 2 forced transition at x/c =  1.0000   66

 111   rms: 0.3411E-01   max: -.2474E+00   C at   66  2
       a = 21.750      CL =  0.6858
      Cm = -0.0664     CD =  0.23846   =>   CDf =  0.00204    CDp =  0.23641

 Side 1  free  transition at x/c =  0.0264   29
 Side 2 forced transition at x/c =  1.0000   66

 112   rms: 0.2093E+00   max: -.1891E+01   T at   29  1   RLX: 0.264
       a = 21.750      CL =  0.6892
      Cm = -0.0652     CD =  0.22517   =>   CDf =  0.00204    CDp =  0.22312

 Side 1  free  transition at x/c =  0.0259   29
 Side 2 forced transition at x/c =  1.0000   66

 113   rms: 0.9112E-01   max: 0.5749E+00   D at   30  1
       a = 21.750      CL =  0.6875
      Cm = -0.0673     CD =  0.24606   =>   CDf =  0.00203    CDp =  0.24403

 Side 1  free  transition at x/c =  0.0256   29
 Side 2 forced transition at x/c =  1.0000   66

 114   rms: 0.4568E-01   max: -.3340E+00   C at   66  2
       a = 21.750      CL =  0.6863
      Cm = -0.0668     CD =  0.24121   =>   CDf =  0.00204    CDp =  0.23917

 Side 1  free  transition at x/c =  0.0262   29
 Side 2 forced transition at x/c =  1.0000   66

 115   rms: 0.4249E-01   max: -.4733E+00   T at   29  1
       a = 21.750      CL =  0.6831
      Cm = -0.0648     CD =  0.22968   =>   CDf =  0.00204    CDp =  0.22764

 Side 1  free  transition at x/c =  0.0262   29
 Side 2 forced transition at x/c =  1.0000   66

 116   rms: 0.4349E-01   max: -.3294E+00   D at   29  1
       a = 21.750      CL =  0.6850
      Cm = -0.0661     CD =  0.23704   =>   CDf =  0.00204    CDp =  0.23500

 Side 1  free  transition at x/c =  0.0263   29
 Side 2 forced transition at x/c =  1.0000   66

 117   rms: 0.2576E-01   max: -.1675E+00   T at   29  1
       a = 21.750      CL =  0.6858
      Cm = -0.0655     CD =  0.23442   =>   CDf =  0.00204    CDp =  0.23238

 Side 1  free  transition at x/c =  0.0268   29
 Side 2 forced transition at x/c =  1.0000   66

 118   rms: 0.1660E+00   max: -.1010E+01   T at   30  1   RLX: 0.495
       a = 21.750      CL =  0.6782
      Cm = -0.0693     CD =  0.23559   =>   CDf =  0.00204    CDp =  0.23355

 Side 1  free  transition at x/c =  0.0255   29
 Side 2 forced transition at x/c =  1.0000   66

 119   rms: 0.6885E-01   max: 0.4220E+00   C at   66  2
       a = 21.750      CL =  0.6615
      Cm = -0.0651     CD =  0.21852   =>   CDf =  0.00205    CDp =  0.21646

 Side 1  free  transition at x/c =  0.0266   29
 Side 2 forced transition at x/c =  1.0000   66

 120   rms: 0.6902E+00   max: 0.5103E+01   T at   30  1   RLX: 0.109
       a = 21.750      CL =  0.6607
      Cm = -0.0608     CD =  0.24118   =>   CDf =  0.00206    CDp =  0.23912

 Side 1  free  transition at x/c =  0.0258   29
 Side 2 forced transition at x/c =  1.0000   66

 121   rms: 0.1108E+00   max: 0.7744E+00   D at   30  1
       a = 21.750      CL =  0.6863
      Cm = -0.0673     CD =  0.24644   =>   CDf =  0.00205    CDp =  0.24439

 Side 1  free  transition at x/c =  0.0253   29
 Side 2 forced transition at x/c =  1.0000   66

 122   rms: 0.5929E-01   max: -.4469E+00   C at   66  2
       a = 21.750      CL =  0.6876
      Cm = -0.0673     CD =  0.24360   =>   CDf =  0.00204    CDp =  0.24156

 Side 1  free  transition at x/c =  0.0260   29
 Side 2 forced transition at x/c =  1.0000   66

 123   rms: 0.2692E-01   max: -.3323E+00   T at   29  1
       a = 21.750      CL =  0.6813
      Cm = -0.0654     CD =  0.23175   =>   CDf =  0.00204    CDp =  0.22971

 Side 1  free  transition at x/c =  0.0266   29
 Side 2 forced transition at x/c =  1.0000   66

 124   rms: 0.6723E-01   max: 0.3927E+00   T at   30  1
       a = 21.750      CL =  0.6871
      Cm = -0.0630     CD =  0.22382   =>   CDf =  0.00204    CDp =  0.22177

 Side 1  free  transition at x/c =  0.0265   29
 Side 2 forced transition at x/c =  1.0000   66

 125   rms: 0.1297E+00   max: 0.7940E+00   D at   30  1   RLX: 0.906
       a = 21.750      CL =  0.6870
      Cm = -0.0658     CD =  0.24774   =>   CDf =  0.00203    CDp =  0.24570

 Side 1  free  transition at x/c =  0.0258   29
 Side 2 forced transition at x/c =  1.0000   66

 126   rms: 0.8180E-01   max: -.5505E+00   C at   66  2   RLX: 0.908
       a = 21.750      CL =  0.6824
      Cm = -0.0656     CD =  0.24555   =>   CDf =  0.00204    CDp =  0.24351

 Side 1  free  transition at x/c =  0.0259   29
 Side 2 forced transition at x/c =  1.0000   66

 127   rms: 0.2760E-01   max: -.2220E+00   T at   29  1
       a = 21.750      CL =  0.6838
      Cm = -0.0660     CD =  0.23631   =>   CDf =  0.00204    CDp =  0.23427

 Side 1  free  transition at x/c =  0.0266   29
 Side 2 forced transition at x/c =  1.0000   66

 128   rms: 0.2031E+00   max: -.1461E+01   T at   30  1   RLX: 0.342
       a = 21.750      CL =  0.6822
      Cm = -0.0699     CD =  0.23508   =>   CDf =  0.00204    CDp =  0.23303

 Side 1  free  transition at x/c =  0.0254   29
 Side 2 forced transition at x/c =  1.0000   66

 129   rms: 0.6721E-01   max: 0.3821E+00   C at   66  2
       a = 21.750      CL =  0.6623
      Cm = -0.0654     CD =  0.22039   =>   CDf =  0.00205    CDp =  0.21834

 Side 1  free  transition at x/c =  0.0265   29
 Side 2 forced transition at x/c =  1.0000   66

 130   rms: 0.2834E+00   max: -.2144E+01   T at   29  1   RLX: 0.233
       a = 21.750      CL =  0.6608
      Cm = -0.0613     CD =  0.23746   =>   CDf =  0.00206    CDp =  0.23540

 Side 1  free  transition at x/c =  0.0258   29
 Side 2 forced transition at x/c =  1.0000   66

 131   rms: 0.7956E-01   max: 0.5852E+00   D at   30  1
       a = 21.750      CL =  0.6851
      Cm = -0.0667     CD =  0.24173   =>   CDf =  0.00205    CDp =  0.23968

 Side 1  free  transition at x/c =  0.0256   29
 Side 2 forced transition at x/c =  1.0000   66

 132   rms: 0.4268E-01   max: -.3374E+00   C at   66  2
       a = 21.750      CL =  0.6857
      Cm = -0.0667     CD =  0.24031   =>   CDf =  0.00204    CDp =  0.23827

 Side 1  free  transition at x/c =  0.0262   29
 Side 2 forced transition at x/c =  1.0000   66

 133   rms: 0.4880E-01   max: -.5278E+00   T at   29  1   RLX: 0.947
       a = 21.750      CL =  0.6837
      Cm = -0.0647     CD =  0.22910   =>   CDf =  0.00204    CDp =  0.22706

 Side 1  free  transition at x/c =  0.0260   29
 Side 2 forced transition at x/c =  1.0000   66

 134   rms: 0.5829E-01   max: 0.3929E+00   D at   30  1
       a = 21.750      CL =  0.6849
      Cm = -0.0666     CD =  0.23984   =>   CDf =  0.00204    CDp =  0.23780

 Side 1  free  transition at x/c =  0.0260   29
 Side 2 forced transition at x/c =  1.0000   66

 135   rms: 0.2943E-01   max: -.2019E+00   C at   66  2
       a = 21.750      CL =  0.6848
      Cm = -0.0661     CD =  0.23692   =>   CDf =  0.00204    CDp =  0.23488

 Side 1  free  transition at x/c =  0.0265   29
 Side 2 forced transition at x/c =  1.0000   66

 136   rms: 0.2014E+00   max: 0.1552E+01   T at   29  1   RLX: 0.345
       a = 21.750      CL =  0.6789
      Cm = -0.0687     CD =  0.23472   =>   CDf =  0.00204    CDp =  0.23268

 Side 1  free  transition at x/c =  0.0253   29
 Side 2 forced transition at x/c =  1.0000   66

 137   rms: 0.6433E-01   max: -.3596E+00   D at   30  1
       a = 21.750      CL =  0.6631
      Cm = -0.0655     CD =  0.22153   =>   CDf =  0.00205    CDp =  0.21948

 Side 1  free  transition at x/c =  0.0264   29
 Side 2 forced transition at x/c =  1.0000   66

 138   rms: 0.1744E+00   max: -.1343E+01   T at   29  1   RLX: 0.372
       a = 21.750      CL =  0.6647
      Cm = -0.0621     CD =  0.23423   =>   CDf =  0.00206    CDp =  0.23217

 Side 1  free  transition at x/c =  0.0259   29
 Side 2 forced transition at x/c =  1.0000   66

 139   rms: 0.7331E-01   max: 0.5441E+00   D at   30  1
       a = 21.750      CL =  0.6844
      Cm = -0.0667     CD =  0.24103   =>   CDf =  0.00205    CDp =  0.23898

 Side 1  free  transition at x/c =  0.0257   29
 Side 2 forced transition at x/c =  1.0000   66

 140   rms: 0.3917E-01   max: -.3008E+00   C at   66  2
       a = 21.750      CL =  0.6856
      Cm = -0.0666     CD =  0.23932   =>   CDf =  0.00204    CDp =  0.23727

 Side 1  free  transition at x/c =  0.0263   29
 Side 2 forced transition at x/c =  1.0000   66

 141   rms: 0.6139E-01   max: -.6355E+00   T at   29  1   RLX: 0.787
       a = 21.750      CL =  0.6850
      Cm = -0.0648     CD =  0.22812   =>   CDf =  0.00204    CDp =  0.22607

 Side 1  free  transition at x/c =  0.0260   29
 Side 2 forced transition at x/c =  1.0000   66

 142   rms: 0.6601E-01   max: 0.4390E+00   D at   30  1
       a = 21.750      CL =  0.6857
      Cm = -0.0668     CD =  0.24136   =>   CDf =  0.00204    CDp =  0.23933

 Side 1  free  transition at x/c =  0.0259   29
 Side 2 forced transition at x/c =  1.0000   66

 143   rms: 0.3338E-01   max: -.2396E+00   C at   66  2
       a = 21.750      CL =  0.6854
      Cm = -0.0664     CD =  0.23797   =>   CDf =  0.00204    CDp =  0.23593

 Side 1  free  transition at x/c =  0.0264   29
 Side 2 forced transition at x/c =  1.0000   66

 144   rms: 0.3575E+00   max: -.3151E+01   T at   29  1   RLX: 0.159
       a = 21.750      CL =  0.6898
      Cm = -0.0654     CD =  0.22490   =>   CDf =  0.00204    CDp =  0.22286

 Side 1  free  transition at x/c =  0.0259   29
 Side 2 forced transition at x/c =  1.0000   66

 145   rms: 0.9446E-01   max: 0.5904E+00   D at   30  1
       a = 21.750      CL =  0.6875
      Cm = -0.0674     CD =  0.24673   =>   CDf =  0.00203    CDp =  0.24470

 Side 1  free  transition at x/c =  0.0255   29
 Side 2 forced transition at x/c =  1.0000   66

 146   rms: 0.4708E-01   max: -.3429E+00   C at   66  2
       a = 21.750      CL =  0.6863
      Cm = -0.0669     CD =  0.24135   =>   CDf =  0.00204    CDp =  0.23931

 Side 1  free  transition at x/c =  0.0262   29
 Side 2 forced transition at x/c =  1.0000   66

 147   rms: 0.3950E-01   max: -.4471E+00   T at   29  1
       a = 21.750      CL =  0.6828
      Cm = -0.0649     CD =  0.23000   =>   CDf =  0.00204    CDp =  0.22796

 Side 1  free  transition at x/c =  0.0263   29
 Side 2 forced transition at x/c =  1.0000   66

 148   rms: 0.3198E-01   max: -.2932E+00   D at   29  1
       a = 21.750      CL =  0.6850
      Cm = -0.0656     CD =  0.23469   =>   CDf =  0.00204    CDp =  0.23265

 Side 1  free  transition at x/c =  0.0265   29
 Side 2 forced transition at x/c =  1.0000   66

 149   rms: 0.6808E-01   max: -.4987E+00   T at   29  1
       a = 21.750      CL =  0.6914
      Cm = -0.0633     CD =  0.22817   =>   CDf =  0.00204    CDp =  0.22613

 Side 1  free  transition at x/c =  0.0259   29
 Side 2 forced transition at x/c =  1.0000   66

 150   rms: 0.1681E+00   max: 0.9456E+00   D at   30  1   RLX: 0.728
       a = 21.750      CL =  0.6804
      Cm = -0.0644     CD =  0.24676   =>   CDf =  0.00203    CDp =  0.24473

 Side 1  free  transition at x/c =  0.0255   29
 Side 2 forced transition at x/c =  1.0000   66

 151   rms: 0.7511E-01   max: -.5245E+00   C at   66  2   RLX: 0.953
       a = 21.750      CL =  0.6854
      Cm = -0.0667     CD =  0.24614   =>   CDf =  0.00204    CDp =  0.24410

 Side 1  free  transition at x/c =  0.0259   29
 Side 2 forced transition at x/c =  1.0000   66

 152   rms: 0.2379E-01   max: -.2449E+00   T at   29  1
       a = 21.750      CL =  0.6826
      Cm = -0.0659     CD =  0.23482   =>   CDf =  0.00204    CDp =  0.23278

 Side 1  free  transition at x/c =  0.0266   29
 Side 2 forced transition at x/c =  1.0000   66

 153   rms: 0.2303E+00   max: -.1677E+01   T at   30  1   RLX: 0.298
       a = 21.750      CL =  0.6827
      Cm = -0.0701     CD =  0.23570   =>   CDf =  0.00204    CDp =  0.23366

 Side 1  free  transition at x/c =  0.0254   29
 Side 2 forced transition at x/c =  1.0000   66

 154   rms: 0.6832E-01   max: 0.3960E+00   C at   66  2
       a = 21.750      CL =  0.6617
      Cm = -0.0654     CD =  0.21982   =>   CDf =  0.00205    CDp =  0.21777

 Side 1  free  transition at x/c =  0.0265   29
 Side 2 forced transition at x/c =  1.0000   66

 155   rms: 0.2844E+00   max: -.2156E+01   T at   29  1   RLX: 0.232
       a = 21.750      CL =  0.6596
      Cm = -0.0610     CD =  0.23786   =>   CDf =  0.00206    CDp =  0.23580
 VISCAL:  Convergence failed
 Calculating wake trajectory ...
 Calculating source influence matrix ...

 Solving BL system ...

 Side 1  free  transition at x/c =  0.0258   29
 Side 2 forced transition at x/c =  1.0000   66

   1   rms: 0.1074E+00   max: 0.7021E+00   D at   30  1   RLX: 0.229
       a = 22.250      CL =  0.6519
      Cm = -0.0562     CD =  0.24136   =>   CDf =  0.00205    CDp =  0.23931

 Side 1  free  transition at x/c =  0.0257   29
 Side 2 forced transition at x/c =  1.0000   66

   2   rms: 0.7940E-01   max: -.4924E+00   C at   66  2
       a = 22.250      CL =  0.6934
      Cm = -0.0717     CD =  0.25345   =>   CDf =  0.00204    CDp =  0.25141

 Side 1  free  transition at x/c =  0.0235   29
 Side 2 forced transition at x/c =  1.0000   66

   3   rms: 0.3233E-01   max: -.4619E+00   D at   29  1
       a = 22.250      CL =  0.6862
      Cm = -0.0705     CD =  0.24314   =>   CDf =  0.00202    CDp =  0.24112

 Side 1  free  transition at x/c =  0.0241   29
 Side 2 forced transition at x/c =  1.0000   66

   4   rms: 0.1015E-01   max: -.8152E-01   D at   29  1
       a = 22.250      CL =  0.6852
      Cm = -0.0699     CD =  0.23793   =>   CDf =  0.00202    CDp =  0.23591

 Side 1  free  transition at x/c =  0.0243   29
 Side 2 forced transition at x/c =  1.0000   66

   5   rms: 0.3222E-02   max: 0.2289E-01   C at   66  2
       a = 22.250      CL =  0.6865
      Cm = -0.0699     CD =  0.23903   =>   CDf =  0.00202    CDp =  0.23701

 Side 1  free  transition at x/c =  0.0243   29
 Side 2 forced transition at x/c =  1.0000   66

   6   rms: 0.6746E-03   max: -.4914E-02   D at   86  2
       a = 22.250      CL =  0.6869
      Cm = -0.0700     CD =  0.23954   =>   CDf =  0.00202    CDp =  0.23752

 Side 1  free  transition at x/c =  0.0243   29
 Side 2 forced transition at x/c =  1.0000   66

   7   rms: 0.5651E-04   max: -.4960E-03   D at   86  2
       a = 22.250      CL =  0.6869
      Cm = -0.0700     CD =  0.23959   =>   CDf =  0.00202    CDp =  0.23757
 plradd ia,ip,cpol           14           0 -4.96653724E-04

 Point added to stored polar  1
 Point written to save file  naca747a415_Re400k.ext.pol                      
 Dump file unspecified or not available

.OPERva   c>  
 Polar accumulation disabled

.OPERv   c>  
 XFOIL   c>  
 XFOIL   c>  