  
       XFOIL         Version 6.99
  
 Calculated polar for: NACA 0010-35                                    
  
 1 1 Reynolds number fixed          Mach number fixed         
  
 xtrf =   1.000 (top)        1.000 (bottom)  
 Mach =   0.000     Re =     0.300 e 6     Ncrit =   9.000
  
   alpha    CL        CD       CDp       CM     Top_Xtr  Bot_Xtr
  ------ -------- --------- --------- -------- -------- --------
  -4.000  -0.5935   0.01996   0.01247   0.0319   0.9966   0.0187
  -3.500  -0.5315   0.01787   0.01006   0.0310   0.9936   0.0220
  -3.000  -0.4781   0.01554   0.00761   0.0312   0.9895   0.0320
  -2.500  -0.4448   0.01132   0.00585   0.0341   0.9857   0.5830
  -2.000  -0.3955   0.01167   0.00734   0.0384   0.9821   0.9246
  -1.500  -0.2577   0.01432   0.00966   0.0230   0.9905   0.9612
  -1.000  -0.1658   0.01477   0.00994   0.0144   0.9897   0.9711
  -0.500  -0.0813   0.01499   0.01004   0.0069   0.9877   0.9788
   0.000  -0.0000   0.01502   0.01004   0.0000   0.9836   0.9836
   0.500   0.0812   0.01499   0.01004  -0.0069   0.9788   0.9876
   1.000   0.1659   0.01477   0.00994  -0.0144   0.9711   0.9897
   1.500   0.2572   0.01433   0.00967  -0.0229   0.9614   0.9906
   2.000   0.3952   0.01167   0.00734  -0.0383   0.9245   0.9821
   2.500   0.4448   0.01130   0.00584  -0.0341   0.5854   0.9856
   3.000   0.4781   0.01554   0.00760  -0.0312   0.0320   0.9895
   3.500   0.5313   0.01788   0.01006  -0.0310   0.0220   0.9936
   4.000   0.5933   0.01995   0.01245  -0.0319   0.0187   0.9966
