  
       XFOIL         Version 6.99
  
 Calculated polar for: NACA 16-015                                     
  
 1 1 Reynolds number fixed          Mach number fixed         
  
 xtrf =   1.000 (top)        1.000 (bottom)  
 Mach =   0.000     Re =     0.600 e 6     Ncrit =   9.000
  
   alpha    CL        CD       CDp       CM     Top_Xtr  Bot_Xtr
  ------ -------- --------- --------- -------- -------- --------
-3.500  -0.4559   0.00970   0.00564   0.0152   0.9140   0.7194
-3.000  -0.4081   0.00942   0.00558   0.0169   0.9101   0.7949
-2.500  -0.3471   0.00933   0.00550   0.0157   0.9083   0.8319
-2.000  -0.2773   0.00943   0.00561   0.0125   0.9073   0.8552
-1.500  -0.2008   0.01011   0.00632   0.0084   0.9065   0.8794
-1.000  -0.1114   0.01067   0.00686   0.0008   0.9063   0.8850
-0.500  -0.0796   0.01091   0.00709   0.0059   0.8967   0.8937
0.000   0.0000   0.01095   0.00712  -0.0000   0.8952   0.8952
0.500   0.0797   0.01091   0.00709  -0.0059   0.8937   0.8967
1.000   0.1300   0.01072   0.00692  -0.0050   0.8876   0.9034
1.500   0.2007   0.01012   0.00633  -0.0084   0.8794   0.9065
2.000   0.2774   0.00943   0.00561  -0.0125   0.8556   0.9073
2.500   0.3467   0.00932   0.00550  -0.0156   0.8317   0.9084
3.000   0.4080   0.00942   0.00558  -0.0169   0.7951   0.9101
3.500   0.4559   0.00969   0.00564  -0.0152   0.7203   0.9140
4.500   0.4210   0.01173   0.00634   0.0169   0.4035   0.9371
5.000   0.4515   0.01352   0.00723   0.0208   0.1997   0.9408
5.500   0.4646   0.01430   0.00763   0.0291   0.1123   0.9504
6.000   0.5187   0.01539   0.00845   0.0281   0.0596   0.9521
6.500   0.5701   0.01629   0.00934   0.0279   0.0495   0.9547
7.000   0.5978   0.01673   0.00987   0.0331   0.0468   0.9630
7.500   0.6536   0.01757   0.01074   0.0317   0.0420   0.9644
8.000   0.7042   0.01872   0.01200   0.0313   0.0381   0.9666
8.500   0.7512   0.01946   0.01281   0.0318   0.0344   0.9704
9.000   0.7836   0.02090   0.01432   0.0350   0.0306   0.9755
9.500   0.8389   0.02157   0.01510   0.0335   0.0273   0.9772
10.000   0.8811   0.02323   0.01682   0.0342   0.0237   0.9799
10.250   0.9030   0.02348   0.01715   0.0347   0.0227   0.9820
10.500   0.9194   0.02390   0.01763   0.0362   0.0215   0.9851
10.750   0.9448   0.02435   0.01813   0.0357   0.0203   0.9858
11.000   0.9682   0.02489   0.01868   0.0354   0.0192   0.9867
11.250   0.9848   0.02630   0.02020   0.0363   0.0180   0.9876
11.500   1.0068   0.02686   0.02086   0.0363   0.0173   0.9887
11.750   1.0272   0.02755   0.02164   0.0366   0.0165   0.9901
12.000   1.0465   0.02819   0.02236   0.0371   0.0157   0.9918
12.250   1.0639   0.02884   0.02306   0.0378   0.0151   0.9937
12.500   1.0805   0.02972   0.02399   0.0384   0.0144   0.9948
12.750   1.0869   0.03199   0.02644   0.0403   0.0137   0.9957
13.000   1.1024   0.03308   0.02767   0.0409   0.0134   0.9967
13.250   1.1162   0.03433   0.02908   0.0416   0.0131   0.9978
13.500   1.1276   0.03586   0.03077   0.0425   0.0127   0.9989
13.750   1.1375   0.03750   0.03257   0.0434   0.0123   0.9999
14.000   1.1343   0.03885   0.03404   0.0470   0.0121   1.0000
14.250   1.1289   0.04032   0.03563   0.0508   0.0119   1.0000
14.500   1.1233   0.04180   0.03722   0.0543   0.0117   1.0000
14.750   1.1167   0.04341   0.03894   0.0578   0.0115   1.0000
15.000   1.1099   0.04509   0.04072   0.0610   0.0113   1.0000
15.250   1.1018   0.04699   0.04272   0.0640   0.0112   1.0000
15.500   1.0929   0.04907   0.04490   0.0667   0.0111   1.0000
15.750   1.0830   0.05137   0.04729   0.0692   0.0109   1.0000
16.000   1.0701   0.05417   0.05021   0.0714   0.0108   1.0000
