
 ===================================================
  XFOIL Version 6.99
  Copyright (C) 2000   Mark Drela, Harold Youngren

  This software comes with ABSOLUTELY NO WARRANTY,
    subject to the GNU General Public License.

  Caveat computor
 ===================================================

 File  xfoil.def  not found

   QUIT    Exit program

  .OPER    Direct operating point(s)
  .MDES    Complex mapping design routine
  .QDES    Surface speed design routine
  .GDES    Geometry design routine

   SAVE f  Write airfoil to labeled coordinate file
   PSAV f  Write airfoil to plain coordinate file
   ISAV f  Write airfoil to ISES coordinate file
   MSAV f  Write airfoil to MSES coordinate file
   REVE    Reverse written-airfoil node ordering

   LOAD f  Read buffer airfoil from coordinate file
   NACA i  Set NACA 4,5-digit airfoil and buffer airfoil
   INTE    Set buffer airfoil by interpolating two airfoils
   NORM    Buffer airfoil normalization toggle
   XYCM rr Change CM reference location, currently  0.25000 0.00000

   BEND    Display structural properties of current airfoil

   PCOP    Set current-airfoil panel nodes directly from buffer airfoil points
   PANE    Set current-airfoil panel nodes ( 160 ) based on curvature
  .PPAR    Show/change paneling

  .PLOP    Plotting options

   WDEF f  Write  current-settings file
   RDEF f  Reread current-settings file
   NAME s  Specify new airfoil name
   NINC    Increment name version number

   Z       Zoom    | (available in all menus)
   U       Unzoom  | 

 XFOIL   c>  
 Labeled airfoil file.  Name:  NACA 4412                                       

 Number of input coordinate points:  35
 Counterclockwise ordering
 Max thickness =     0.120216  at x =   0.300
 Max camber    =     0.038372  at x =   0.400

  LE  x,y  =  -0.00028   0.00271  |   Chord =   1.00028
  TE  x,y  =   1.00000   0.00000  |

 Current airfoil nodes set from buffer airfoil nodes (  35 )

 WARNING: Poor input coordinate distribution
          Excessive panel angle   68.3  at i =  18
          Repaneling with PANE and/or PPAR suggested
           (doing GDES,CADD before repaneling _may_
            improve excessively coarse LE spacing

 XFOIL   c>  
 XFOIL   c>  
 Blunt trailing edge.  Gap =  0.00260

 Paneling parameters used...
   Number of panel nodes       160
   Panel bunching parameter    1.000
   TE/LE panel density ratio   0.150
   Refined-area/LE panel density ratio    0.200
   Top    side refined area x/c limits  1.000 1.000
   Bottom side refined area x/c limits  1.000 1.000

 XFOIL   c>  
.OPERi   c>  
 Xtr/c     =  1.0000    top    side
 Xtr/c     =  1.0000    bottom side
 Ncrit     =    9.00   ( 0.070 % turb. level )
 Vacc      =  0.0100

 Klag  =  5.6000     Uxwt  =    1.00
 A     =  6.7000     B     =  0.7500       KCt = 0.01485
 CtiniK=  1.8000     CtiniX=  3.3000

..VPAR   c>  
..VPAR   c>  
.OPERi   c>  
 M  =    0.0000
 Re =    400000

.OPERv   c>  
.OPERv   c>  
.OPERv   c>  
 Polar  1 newly created for accumulation
 Airfoil archived with polar: NACA 4412                                       

Enter  polar save filename  OR  <return> for no file   s>  
 New polar save file available

Enter  polar dump filename  OR  <return> for no file   s>  
 Polar dump file will NOT be written

 Polar accumulation enabled

.OPERva   c>   Calculating unit vorticity distributions ...
 Calculating wake trajectory ...
 Calculating source influence matrix ...

 Solving BL system ...

 Initializing BL ...
    side            1  ...
 MRCHUE: Inverse mode at  57     Hk =   4.171
 MRCHUE: Inverse mode at  58     Hk =   4.728
 MRCHUE: Inverse mode at  59     Hk =   5.275
 MRCHUE: Inverse mode at  60     Hk =   5.814
 MRCHUE: Inverse mode at  61     Hk =   6.346
 MRCHUE: Inverse mode at  62     Hk =   6.871
 MRCHUE: Inverse mode at  63     Hk =   7.390
 MRCHUE: Inverse mode at  64     Hk =   7.903
 MRCHUE: Inverse mode at  65     Hk =   7.769
 MRCHUE: Inverse mode at  66     Hk =   5.490
 MRCHUE: Inverse mode at  67     Hk =   4.038
 MRCHUE: Inverse mode at  68     Hk =   2.981
    side            2  ...
 MRCHUE: Inverse mode at  21     Hk =   3.957
 MRCHUE: Inverse mode at  22     Hk =   4.883
 MRCHUE: Inverse mode at  23     Hk =   5.831
 MRCHUE: Inverse mode at  24     Hk =   6.825
 MRCHUE: Inverse mode at  25     Hk =   7.882
 MRCHUE: Inverse mode at  26     Hk =   9.017
 MRCHUE: Inverse mode at  27     Hk =   9.566
 MRCHUE: Inverse mode at  28     Hk =   3.306
 MRCHUE: Inverse mode at  85     Hk =   2.500

 Side 1  free  transition at x/c =  0.8324   65
 Side 2  free  transition at x/c =  0.0658   27

   1   rms: 0.1449E+00   max: -.1190E+01   T at   27  2   RLX: 0.420
       a = -4.000      CL =  0.0409
      Cm = -0.1068     CD =  0.01202   =>   CDf =  0.00691    CDp =  0.00511

 MRCHDU: Convergence failed at  67  side 1    Res =  0.5464E+01
 MRCHDU: Convergence failed at  68  side 1    Res =  0.1927E+02
 MRCHDU: Convergence failed at  77  side 1    Res =  0.3126E+01
 MRCHDU: Convergence failed at  28  side 2    Res =  0.3433E+01
 MRCHDU: Convergence failed at  29  side 2    Res =  0.2287E+01
 MRCHDU: Convergence failed at  30  side 2    Res =  0.3494E+02
 MRCHDU: Convergence failed at  31  side 2    Res =  0.8304E+01
 MRCHDU: Convergence failed at  32  side 2    Res =  0.8778E+01
 MRCHDU: Convergence failed at  33  side 2    Res =  0.1157E+02
 MRCHDU: Convergence failed at  34  side 2    Res =  0.1665E+02
 MRCHDU: Convergence failed at  35  side 2    Res =  0.3156E+02
 MRCHDU: Convergence failed at  36  side 2    Res =  0.1082E+03
 MRCHDU: Convergence failed at  37  side 2    Res =  0.9499E+02
 MRCHDU: Convergence failed at  38  side 2    Res =  0.3667E+02
 MRCHDU: Convergence failed at  39  side 2    Res =  0.2503E+02
 MRCHDU: Convergence failed at  40  side 2    Res =  0.2047E+02
 MRCHDU: Convergence failed at  41  side 2    Res =  0.1816E+02
 MRCHDU: Convergence failed at  42  side 2    Res =  0.1062E+02
 MRCHDU: Convergence failed at  43  side 2    Res =  0.1132E+02
 MRCHDU: Convergence failed at  44  side 2    Res =  0.1223E+02
 MRCHDU: Convergence failed at  45  side 2    Res =  0.1304E+02
 MRCHDU: Convergence failed at  46  side 2    Res =  0.1371E+02
 MRCHDU: Convergence failed at  47  side 2    Res =  0.1426E+02
 MRCHDU: Convergence failed at  48  side 2    Res =  0.1469E+02
 MRCHDU: Convergence failed at  49  side 2    Res =  0.1502E+02
 MRCHDU: Convergence failed at  50  side 2    Res =  0.1527E+02
 MRCHDU: Convergence failed at  51  side 2    Res =  0.1549E+02
 MRCHDU: Convergence failed at  52  side 2    Res =  0.1573E+02
 MRCHDU: Convergence failed at  53  side 2    Res =  0.1595E+02
 MRCHDU: Convergence failed at  54  side 2    Res =  0.2116E+02
 MRCHDU: Convergence failed at  55  side 2    Res =  0.2205E+02
 MRCHDU: Convergence failed at  56  side 2    Res =  0.2300E+02
 MRCHDU: Convergence failed at  57  side 2    Res =  0.2402E+02
 MRCHDU: Convergence failed at  58  side 2    Res =  0.1328E+02
 MRCHDU: Convergence failed at  59  side 2    Res =  0.1357E+02
 MRCHDU: Convergence failed at  60  side 2    Res =  0.1388E+02
 MRCHDU: Convergence failed at  61  side 2    Res =  0.1413E+02
 MRCHDU: Convergence failed at  62  side 2    Res =  0.1438E+02
 MRCHDU: Convergence failed at  63  side 2    Res =  0.1462E+02
 MRCHDU: Convergence failed at  64  side 2    Res =  0.1483E+02
 MRCHDU: Convergence failed at  65  side 2    Res =  0.1508E+02
 MRCHDU: Convergence failed at  66  side 2    Res =  0.1532E+02
 MRCHDU: Convergence failed at  67  side 2    Res =  0.1551E+02
 MRCHDU: Convergence failed at  68  side 2    Res =  0.1574E+02
 MRCHDU: Convergence failed at  69  side 2    Res =  0.1595E+02
 MRCHDU: Convergence failed at  70  side 2    Res =  0.1619E+02
 MRCHDU: Convergence failed at  71  side 2    Res =  0.1643E+02
 MRCHDU: Convergence failed at  72  side 2    Res =  0.4318E+02
 MRCHDU: Convergence failed at  73  side 2    Res =  0.4488E+02
 MRCHDU: Convergence failed at  74  side 2    Res =  0.4674E+02
 MRCHDU: Convergence failed at  75  side 2    Res =  0.3196E+02
 MRCHDU: Convergence failed at  76  side 2    Res =  0.3372E+02
 MRCHDU: Convergence failed at  77  side 2    Res =  0.3619E+02
 MRCHDU: Convergence failed at  78  side 2    Res =  0.4009E+02
 MRCHDU: Convergence failed at  79  side 2    Res =  0.4606E+02
 MRCHDU: Convergence failed at  80  side 2    Res =  0.5487E+02
 MRCHDU: Convergence failed at  81  side 2    Res =  0.6682E+02
 MRCHDU: Convergence failed at  82  side 2    Res =  0.8309E+02
 MRCHDU: Convergence failed at  83  side 2    Res =  0.1149E+04
 MRCHDU: Convergence failed at  84  side 2    Res =  0.9125E+02
 MRCHDU: Convergence failed at  85  side 2    Res =  0.3005E+03
 Side 1  free  transition at x/c =  0.8586   67
 Side 2  free  transition at x/c =  0.0740   28

   2   rms: 0.7822E+00   max: 0.2917E+01   D at   87  2   RLX: 0.491
       a = -4.000      CL = -0.3662
      Cm =  0.0371     CD =  0.00445   =>   CDf =  0.00260    CDp =  0.00185

 Side 1  free  transition at x/c =  0.8833   69
 Side 2  free  transition at x/c =  0.0920   30

   3   rms: 0.2778E+00   max: 0.3739E+00   D at   92  2   RLX: 0.573
       a = -4.000      CL = -0.1107
      Cm = -0.0528     CD =  0.00799   =>   CDf =  0.00879    CDp = -0.00079

 Side 1  free  transition at x/c =  0.8896   69
 Side 2  free  transition at x/c =  0.0978   30

   4   rms: 0.1455E+00   max: 0.2624E+00   D at   97  2
       a = -4.000      CL =  0.0413
      Cm = -0.1068     CD =  0.01002   =>   CDf =  0.00739    CDp =  0.00264

 Side 1  free  transition at x/c =  0.8876   69
 Side 2  free  transition at x/c =  0.0975   30

   5   rms: 0.6285E-02   max: -.4493E-01   D at   62  2
       a = -4.000      CL =  0.0437
      Cm = -0.1072     CD =  0.01064   =>   CDf =  0.00650    CDp =  0.00413

 Side 1  free  transition at x/c =  0.8868   69
 Side 2  free  transition at x/c =  0.0972   30

   6   rms: 0.2183E-03   max: -.1637E-02   D at   72  1
       a = -4.000      CL =  0.0436
      Cm = -0.1071     CD =  0.01064   =>   CDf =  0.00651    CDp =  0.00412

 Side 1  free  transition at x/c =  0.8867   69
 Side 2  free  transition at x/c =  0.0972   30

   7   rms: 0.2292E-05   max: -.7698E-05   D at   30  2
       a = -4.000      CL =  0.0436
      Cm = -0.1071     CD =  0.01064   =>   CDf =  0.00652    CDp =  0.00412
 plradd ia,ip,cpol            1           0  1.36292521E-02

 Point added to stored polar  1
 Point written to save file  naca4412_Re400k.base.pol                        
 Dump file unspecified or not available
 Calculating wake trajectory ...
 Calculating source influence matrix ...

 Solving BL system ...

 Side 1  free  transition at x/c =  0.8867   69
 Side 2  free  transition at x/c =  0.0972   30

   1   rms: 0.1015E+00   max: -.6750E+00   T at   30  2   RLX: 0.741
       a = -3.500      CL =  0.0859
      Cm = -0.1071     CD =  0.01028   =>   CDf =  0.00652    CDp =  0.00376

 Side 1  free  transition at x/c =  0.8764   68
 Side 2  free  transition at x/c =  0.1132   31

   2   rms: 0.2529E-01   max: 0.2270E+00   D at   31  2
       a = -3.500      CL =  0.0978
      Cm = -0.1065     CD =  0.01019   =>   CDf =  0.00652    CDp =  0.00367

 Side 1  free  transition at x/c =  0.8674   68
 Side 2  free  transition at x/c =  0.1176   31

   3   rms: 0.7843E-02   max: -.8873E-01   D at   68  1
       a = -3.500      CL =  0.0994
      Cm = -0.1067     CD =  0.01019   =>   CDf =  0.00659    CDp =  0.00360

 Side 1  free  transition at x/c =  0.8700   68
 Side 2  free  transition at x/c =  0.1180   31

   4   rms: 0.5667E-02   max: -.7715E-01   C at   31  2
       a = -3.500      CL =  0.0992
      Cm = -0.1067     CD =  0.01020   =>   CDf =  0.00656    CDp =  0.00364

 Side 1  free  transition at x/c =  0.8698   68
 Side 2  free  transition at x/c =  0.1180   31

   5   rms: 0.5590E-02   max: -.7669E-01   C at   31  2
       a = -3.500      CL =  0.0992
      Cm = -0.1067     CD =  0.01020   =>   CDf =  0.00657    CDp =  0.00364

 Side 1  free  transition at x/c =  0.8698   68
 Side 2  free  transition at x/c =  0.1180   31

   6   rms: 0.5591E-02   max: -.7670E-01   C at   31  2
       a = -3.500      CL =  0.0992
      Cm = -0.1067     CD =  0.01020   =>   CDf =  0.00657    CDp =  0.00364

 Side 1  free  transition at x/c =  0.8698   68
 Side 2  free  transition at x/c =  0.1180   31

   7   rms: 0.5591E-02   max: -.7670E-01   C at   31  2
       a = -3.500      CL =  0.0992
      Cm = -0.1067     CD =  0.01020   =>   CDf =  0.00657    CDp =  0.00364

 Side 1  free  transition at x/c =  0.8698   68
 Side 2  free  transition at x/c =  0.1180   31

   8   rms: 0.5591E-02   max: -.7670E-01   C at   31  2
       a = -3.500      CL =  0.0992
      Cm = -0.1067     CD =  0.01020   =>   CDf =  0.00657    CDp =  0.00364

 Side 1  free  transition at x/c =  0.8698   68
 Side 2  free  transition at x/c =  0.1180   31

   9   rms: 0.5591E-02   max: -.7670E-01   C at   31  2
       a = -3.500      CL =  0.0992
      Cm = -0.1067     CD =  0.01020   =>   CDf =  0.00657    CDp =  0.00364

 Side 1  free  transition at x/c =  0.8698   68
 Side 2  free  transition at x/c =  0.1180   31

  10   rms: 0.5591E-02   max: -.7670E-01   C at   31  2
       a = -3.500      CL =  0.0992
      Cm = -0.1067     CD =  0.01020   =>   CDf =  0.00657    CDp =  0.00364

 Side 1  free  transition at x/c =  0.8698   68
 Side 2  free  transition at x/c =  0.1180   31

  11   rms: 0.5591E-02   max: -.7670E-01   C at   31  2
       a = -3.500      CL =  0.0992
      Cm = -0.1067     CD =  0.01020   =>   CDf =  0.00657    CDp =  0.00364

 Side 1  free  transition at x/c =  0.8698   68
 Side 2  free  transition at x/c =  0.1180   31

  12   rms: 0.5591E-02   max: -.7670E-01   C at   31  2
       a = -3.500      CL =  0.0992
      Cm = -0.1067     CD =  0.01020   =>   CDf =  0.00657    CDp =  0.00364

 Side 1  free  transition at x/c =  0.8698   68
 Side 2  free  transition at x/c =  0.1180   31

  13   rms: 0.5591E-02   max: -.7670E-01   C at   31  2
       a = -3.500      CL =  0.0992
      Cm = -0.1067     CD =  0.01020   =>   CDf =  0.00657    CDp =  0.00364

 Side 1  free  transition at x/c =  0.8698   68
 Side 2  free  transition at x/c =  0.1180   31

  14   rms: 0.5591E-02   max: -.7670E-01   C at   31  2
       a = -3.500      CL =  0.0992
      Cm = -0.1067     CD =  0.01020   =>   CDf =  0.00657    CDp =  0.00364

 Side 1  free  transition at x/c =  0.8698   68
 Side 2  free  transition at x/c =  0.1180   31

  15   rms: 0.5591E-02   max: -.7670E-01   C at   31  2
       a = -3.500      CL =  0.0992
      Cm = -0.1067     CD =  0.01020   =>   CDf =  0.00657    CDp =  0.00364

 Side 1  free  transition at x/c =  0.8698   68
 Side 2  free  transition at x/c =  0.1180   31

  16   rms: 0.5591E-02   max: -.7670E-01   C at   31  2
       a = -3.500      CL =  0.0992
      Cm = -0.1067     CD =  0.01020   =>   CDf =  0.00657    CDp =  0.00364

 Side 1  free  transition at x/c =  0.8698   68
 Side 2  free  transition at x/c =  0.1180   31

  17   rms: 0.5591E-02   max: -.7670E-01   C at   31  2
       a = -3.500      CL =  0.0992
      Cm = -0.1067     CD =  0.01020   =>   CDf =  0.00657    CDp =  0.00364

 Side 1  free  transition at x/c =  0.8698   68
 Side 2  free  transition at x/c =  0.1180   31

  18   rms: 0.5591E-02   max: -.7670E-01   C at   31  2
       a = -3.500      CL =  0.0992
      Cm = -0.1067     CD =  0.01020   =>   CDf =  0.00657    CDp =  0.00364

 Side 1  free  transition at x/c =  0.8698   68
 Side 2  free  transition at x/c =  0.1180   31

  19   rms: 0.5591E-02   max: -.7670E-01   C at   31  2
       a = -3.500      CL =  0.0992
      Cm = -0.1067     CD =  0.01020   =>   CDf =  0.00657    CDp =  0.00364

 Side 1  free  transition at x/c =  0.8698   68
 Side 2  free  transition at x/c =  0.1180   31

  20   rms: 0.5591E-02   max: -.7670E-01   C at   31  2
       a = -3.500      CL =  0.0992
      Cm = -0.1067     CD =  0.01020   =>   CDf =  0.00657    CDp =  0.00364

 Side 1  free  transition at x/c =  0.8698   68
 Side 2  free  transition at x/c =  0.1180   31

  21   rms: 0.5591E-02   max: -.7670E-01   C at   31  2
       a = -3.500      CL =  0.0992
      Cm = -0.1067     CD =  0.01020   =>   CDf =  0.00657    CDp =  0.00364

 Side 1  free  transition at x/c =  0.8698   68
 Side 2  free  transition at x/c =  0.1180   31

  22   rms: 0.5591E-02   max: -.7670E-01   C at   31  2
       a = -3.500      CL =  0.0992
      Cm = -0.1067     CD =  0.01020   =>   CDf =  0.00657    CDp =  0.00364

 Side 1  free  transition at x/c =  0.8698   68
 Side 2  free  transition at x/c =  0.1180   31

  23   rms: 0.5591E-02   max: -.7670E-01   C at   31  2
       a = -3.500      CL =  0.0992
      Cm = -0.1067     CD =  0.01020   =>   CDf =  0.00657    CDp =  0.00364

 Side 1  free  transition at x/c =  0.8698   68
 Side 2  free  transition at x/c =  0.1180   31

  24   rms: 0.5591E-02   max: -.7670E-01   C at   31  2
       a = -3.500      CL =  0.0992
      Cm = -0.1067     CD =  0.01020   =>   CDf =  0.00657    CDp =  0.00364

 Side 1  free  transition at x/c =  0.8698   68
 Side 2  free  transition at x/c =  0.1180   31

  25   rms: 0.5591E-02   max: -.7670E-01   C at   31  2
       a = -3.500      CL =  0.0992
      Cm = -0.1067     CD =  0.01020   =>   CDf =  0.00657    CDp =  0.00364

 Side 1  free  transition at x/c =  0.8698   68
 Side 2  free  transition at x/c =  0.1180   31

  26   rms: 0.5591E-02   max: -.7670E-01   C at   31  2
       a = -3.500      CL =  0.0992
      Cm = -0.1067     CD =  0.01020   =>   CDf =  0.00657    CDp =  0.00364

 Side 1  free  transition at x/c =  0.8698   68
 Side 2  free  transition at x/c =  0.1180   31

  27   rms: 0.5591E-02   max: -.7670E-01   C at   31  2
       a = -3.500      CL =  0.0992
      Cm = -0.1067     CD =  0.01020   =>   CDf =  0.00657    CDp =  0.00364

 Side 1  free  transition at x/c =  0.8698   68
 Side 2  free  transition at x/c =  0.1180   31

  28   rms: 0.5591E-02   max: -.7670E-01   C at   31  2
       a = -3.500      CL =  0.0992
      Cm = -0.1067     CD =  0.01020   =>   CDf =  0.00657    CDp =  0.00364

 Side 1  free  transition at x/c =  0.8698   68
 Side 2  free  transition at x/c =  0.1180   31

  29   rms: 0.5591E-02   max: -.7670E-01   C at   31  2
       a = -3.500      CL =  0.0992
      Cm = -0.1067     CD =  0.01020   =>   CDf =  0.00657    CDp =  0.00364

 Side 1  free  transition at x/c =  0.8698   68
 Side 2  free  transition at x/c =  0.1180   31

  30   rms: 0.5591E-02   max: -.7670E-01   C at   31  2
       a = -3.500      CL =  0.0992
      Cm = -0.1067     CD =  0.01020   =>   CDf =  0.00657    CDp =  0.00364

 Side 1  free  transition at x/c =  0.8698   68
 Side 2  free  transition at x/c =  0.1180   31

  31   rms: 0.5591E-02   max: -.7670E-01   C at   31  2
       a = -3.500      CL =  0.0992
      Cm = -0.1067     CD =  0.01020   =>   CDf =  0.00657    CDp =  0.00364

 Side 1  free  transition at x/c =  0.8698   68
 Side 2  free  transition at x/c =  0.1180   31

  32   rms: 0.5591E-02   max: -.7670E-01   C at   31  2
       a = -3.500      CL =  0.0992
      Cm = -0.1067     CD =  0.01020   =>   CDf =  0.00657    CDp =  0.00364

 Side 1  free  transition at x/c =  0.8698   68
 Side 2  free  transition at x/c =  0.1180   31

  33   rms: 0.5591E-02   max: -.7669E-01   C at   31  2
       a = -3.500      CL =  0.0992
      Cm = -0.1067     CD =  0.01020   =>   CDf =  0.00657    CDp =  0.00364

 Side 1  free  transition at x/c =  0.8698   68
 Side 2  free  transition at x/c =  0.1180   31

  34   rms: 0.5591E-02   max: -.7670E-01   C at   31  2
       a = -3.500      CL =  0.0992
      Cm = -0.1067     CD =  0.01020   =>   CDf =  0.00657    CDp =  0.00364

 Side 1  free  transition at x/c =  0.8698   68
 Side 2  free  transition at x/c =  0.1180   31

  35   rms: 0.5591E-02   max: -.7670E-01   C at   31  2
       a = -3.500      CL =  0.0992
      Cm = -0.1067     CD =  0.01020   =>   CDf =  0.00657    CDp =  0.00364

 Side 1  free  transition at x/c =  0.8698   68
 Side 2  free  transition at x/c =  0.1180   31

  36   rms: 0.5591E-02   max: -.7670E-01   C at   31  2
       a = -3.500      CL =  0.0992
      Cm = -0.1067     CD =  0.01020   =>   CDf =  0.00657    CDp =  0.00364

 Side 1  free  transition at x/c =  0.8698   68
 Side 2  free  transition at x/c =  0.1180   31

  37   rms: 0.5591E-02   max: -.7670E-01   C at   31  2
       a = -3.500      CL =  0.0992
      Cm = -0.1067     CD =  0.01020   =>   CDf =  0.00657    CDp =  0.00364

 Side 1  free  transition at x/c =  0.8698   68
 Side 2  free  transition at x/c =  0.1180   31

  38   rms: 0.5591E-02   max: -.7670E-01   C at   31  2
       a = -3.500      CL =  0.0992
      Cm = -0.1067     CD =  0.01020   =>   CDf =  0.00657    CDp =  0.00364

 Side 1  free  transition at x/c =  0.8698   68
 Side 2  free  transition at x/c =  0.1180   31

  39   rms: 0.5591E-02   max: -.7670E-01   C at   31  2
       a = -3.500      CL =  0.0992
      Cm = -0.1067     CD =  0.01020   =>   CDf =  0.00657    CDp =  0.00364

 Side 1  free  transition at x/c =  0.8698   68
 Side 2  free  transition at x/c =  0.1180   31

  40   rms: 0.5591E-02   max: -.7670E-01   C at   31  2
       a = -3.500      CL =  0.0992
      Cm = -0.1067     CD =  0.01020   =>   CDf =  0.00657    CDp =  0.00364

 Side 1  free  transition at x/c =  0.8698   68
 Side 2  free  transition at x/c =  0.1180   31

  41   rms: 0.5591E-02   max: -.7670E-01   C at   31  2
       a = -3.500      CL =  0.0992
      Cm = -0.1067     CD =  0.01020   =>   CDf =  0.00657    CDp =  0.00364

 Side 1  free  transition at x/c =  0.8698   68
 Side 2  free  transition at x/c =  0.1180   31

  42   rms: 0.5591E-02   max: -.7670E-01   C at   31  2
       a = -3.500      CL =  0.0992
      Cm = -0.1067     CD =  0.01020   =>   CDf =  0.00657    CDp =  0.00364

 Side 1  free  transition at x/c =  0.8698   68
 Side 2  free  transition at x/c =  0.1180   31

  43   rms: 0.5591E-02   max: -.7670E-01   C at   31  2
       a = -3.500      CL =  0.0992
      Cm = -0.1067     CD =  0.01020   =>   CDf =  0.00657    CDp =  0.00364

 Side 1  free  transition at x/c =  0.8698   68
 Side 2  free  transition at x/c =  0.1180   31

  44   rms: 0.5591E-02   max: -.7669E-01   C at   31  2
       a = -3.500      CL =  0.0992
      Cm = -0.1067     CD =  0.01020   =>   CDf =  0.00657    CDp =  0.00364

 Side 1  free  transition at x/c =  0.8698   68
 Side 2  free  transition at x/c =  0.1180   31

  45   rms: 0.5591E-02   max: -.7670E-01   C at   31  2
       a = -3.500      CL =  0.0992
      Cm = -0.1067     CD =  0.01020   =>   CDf =  0.00657    CDp =  0.00364

 Side 1  free  transition at x/c =  0.8698   68
 Side 2  free  transition at x/c =  0.1180   31

  46   rms: 0.5591E-02   max: -.7670E-01   C at   31  2
       a = -3.500      CL =  0.0992
      Cm = -0.1067     CD =  0.01020   =>   CDf =  0.00657    CDp =  0.00364

 Side 1  free  transition at x/c =  0.8698   68
 Side 2  free  transition at x/c =  0.1180   31

  47   rms: 0.5592E-02   max: -.7670E-01   C at   31  2
       a = -3.500      CL =  0.0992
      Cm = -0.1067     CD =  0.01020   =>   CDf =  0.00657    CDp =  0.00364

 Side 1  free  transition at x/c =  0.8698   68
 Side 2  free  transition at x/c =  0.1180   31

  48   rms: 0.5591E-02   max: -.7670E-01   C at   31  2
       a = -3.500      CL =  0.0992
      Cm = -0.1067     CD =  0.01020   =>   CDf =  0.00657    CDp =  0.00364

 Side 1  free  transition at x/c =  0.8698   68
 Side 2  free  transition at x/c =  0.1180   31

  49   rms: 0.5591E-02   max: -.7670E-01   C at   31  2
       a = -3.500      CL =  0.0992
      Cm = -0.1067     CD =  0.01020   =>   CDf =  0.00657    CDp =  0.00364

 Side 1  free  transition at x/c =  0.8698   68
 Side 2  free  transition at x/c =  0.1180   31

  50   rms: 0.5591E-02   max: -.7670E-01   C at   31  2
       a = -3.500      CL =  0.0992
      Cm = -0.1067     CD =  0.01020   =>   CDf =  0.00657    CDp =  0.00364

 Side 1  free  transition at x/c =  0.8698   68
 Side 2  free  transition at x/c =  0.1180   31

  51   rms: 0.5591E-02   max: -.7670E-01   C at   31  2
       a = -3.500      CL =  0.0992
      Cm = -0.1067     CD =  0.01020   =>   CDf =  0.00657    CDp =  0.00364

 Side 1  free  transition at x/c =  0.8698   68
 Side 2  free  transition at x/c =  0.1180   31

  52   rms: 0.5591E-02   max: -.7670E-01   C at   31  2
       a = -3.500      CL =  0.0992
      Cm = -0.1067     CD =  0.01020   =>   CDf =  0.00657    CDp =  0.00364

 Side 1  free  transition at x/c =  0.8698   68
 Side 2  free  transition at x/c =  0.1180   31

  53   rms: 0.5591E-02   max: -.7670E-01   C at   31  2
       a = -3.500      CL =  0.0992
      Cm = -0.1067     CD =  0.01020   =>   CDf =  0.00657    CDp =  0.00364

 Side 1  free  transition at x/c =  0.8698   68
 Side 2  free  transition at x/c =  0.1180   31

  54   rms: 0.5591E-02   max: -.7670E-01   C at   31  2
       a = -3.500      CL =  0.0992
      Cm = -0.1067     CD =  0.01020   =>   CDf =  0.00657    CDp =  0.00364

 Side 1  free  transition at x/c =  0.8698   68
 Side 2  free  transition at x/c =  0.1180   31

  55   rms: 0.5591E-02   max: -.7670E-01   C at   31  2
       a = -3.500      CL =  0.0992
      Cm = -0.1067     CD =  0.01020   =>   CDf =  0.00657    CDp =  0.00364

 Side 1  free  transition at x/c =  0.8698   68
 Side 2  free  transition at x/c =  0.1180   31

  56   rms: 0.5591E-02   max: -.7670E-01   C at   31  2
       a = -3.500      CL =  0.0992
      Cm = -0.1067     CD =  0.01020   =>   CDf =  0.00657    CDp =  0.00364

 Side 1  free  transition at x/c =  0.8698   68
 Side 2  free  transition at x/c =  0.1180   31

  57   rms: 0.5591E-02   max: -.7670E-01   C at   31  2
       a = -3.500      CL =  0.0992
      Cm = -0.1067     CD =  0.01020   =>   CDf =  0.00657    CDp =  0.00364

 Side 1  free  transition at x/c =  0.8698   68
 Side 2  free  transition at x/c =  0.1180   31

  58   rms: 0.5591E-02   max: -.7670E-01   C at   31  2
       a = -3.500      CL =  0.0992
      Cm = -0.1067     CD =  0.01020   =>   CDf =  0.00657    CDp =  0.00364

 Side 1  free  transition at x/c =  0.8698   68
 Side 2  free  transition at x/c =  0.1180   31

  59   rms: 0.5591E-02   max: -.7670E-01   C at   31  2
       a = -3.500      CL =  0.0992
      Cm = -0.1067     CD =  0.01020   =>   CDf =  0.00657    CDp =  0.00364

 Side 1  free  transition at x/c =  0.8698   68
 Side 2  free  transition at x/c =  0.1180   31

  60   rms: 0.5591E-02   max: -.7670E-01   C at   31  2
       a = -3.500      CL =  0.0992
      Cm = -0.1067     CD =  0.01020   =>   CDf =  0.00657    CDp =  0.00364

 Side 1  free  transition at x/c =  0.8698   68
 Side 2  free  transition at x/c =  0.1180   31

  61   rms: 0.5591E-02   max: -.7670E-01   C at   31  2
       a = -3.500      CL =  0.0992
      Cm = -0.1067     CD =  0.01020   =>   CDf =  0.00657    CDp =  0.00364

 Side 1  free  transition at x/c =  0.8698   68
 Side 2  free  transition at x/c =  0.1180   31

  62   rms: 0.5591E-02   max: -.7670E-01   C at   31  2
       a = -3.500      CL =  0.0992
      Cm = -0.1067     CD =  0.01020   =>   CDf =  0.00657    CDp =  0.00364

 Side 1  free  transition at x/c =  0.8698   68
 Side 2  free  transition at x/c =  0.1180   31

  63   rms: 0.5591E-02   max: -.7670E-01   C at   31  2
       a = -3.500      CL =  0.0992
      Cm = -0.1067     CD =  0.01020   =>   CDf =  0.00657    CDp =  0.00364

 Side 1  free  transition at x/c =  0.8698   68
 Side 2  free  transition at x/c =  0.1180   31

  64   rms: 0.5591E-02   max: -.7670E-01   C at   31  2
       a = -3.500      CL =  0.0992
      Cm = -0.1067     CD =  0.01020   =>   CDf =  0.00657    CDp =  0.00364

 Side 1  free  transition at x/c =  0.8698   68
 Side 2  free  transition at x/c =  0.1180   31

  65   rms: 0.5591E-02   max: -.7670E-01   C at   31  2
       a = -3.500      CL =  0.0992
      Cm = -0.1067     CD =  0.01020   =>   CDf =  0.00657    CDp =  0.00364

 Side 1  free  transition at x/c =  0.8698   68
 Side 2  free  transition at x/c =  0.1180   31

  66   rms: 0.5591E-02   max: -.7670E-01   C at   31  2
       a = -3.500      CL =  0.0992
      Cm = -0.1067     CD =  0.01020   =>   CDf =  0.00657    CDp =  0.00364

 Side 1  free  transition at x/c =  0.8698   68
 Side 2  free  transition at x/c =  0.1180   31

  67   rms: 0.5591E-02   max: -.7670E-01   C at   31  2
       a = -3.500      CL =  0.0992
      Cm = -0.1067     CD =  0.01020   =>   CDf =  0.00657    CDp =  0.00364

 Side 1  free  transition at x/c =  0.8698   68
 Side 2  free  transition at x/c =  0.1180   31

  68   rms: 0.5591E-02   max: -.7670E-01   C at   31  2
       a = -3.500      CL =  0.0992
      Cm = -0.1067     CD =  0.01020   =>   CDf =  0.00657    CDp =  0.00364

 Side 1  free  transition at x/c =  0.8698   68
 Side 2  free  transition at x/c =  0.1180   31

  69   rms: 0.5591E-02   max: -.7670E-01   C at   31  2
       a = -3.500      CL =  0.0992
      Cm = -0.1067     CD =  0.01020   =>   CDf =  0.00657    CDp =  0.00364

 Side 1  free  transition at x/c =  0.8698   68
 Side 2  free  transition at x/c =  0.1180   31

  70   rms: 0.5591E-02   max: -.7670E-01   C at   31  2
       a = -3.500      CL =  0.0992
      Cm = -0.1067     CD =  0.01020   =>   CDf =  0.00657    CDp =  0.00364

 Side 1  free  transition at x/c =  0.8698   68
 Side 2  free  transition at x/c =  0.1180   31

  71   rms: 0.5591E-02   max: -.7670E-01   C at   31  2
       a = -3.500      CL =  0.0992
      Cm = -0.1067     CD =  0.01020   =>   CDf =  0.00657    CDp =  0.00364

 Side 1  free  transition at x/c =  0.8698   68
 Side 2  free  transition at x/c =  0.1180   31

  72   rms: 0.5591E-02   max: -.7670E-01   C at   31  2
       a = -3.500      CL =  0.0992
      Cm = -0.1067     CD =  0.01020   =>   CDf =  0.00657    CDp =  0.00364

 Side 1  free  transition at x/c =  0.8698   68
 Side 2  free  transition at x/c =  0.1180   31

  73   rms: 0.5591E-02   max: -.7670E-01   C at   31  2
       a = -3.500      CL =  0.0992
      Cm = -0.1067     CD =  0.01020   =>   CDf =  0.00657    CDp =  0.00364

 Side 1  free  transition at x/c =  0.8698   68
 Side 2  free  transition at x/c =  0.1180   31

  74   rms: 0.5591E-02   max: -.7670E-01   C at   31  2
       a = -3.500      CL =  0.0992
      Cm = -0.1067     CD =  0.01020   =>   CDf =  0.00657    CDp =  0.00364

 Side 1  free  transition at x/c =  0.8698   68
 Side 2  free  transition at x/c =  0.1180   31

  75   rms: 0.5591E-02   max: -.7670E-01   C at   31  2
       a = -3.500      CL =  0.0992
      Cm = -0.1067     CD =  0.01020   =>   CDf =  0.00657    CDp =  0.00364

 Side 1  free  transition at x/c =  0.8698   68
 Side 2  free  transition at x/c =  0.1180   31

  76   rms: 0.5591E-02   max: -.7670E-01   C at   31  2
       a = -3.500      CL =  0.0992
      Cm = -0.1067     CD =  0.01020   =>   CDf =  0.00657    CDp =  0.00364

 Side 1  free  transition at x/c =  0.8698   68
 Side 2  free  transition at x/c =  0.1180   31

  77   rms: 0.5591E-02   max: -.7670E-01   C at   31  2
       a = -3.500      CL =  0.0992
      Cm = -0.1067     CD =  0.01020   =>   CDf =  0.00657    CDp =  0.00364

 Side 1  free  transition at x/c =  0.8698   68
 Side 2  free  transition at x/c =  0.1180   31

  78   rms: 0.5591E-02   max: -.7670E-01   C at   31  2
       a = -3.500      CL =  0.0992
      Cm = -0.1067     CD =  0.01020   =>   CDf =  0.00657    CDp =  0.00364

 Side 1  free  transition at x/c =  0.8698   68
 Side 2  free  transition at x/c =  0.1180   31

  79   rms: 0.5591E-02   max: -.7670E-01   C at   31  2
       a = -3.500      CL =  0.0992
      Cm = -0.1067     CD =  0.01020   =>   CDf =  0.00657    CDp =  0.00364

 Side 1  free  transition at x/c =  0.8698   68
 Side 2  free  transition at x/c =  0.1180   31

  80   rms: 0.5591E-02   max: -.7670E-01   C at   31  2
       a = -3.500      CL =  0.0992
      Cm = -0.1067     CD =  0.01020   =>   CDf =  0.00657    CDp =  0.00364

 Side 1  free  transition at x/c =  0.8698   68
 Side 2  free  transition at x/c =  0.1180   31

  81   rms: 0.5591E-02   max: -.7670E-01   C at   31  2
       a = -3.500      CL =  0.0992
      Cm = -0.1067     CD =  0.01020   =>   CDf =  0.00657    CDp =  0.00364

 Side 1  free  transition at x/c =  0.8698   68
 Side 2  free  transition at x/c =  0.1180   31

  82   rms: 0.5591E-02   max: -.7670E-01   C at   31  2
       a = -3.500      CL =  0.0992
      Cm = -0.1067     CD =  0.01020   =>   CDf =  0.00657    CDp =  0.00364

 Side 1  free  transition at x/c =  0.8698   68
 Side 2  free  transition at x/c =  0.1180   31

  83   rms: 0.5591E-02   max: -.7670E-01   C at   31  2
       a = -3.500      CL =  0.0992
      Cm = -0.1067     CD =  0.01020   =>   CDf =  0.00657    CDp =  0.00364

 Side 1  free  transition at x/c =  0.8698   68
 Side 2  free  transition at x/c =  0.1180   31

  84   rms: 0.5592E-02   max: -.7670E-01   C at   31  2
       a = -3.500      CL =  0.0992
      Cm = -0.1067     CD =  0.01020   =>   CDf =  0.00657    CDp =  0.00364

 Side 1  free  transition at x/c =  0.8698   68
 Side 2  free  transition at x/c =  0.1180   31

  85   rms: 0.5591E-02   max: -.7670E-01   C at   31  2
       a = -3.500      CL =  0.0992
      Cm = -0.1067     CD =  0.01020   =>   CDf =  0.00657    CDp =  0.00364

 Side 1  free  transition at x/c =  0.8698   68
 Side 2  free  transition at x/c =  0.1180   31

  86   rms: 0.5591E-02   max: -.7670E-01   C at   31  2
       a = -3.500      CL =  0.0992
      Cm = -0.1067     CD =  0.01020   =>   CDf =  0.00657    CDp =  0.00364

 Side 1  free  transition at x/c =  0.8698   68
 Side 2  free  transition at x/c =  0.1180   31

  87   rms: 0.5591E-02   max: -.7670E-01   C at   31  2
       a = -3.500      CL =  0.0992
      Cm = -0.1067     CD =  0.01020   =>   CDf =  0.00657    CDp =  0.00364

 Side 1  free  transition at x/c =  0.8698   68
 Side 2  free  transition at x/c =  0.1180   31

  88   rms: 0.5591E-02   max: -.7670E-01   C at   31  2
       a = -3.500      CL =  0.0992
      Cm = -0.1067     CD =  0.01020   =>   CDf =  0.00657    CDp =  0.00364

 Side 1  free  transition at x/c =  0.8698   68
 Side 2  free  transition at x/c =  0.1180   31

  89   rms: 0.5591E-02   max: -.7670E-01   C at   31  2
       a = -3.500      CL =  0.0992
      Cm = -0.1067     CD =  0.01020   =>   CDf =  0.00657    CDp =  0.00364

 Side 1  free  transition at x/c =  0.8698   68
 Side 2  free  transition at x/c =  0.1180   31

  90   rms: 0.5591E-02   max: -.7670E-01   C at   31  2
       a = -3.500      CL =  0.0992
      Cm = -0.1067     CD =  0.01020   =>   CDf =  0.00657    CDp =  0.00364

 Side 1  free  transition at x/c =  0.8698   68
 Side 2  free  transition at x/c =  0.1180   31

  91   rms: 0.5591E-02   max: -.7670E-01   C at   31  2
       a = -3.500      CL =  0.0992
      Cm = -0.1067     CD =  0.01020   =>   CDf =  0.00657    CDp =  0.00364

 Side 1  free  transition at x/c =  0.8698   68
 Side 2  free  transition at x/c =  0.1180   31

  92   rms: 0.5591E-02   max: -.7670E-01   C at   31  2
       a = -3.500      CL =  0.0992
      Cm = -0.1067     CD =  0.01020   =>   CDf =  0.00657    CDp =  0.00364

 Side 1  free  transition at x/c =  0.8698   68
 Side 2  free  transition at x/c =  0.1180   31

  93   rms: 0.5591E-02   max: -.7670E-01   C at   31  2
       a = -3.500      CL =  0.0992
      Cm = -0.1067     CD =  0.01020   =>   CDf =  0.00657    CDp =  0.00364

 Side 1  free  transition at x/c =  0.8698   68
 Side 2  free  transition at x/c =  0.1180   31

  94   rms: 0.5591E-02   max: -.7670E-01   C at   31  2
       a = -3.500      CL =  0.0992
      Cm = -0.1067     CD =  0.01020   =>   CDf =  0.00657    CDp =  0.00364

 Side 1  free  transition at x/c =  0.8698   68
 Side 2  free  transition at x/c =  0.1180   31

  95   rms: 0.5591E-02   max: -.7670E-01   C at   31  2
       a = -3.500      CL =  0.0992
      Cm = -0.1067     CD =  0.01020   =>   CDf =  0.00657    CDp =  0.00364

 Side 1  free  transition at x/c =  0.8698   68
 Side 2  free  transition at x/c =  0.1180   31

  96   rms: 0.5591E-02   max: -.7670E-01   C at   31  2
       a = -3.500      CL =  0.0992
      Cm = -0.1067     CD =  0.01020   =>   CDf =  0.00657    CDp =  0.00364

 Side 1  free  transition at x/c =  0.8698   68
 Side 2  free  transition at x/c =  0.1180   31

  97   rms: 0.5591E-02   max: -.7670E-01   C at   31  2
       a = -3.500      CL =  0.0992
      Cm = -0.1067     CD =  0.01020   =>   CDf =  0.00657    CDp =  0.00364

 Side 1  free  transition at x/c =  0.8698   68
 Side 2  free  transition at x/c =  0.1180   31

  98   rms: 0.5591E-02   max: -.7670E-01   C at   31  2
       a = -3.500      CL =  0.0992
      Cm = -0.1067     CD =  0.01020   =>   CDf =  0.00657    CDp =  0.00364

 Side 1  free  transition at x/c =  0.8698   68
 Side 2  free  transition at x/c =  0.1180   31

  99   rms: 0.5591E-02   max: -.7670E-01   C at   31  2
       a = -3.500      CL =  0.0992
      Cm = -0.1067     CD =  0.01020   =>   CDf =  0.00657    CDp =  0.00364

 Side 1  free  transition at x/c =  0.8698   68
 Side 2  free  transition at x/c =  0.1180   31

 100   rms: 0.5591E-02   max: -.7670E-01   C at   31  2
       a = -3.500      CL =  0.0992
      Cm = -0.1067     CD =  0.01020   =>   CDf =  0.00657    CDp =  0.00364

 Side 1  free  transition at x/c =  0.8698   68
 Side 2  free  transition at x/c =  0.1180   31

 101   rms: 0.5591E-02   max: -.7670E-01   C at   31  2
       a = -3.500      CL =  0.0992
      Cm = -0.1067     CD =  0.01020   =>   CDf =  0.00657    CDp =  0.00364

 Side 1  free  transition at x/c =  0.8698   68
 Side 2  free  transition at x/c =  0.1180   31

 102   rms: 0.5591E-02   max: -.7670E-01   C at   31  2
       a = -3.500      CL =  0.0992
      Cm = -0.1067     CD =  0.01020   =>   CDf =  0.00657    CDp =  0.00364

 Side 1  free  transition at x/c =  0.8698   68
 Side 2  free  transition at x/c =  0.1180   31

 103   rms: 0.5591E-02   max: -.7670E-01   C at   31  2
       a = -3.500      CL =  0.0992
      Cm = -0.1067     CD =  0.01020   =>   CDf =  0.00657    CDp =  0.00364

 Side 1  free  transition at x/c =  0.8698   68
 Side 2  free  transition at x/c =  0.1180   31

 104   rms: 0.5591E-02   max: -.7670E-01   C at   31  2
       a = -3.500      CL =  0.0992
      Cm = -0.1067     CD =  0.01020   =>   CDf =  0.00657    CDp =  0.00364

 Side 1  free  transition at x/c =  0.8698   68
 Side 2  free  transition at x/c =  0.1180   31

 105   rms: 0.5591E-02   max: -.7670E-01   C at   31  2
       a = -3.500      CL =  0.0992
      Cm = -0.1067     CD =  0.01020   =>   CDf =  0.00657    CDp =  0.00364

 Side 1  free  transition at x/c =  0.8698   68
 Side 2  free  transition at x/c =  0.1180   31

 106   rms: 0.5591E-02   max: -.7670E-01   C at   31  2
       a = -3.500      CL =  0.0992
      Cm = -0.1067     CD =  0.01020   =>   CDf =  0.00657    CDp =  0.00364

 Side 1  free  transition at x/c =  0.8698   68
 Side 2  free  transition at x/c =  0.1180   31

 107   rms: 0.5591E-02   max: -.7670E-01   C at   31  2
       a = -3.500      CL =  0.0992
      Cm = -0.1067     CD =  0.01020   =>   CDf =  0.00657    CDp =  0.00364

 Side 1  free  transition at x/c =  0.8698   68
 Side 2  free  transition at x/c =  0.1180   31

 108   rms: 0.5591E-02   max: -.7670E-01   C at   31  2
       a = -3.500      CL =  0.0992
      Cm = -0.1067     CD =  0.01020   =>   CDf =  0.00657    CDp =  0.00364

 Side 1  free  transition at x/c =  0.8698   68
 Side 2  free  transition at x/c =  0.1180   31

 109   rms: 0.5591E-02   max: -.7670E-01   C at   31  2
       a = -3.500      CL =  0.0992
      Cm = -0.1067     CD =  0.01020   =>   CDf =  0.00657    CDp =  0.00364

 Side 1  free  transition at x/c =  0.8698   68
 Side 2  free  transition at x/c =  0.1180   31

 110   rms: 0.5591E-02   max: -.7670E-01   C at   31  2
       a = -3.500      CL =  0.0992
      Cm = -0.1067     CD =  0.01020   =>   CDf =  0.00657    CDp =  0.00364

 Side 1  free  transition at x/c =  0.8698   68
 Side 2  free  transition at x/c =  0.1180   31

 111   rms: 0.5591E-02   max: -.7670E-01   C at   31  2
       a = -3.500      CL =  0.0992
      Cm = -0.1067     CD =  0.01020   =>   CDf =  0.00657    CDp =  0.00364

 Side 1  free  transition at x/c =  0.8698   68
 Side 2  free  transition at x/c =  0.1180   31

 112   rms: 0.5591E-02   max: -.7669E-01   C at   31  2
       a = -3.500      CL =  0.0992
      Cm = -0.1067     CD =  0.01020   =>   CDf =  0.00657    CDp =  0.00364

 Side 1  free  transition at x/c =  0.8698   68
 Side 2  free  transition at x/c =  0.1180   31

 113   rms: 0.5591E-02   max: -.7670E-01   C at   31  2
       a = -3.500      CL =  0.0992
      Cm = -0.1067     CD =  0.01020   =>   CDf =  0.00657    CDp =  0.00364

 Side 1  free  transition at x/c =  0.8698   68
 Side 2  free  transition at x/c =  0.1180   31

 114   rms: 0.5591E-02   max: -.7670E-01   C at   31  2
       a = -3.500      CL =  0.0992
      Cm = -0.1067     CD =  0.01020   =>   CDf =  0.00657    CDp =  0.00364

 Side 1  free  transition at x/c =  0.8698   68
 Side 2  free  transition at x/c =  0.1180   31

 115   rms: 0.5591E-02   max: -.7670E-01   C at   31  2
       a = -3.500      CL =  0.0992
      Cm = -0.1067     CD =  0.01020   =>   CDf =  0.00657    CDp =  0.00364

 Side 1  free  transition at x/c =  0.8698   68
 Side 2  free  transition at x/c =  0.1180   31

 116   rms: 0.5591E-02   max: -.7670E-01   C at   31  2
       a = -3.500      CL =  0.0992
      Cm = -0.1067     CD =  0.01020   =>   CDf =  0.00657    CDp =  0.00364

 Side 1  free  transition at x/c =  0.8698   68
 Side 2  free  transition at x/c =  0.1180   31

 117   rms: 0.5591E-02   max: -.7670E-01   C at   31  2
       a = -3.500      CL =  0.0992
      Cm = -0.1067     CD =  0.01020   =>   CDf =  0.00657    CDp =  0.00364

 Side 1  free  transition at x/c =  0.8698   68
 Side 2  free  transition at x/c =  0.1180   31

 118   rms: 0.5591E-02   max: -.7670E-01   C at   31  2
       a = -3.500      CL =  0.0992
      Cm = -0.1067     CD =  0.01020   =>   CDf =  0.00657    CDp =  0.00364

 Side 1  free  transition at x/c =  0.8698   68
 Side 2  free  transition at x/c =  0.1180   31

 119   rms: 0.5591E-02   max: -.7670E-01   C at   31  2
       a = -3.500      CL =  0.0992
      Cm = -0.1067     CD =  0.01020   =>   CDf =  0.00657    CDp =  0.00364

 Side 1  free  transition at x/c =  0.8698   68
 Side 2  free  transition at x/c =  0.1180   31

 120   rms: 0.5591E-02   max: -.7670E-01   C at   31  2
       a = -3.500      CL =  0.0992
      Cm = -0.1067     CD =  0.01020   =>   CDf =  0.00657    CDp =  0.00364

 Side 1  free  transition at x/c =  0.8698   68
 Side 2  free  transition at x/c =  0.1180   31

 121   rms: 0.5591E-02   max: -.7670E-01   C at   31  2
       a = -3.500      CL =  0.0992
      Cm = -0.1067     CD =  0.01020   =>   CDf =  0.00657    CDp =  0.00364

 Side 1  free  transition at x/c =  0.8698   68
 Side 2  free  transition at x/c =  0.1180   31

 122   rms: 0.5591E-02   max: -.7670E-01   C at   31  2
       a = -3.500      CL =  0.0992
      Cm = -0.1067     CD =  0.01020   =>   CDf =  0.00657    CDp =  0.00364

 Side 1  free  transition at x/c =  0.8698   68
 Side 2  free  transition at x/c =  0.1180   31

 123   rms: 0.5591E-02   max: -.7670E-01   C at   31  2
       a = -3.500      CL =  0.0992
      Cm = -0.1067     CD =  0.01020   =>   CDf =  0.00657    CDp =  0.00364

 Side 1  free  transition at x/c =  0.8698   68
 Side 2  free  transition at x/c =  0.1180   31

 124   rms: 0.5591E-02   max: -.7670E-01   C at   31  2
       a = -3.500      CL =  0.0992
      Cm = -0.1067     CD =  0.01020   =>   CDf =  0.00657    CDp =  0.00364

 Side 1  free  transition at x/c =  0.8698   68
 Side 2  free  transition at x/c =  0.1180   31

 125   rms: 0.5591E-02   max: -.7670E-01   C at   31  2
       a = -3.500      CL =  0.0992
      Cm = -0.1067     CD =  0.01020   =>   CDf =  0.00657    CDp =  0.00364

 Side 1  free  transition at x/c =  0.8698   68
 Side 2  free  transition at x/c =  0.1180   31

 126   rms: 0.5591E-02   max: -.7670E-01   C at   31  2
       a = -3.500      CL =  0.0992
      Cm = -0.1067     CD =  0.01020   =>   CDf =  0.00657    CDp =  0.00364

 Side 1  free  transition at x/c =  0.8698   68
 Side 2  free  transition at x/c =  0.1180   31

 127   rms: 0.5591E-02   max: -.7670E-01   C at   31  2
       a = -3.500      CL =  0.0992
      Cm = -0.1067     CD =  0.01020   =>   CDf =  0.00657    CDp =  0.00364

 Side 1  free  transition at x/c =  0.8698   68
 Side 2  free  transition at x/c =  0.1180   31

 128   rms: 0.5591E-02   max: -.7670E-01   C at   31  2
       a = -3.500      CL =  0.0992
      Cm = -0.1067     CD =  0.01020   =>   CDf =  0.00657    CDp =  0.00364

 Side 1  free  transition at x/c =  0.8698   68
 Side 2  free  transition at x/c =  0.1180   31

 129   rms: 0.5591E-02   max: -.7670E-01   C at   31  2
       a = -3.500      CL =  0.0992
      Cm = -0.1067     CD =  0.01020   =>   CDf =  0.00657    CDp =  0.00364

 Side 1  free  transition at x/c =  0.8698   68
 Side 2  free  transition at x/c =  0.1180   31

 130   rms: 0.5591E-02   max: -.7670E-01   C at   31  2
       a = -3.500      CL =  0.0992
      Cm = -0.1067     CD =  0.01020   =>   CDf =  0.00657    CDp =  0.00364

 Side 1  free  transition at x/c =  0.8698   68
 Side 2  free  transition at x/c =  0.1180   31

 131   rms: 0.5591E-02   max: -.7670E-01   C at   31  2
       a = -3.500      CL =  0.0992
      Cm = -0.1067     CD =  0.01020   =>   CDf =  0.00657    CDp =  0.00364

 Side 1  free  transition at x/c =  0.8698   68
 Side 2  free  transition at x/c =  0.1180   31

 132   rms: 0.5591E-02   max: -.7670E-01   C at   31  2
       a = -3.500      CL =  0.0992
      Cm = -0.1067     CD =  0.01020   =>   CDf =  0.00657    CDp =  0.00364

 Side 1  free  transition at x/c =  0.8698   68
 Side 2  free  transition at x/c =  0.1180   31

 133   rms: 0.5591E-02   max: -.7670E-01   C at   31  2
       a = -3.500      CL =  0.0992
      Cm = -0.1067     CD =  0.01020   =>   CDf =  0.00657    CDp =  0.00364

 Side 1  free  transition at x/c =  0.8698   68
 Side 2  free  transition at x/c =  0.1180   31

 134   rms: 0.5591E-02   max: -.7670E-01   C at   31  2
       a = -3.500      CL =  0.0992
      Cm = -0.1067     CD =  0.01020   =>   CDf =  0.00657    CDp =  0.00364

 Side 1  free  transition at x/c =  0.8698   68
 Side 2  free  transition at x/c =  0.1180   31

 135   rms: 0.5591E-02   max: -.7670E-01   C at   31  2
       a = -3.500      CL =  0.0992
      Cm = -0.1067     CD =  0.01020   =>   CDf =  0.00657    CDp =  0.00364

 Side 1  free  transition at x/c =  0.8698   68
 Side 2  free  transition at x/c =  0.1180   31

 136   rms: 0.5591E-02   max: -.7670E-01   C at   31  2
       a = -3.500      CL =  0.0992
      Cm = -0.1067     CD =  0.01020   =>   CDf =  0.00657    CDp =  0.00364

 Side 1  free  transition at x/c =  0.8698   68
 Side 2  free  transition at x/c =  0.1180   31

 137   rms: 0.5591E-02   max: -.7670E-01   C at   31  2
       a = -3.500      CL =  0.0992
      Cm = -0.1067     CD =  0.01020   =>   CDf =  0.00657    CDp =  0.00364

 Side 1  free  transition at x/c =  0.8698   68
 Side 2  free  transition at x/c =  0.1180   31

 138   rms: 0.5591E-02   max: -.7670E-01   C at   31  2
       a = -3.500      CL =  0.0992
      Cm = -0.1067     CD =  0.01020   =>   CDf =  0.00657    CDp =  0.00364

 Side 1  free  transition at x/c =  0.8698   68
 Side 2  free  transition at x/c =  0.1180   31

 139   rms: 0.5591E-02   max: -.7670E-01   C at   31  2
       a = -3.500      CL =  0.0992
      Cm = -0.1067     CD =  0.01020   =>   CDf =  0.00657    CDp =  0.00364

 Side 1  free  transition at x/c =  0.8698   68
 Side 2  free  transition at x/c =  0.1180   31

 140   rms: 0.5592E-02   max: -.7670E-01   C at   31  2
       a = -3.500      CL =  0.0992
      Cm = -0.1067     CD =  0.01020   =>   CDf =  0.00657    CDp =  0.00364

 Side 1  free  transition at x/c =  0.8698   68
 Side 2  free  transition at x/c =  0.1180   31

 141   rms: 0.5591E-02   max: -.7670E-01   C at   31  2
       a = -3.500      CL =  0.0992
      Cm = -0.1067     CD =  0.01020   =>   CDf =  0.00657    CDp =  0.00364

 Side 1  free  transition at x/c =  0.8698   68
 Side 2  free  transition at x/c =  0.1180   31

 142   rms: 0.5591E-02   max: -.7670E-01   C at   31  2
       a = -3.500      CL =  0.0992
      Cm = -0.1067     CD =  0.01020   =>   CDf =  0.00657    CDp =  0.00364

 Side 1  free  transition at x/c =  0.8698   68
 Side 2  free  transition at x/c =  0.1180   31

 143   rms: 0.5591E-02   max: -.7670E-01   C at   31  2
       a = -3.500      CL =  0.0992
      Cm = -0.1067     CD =  0.01020   =>   CDf =  0.00657    CDp =  0.00364

 Side 1  free  transition at x/c =  0.8698   68
 Side 2  free  transition at x/c =  0.1180   31

 144   rms: 0.5591E-02   max: -.7670E-01   C at   31  2
       a = -3.500      CL =  0.0992
      Cm = -0.1067     CD =  0.01020   =>   CDf =  0.00657    CDp =  0.00364

 Side 1  free  transition at x/c =  0.8698   68
 Side 2  free  transition at x/c =  0.1180   31

 145   rms: 0.5591E-02   max: -.7670E-01   C at   31  2
       a = -3.500      CL =  0.0992
      Cm = -0.1067     CD =  0.01020   =>   CDf =  0.00657    CDp =  0.00364

 Side 1  free  transition at x/c =  0.8698   68
 Side 2  free  transition at x/c =  0.1180   31

 146   rms: 0.5591E-02   max: -.7670E-01   C at   31  2
       a = -3.500      CL =  0.0992
      Cm = -0.1067     CD =  0.01020   =>   CDf =  0.00657    CDp =  0.00364

 Side 1  free  transition at x/c =  0.8698   68
 Side 2  free  transition at x/c =  0.1180   31

 147   rms: 0.5591E-02   max: -.7670E-01   C at   31  2
       a = -3.500      CL =  0.0992
      Cm = -0.1067     CD =  0.01020   =>   CDf =  0.00657    CDp =  0.00364

 Side 1  free  transition at x/c =  0.8698   68
 Side 2  free  transition at x/c =  0.1180   31

 148   rms: 0.5591E-02   max: -.7670E-01   C at   31  2
       a = -3.500      CL =  0.0992
      Cm = -0.1067     CD =  0.01020   =>   CDf =  0.00657    CDp =  0.00364

 Side 1  free  transition at x/c =  0.8698   68
 Side 2  free  transition at x/c =  0.1180   31

 149   rms: 0.5591E-02   max: -.7670E-01   C at   31  2
       a = -3.500      CL =  0.0992
      Cm = -0.1067     CD =  0.01020   =>   CDf =  0.00657    CDp =  0.00364

 Side 1  free  transition at x/c =  0.8698   68
 Side 2  free  transition at x/c =  0.1180   31

 150   rms: 0.5591E-02   max: -.7670E-01   C at   31  2
       a = -3.500      CL =  0.0992
      Cm = -0.1067     CD =  0.01020   =>   CDf =  0.00657    CDp =  0.00364

 Side 1  free  transition at x/c =  0.8698   68
 Side 2  free  transition at x/c =  0.1180   31

 151   rms: 0.5591E-02   max: -.7670E-01   C at   31  2
       a = -3.500      CL =  0.0992
      Cm = -0.1067     CD =  0.01020   =>   CDf =  0.00657    CDp =  0.00364

 Side 1  free  transition at x/c =  0.8698   68
 Side 2  free  transition at x/c =  0.1180   31

 152   rms: 0.5591E-02   max: -.7670E-01   C at   31  2
       a = -3.500      CL =  0.0992
      Cm = -0.1067     CD =  0.01020   =>   CDf =  0.00657    CDp =  0.00364

 Side 1  free  transition at x/c =  0.8698   68
 Side 2  free  transition at x/c =  0.1180   31

 153   rms: 0.5591E-02   max: -.7670E-01   C at   31  2
       a = -3.500      CL =  0.0992
      Cm = -0.1067     CD =  0.01020   =>   CDf =  0.00657    CDp =  0.00364

 Side 1  free  transition at x/c =  0.8698   68
 Side 2  free  transition at x/c =  0.1180   31

 154   rms: 0.5591E-02   max: -.7670E-01   C at   31  2
       a = -3.500      CL =  0.0992
      Cm = -0.1067     CD =  0.01020   =>   CDf =  0.00657    CDp =  0.00364

 Side 1  free  transition at x/c =  0.8698   68
 Side 2  free  transition at x/c =  0.1180   31

 155   rms: 0.5591E-02   max: -.7670E-01   C at   31  2
       a = -3.500      CL =  0.0992
      Cm = -0.1067     CD =  0.01020   =>   CDf =  0.00657    CDp =  0.00364
 VISCAL:  Convergence failed
 Calculating wake trajectory ...
 Calculating source influence matrix ...

 Solving BL system ...

 Side 1  free  transition at x/c =  0.8698   68
 Side 2  free  transition at x/c =  0.1180   31

   1   rms: 0.9757E-01   max: 0.8212E+00   C at   31  2   RLX: 0.810
       a = -3.000      CL =  0.1470
      Cm = -0.1067     CD =  0.01010   =>   CDf =  0.00658    CDp =  0.00352

 MRCHDU: Convergence failed at  32  side 2    Res =  0.2369E+01
 MRCHDU: Convergence failed at  33  side 2    Res =  0.1021E+02
 MRCHDU: Convergence failed at  34  side 2    Res =  0.4458E+01
 MRCHDU: Convergence failed at  35  side 2    Res =  0.5358E+01
 MRCHDU: Convergence failed at  36  side 2    Res =  0.7279E+01
 MRCHDU: Convergence failed at  37  side 2    Res =  0.1049E+02
 MRCHDU: Convergence failed at  38  side 2    Res =  0.1688E+02
 MRCHDU: Convergence failed at  39  side 2    Res =  0.3030E+02
 MRCHDU: Convergence failed at  40  side 2    Res =  0.5464E+02
 MRCHDU: Convergence failed at  41  side 2    Res =  0.2354E+03
 MRCHDU: Convergence failed at  42  side 2    Res =  0.1161E+03
 MRCHDU: Convergence failed at  43  side 2    Res =  0.4791E+02
 MRCHDU: Convergence failed at  44  side 2    Res =  0.3272E+02
 MRCHDU: Convergence failed at  45  side 2    Res =  0.2486E+02
 MRCHDU: Convergence failed at  46  side 2    Res =  0.2125E+02
 MRCHDU: Convergence failed at  47  side 2    Res =  0.1903E+02
 MRCHDU: Convergence failed at  48  side 2    Res =  0.1765E+02
 MRCHDU: Convergence failed at  49  side 2    Res =  0.1634E+02
 MRCHDU: Convergence failed at  50  side 2    Res =  0.1564E+02
 MRCHDU: Convergence failed at  51  side 2    Res =  0.1469E+02
 MRCHDU: Convergence failed at  52  side 2    Res =  0.1418E+02
 MRCHDU: Convergence failed at  53  side 2    Res =  0.1363E+02
 MRCHDU: Convergence failed at  54  side 2    Res =  0.1306E+02
 MRCHDU: Convergence failed at  55  side 2    Res =  0.1251E+02
 MRCHDU: Convergence failed at  56  side 2    Res =  0.1158E+02
 MRCHDU: Convergence failed at  57  side 2    Res =  0.1117E+02
 MRCHDU: Convergence failed at  58  side 2    Res =  0.1082E+02
 MRCHDU: Convergence failed at  59  side 2    Res =  0.1037E+02
 MRCHDU: Convergence failed at  60  side 2    Res =  0.1001E+02
 MRCHDU: Convergence failed at  61  side 2    Res =  0.9799E+01
 MRCHDU: Convergence failed at  62  side 2    Res =  0.9618E+01
 MRCHDU: Convergence failed at  63  side 2    Res =  0.9464E+01
 MRCHDU: Convergence failed at  64  side 2    Res =  0.9196E+01
 MRCHDU: Convergence failed at  65  side 2    Res =  0.9083E+01
 MRCHDU: Convergence failed at  66  side 2    Res =  0.8986E+01
 MRCHDU: Convergence failed at  67  side 2    Res =  0.8894E+01
 MRCHDU: Convergence failed at  68  side 2    Res =  0.8815E+01
 MRCHDU: Convergence failed at  69  side 2    Res =  0.7365E+01
 MRCHDU: Convergence failed at  70  side 2    Res =  0.7595E+01
 MRCHDU: Convergence failed at  71  side 2    Res =  0.7752E+01
 MRCHDU: Convergence failed at  72  side 2    Res =  0.7913E+01
 MRCHDU: Convergence failed at  73  side 2    Res =  0.8089E+01
 MRCHDU: Convergence failed at  74  side 2    Res =  0.8293E+01
 MRCHDU: Convergence failed at  75  side 2    Res =  0.8598E+01
 MRCHDU: Convergence failed at  76  side 2    Res =  0.8943E+01
 MRCHDU: Convergence failed at  77  side 2    Res =  0.9344E+01
 MRCHDU: Convergence failed at  78  side 2    Res =  0.9888E+01
 MRCHDU: Convergence failed at  79  side 2    Res =  0.1052E+02
 MRCHDU: Convergence failed at  80  side 2    Res =  0.1128E+02
 MRCHDU: Convergence failed at  81  side 2    Res =  0.1215E+02
 MRCHDU: Convergence failed at  82  side 2    Res =  0.1324E+02
 MRCHDU: Convergence failed at  83  side 2    Res =  0.1467E+02
 MRCHDU: Convergence failed at  84  side 2    Res =  0.1486E+02
 Side 1  free  transition at x/c =  0.8578   68
 Side 2  free  transition at x/c =  0.1382   32

   2   rms: 0.3682E+00   max: 0.4255E+00   D at   90  2   RLX: 0.695
       a = -3.000      CL =  0.0324
      Cm = -0.0594     CD =  0.00670   =>   CDf =  0.00293    CDp =  0.00377

 Side 1  free  transition at x/c =  0.8548   68
 Side 2  free  transition at x/c =  0.1496   33

   3   rms: 0.1067E+00   max: 0.2506E+00   D at   86  2
       a = -3.000      CL =  0.1521
      Cm = -0.1058     CD =  0.00956   =>   CDf =  0.00719    CDp =  0.00236

 Side 1  free  transition at x/c =  0.8509   67
 Side 2  free  transition at x/c =  0.1447   32

   4   rms: 0.9761E-02   max: -.1109E+00   D at   32  2
       a = -3.000      CL =  0.1549
      Cm = -0.1064     CD =  0.00973   =>   CDf =  0.00653    CDp =  0.00320

 Side 1  free  transition at x/c =  0.8516   68
 Side 2  free  transition at x/c =  0.1466   32

   5   rms: 0.2847E-02   max: -.3663E-01   D at   67  1
       a = -3.000      CL =  0.1547
      Cm = -0.1064     CD =  0.00974   =>   CDf =  0.00653    CDp =  0.00321

 Side 1  free  transition at x/c =  0.8516   68
 Side 2  free  transition at x/c =  0.1464   32

   6   rms: 0.2040E-03   max: -.2239E-02   D at   70  1
       a = -3.000      CL =  0.1547
      Cm = -0.1064     CD =  0.00974   =>   CDf =  0.00651    CDp =  0.00322

 Side 1  free  transition at x/c =  0.8515   68
 Side 2  free  transition at x/c =  0.1464   32

   7   rms: 0.1546E-05   max: -.6876E-05   D at   70  1
       a = -3.000      CL =  0.1547
      Cm = -0.1064     CD =  0.00974   =>   CDf =  0.00652    CDp =  0.00322
 plradd ia,ip,cpol            2           0  1.67421233E-02

 Point added to stored polar  1
 Point written to save file  naca4412_Re400k.base.pol                        
 Dump file unspecified or not available
 Calculating wake trajectory ...
 Calculating source influence matrix ...

 Solving BL system ...

 Side 1  free  transition at x/c =  0.8515   68
 Side 2  free  transition at x/c =  0.1464   32

   1   rms: 0.9661E-01   max: -.5128E+00   T at   32  2   RLX: 0.975
       a = -2.500      CL =  0.2119
      Cm = -0.1065     CD =  0.00950   =>   CDf =  0.00653    CDp =  0.00297

 MRCHDU: Convergence failed at  34  side 2    Res =  0.9867E+01
 MRCHDU: Convergence failed at  35  side 2    Res =  0.3233E+01
 MRCHDU: Convergence failed at  36  side 2    Res =  0.2765E+02
 MRCHDU: Convergence failed at  37  side 2    Res =  0.1067E+03
 MRCHDU: Convergence failed at  38  side 2    Res =  0.4218E+03
 MRCHDU: Convergence failed at  39  side 2    Res =  0.5012E+02
 MRCHDU: Convergence failed at  40  side 2    Res =  0.2076E+02
 MRCHDU: Convergence failed at  41  side 2    Res =  0.1331E+02
 MRCHDU: Convergence failed at  42  side 2    Res =  0.1002E+02
 MRCHDU: Convergence failed at  43  side 2    Res =  0.8347E+01
 MRCHDU: Convergence failed at  44  side 2    Res =  0.7090E+01
 MRCHDU: Convergence failed at  45  side 2    Res =  0.6605E+01
 MRCHDU: Convergence failed at  46  side 2    Res =  0.6454E+01
 MRCHDU: Convergence failed at  47  side 2    Res =  0.6247E+01
 MRCHDU: Convergence failed at  48  side 2    Res =  0.6091E+01
 MRCHDU: Convergence failed at  49  side 2    Res =  0.5969E+01
 MRCHDU: Convergence failed at  50  side 2    Res =  0.5866E+01
 MRCHDU: Convergence failed at  51  side 2    Res =  0.5782E+01
 MRCHDU: Convergence failed at  52  side 2    Res =  0.5705E+01
 MRCHDU: Convergence failed at  53  side 2    Res =  0.5643E+01
 MRCHDU: Convergence failed at  54  side 2    Res =  0.5591E+01
 MRCHDU: Convergence failed at  55  side 2    Res =  0.5555E+01
 MRCHDU: Convergence failed at  56  side 2    Res =  0.5549E+01
 MRCHDU: Convergence failed at  57  side 2    Res =  0.5540E+01
 MRCHDU: Convergence failed at  58  side 2    Res =  0.5543E+01
 MRCHDU: Convergence failed at  59  side 2    Res =  0.5557E+01
 MRCHDU: Convergence failed at  60  side 2    Res =  0.5593E+01
 MRCHDU: Convergence failed at  61  side 2    Res =  0.5617E+01
 MRCHDU: Convergence failed at  62  side 2    Res =  0.5646E+01
 MRCHDU: Convergence failed at  63  side 2    Res =  0.5675E+01
 MRCHDU: Convergence failed at  64  side 2    Res =  0.5708E+01
 MRCHDU: Convergence failed at  65  side 2    Res =  0.5745E+01
 MRCHDU: Convergence failed at  66  side 2    Res =  0.5778E+01
 MRCHDU: Convergence failed at  67  side 2    Res =  0.5799E+01
 MRCHDU: Convergence failed at  68  side 2    Res =  0.5828E+01
 MRCHDU: Convergence failed at  69  side 2    Res =  0.5856E+01
 MRCHDU: Convergence failed at  70  side 2    Res =  0.5879E+01
 MRCHDU: Convergence failed at  71  side 2    Res =  0.5899E+01
 MRCHDU: Convergence failed at  72  side 2    Res =  0.5911E+01
 MRCHDU: Convergence failed at  73  side 2    Res =  0.5914E+01
 MRCHDU: Convergence failed at  74  side 2    Res =  0.5891E+01
 MRCHDU: Convergence failed at  75  side 2    Res =  0.5875E+01
 MRCHDU: Convergence failed at  76  side 2    Res =  0.5835E+01
 MRCHDU: Convergence failed at  77  side 2    Res =  0.5772E+01
 MRCHDU: Convergence failed at  78  side 2    Res =  0.5602E+01
 MRCHDU: Convergence failed at  79  side 2    Res =  0.6094E+01
 MRCHDU: Convergence failed at  80  side 2    Res =  0.6657E+01
 MRCHDU: Convergence failed at  81  side 2    Res =  0.7306E+01
 MRCHDU: Convergence failed at  82  side 2    Res =  0.8081E+01
 MRCHDU: Convergence failed at  83  side 2    Res =  0.8348E+01
 Side 1  free  transition at x/c =  0.8356   68
 Side 2  free  transition at x/c =  0.1880   34

   2   rms: 0.2760E+00   max: 0.3013E+00   D at   91  2   RLX: 0.740
       a = -2.500      CL =  0.1457
      Cm = -0.0784     CD =  0.00681   =>   CDf =  0.00316    CDp =  0.00364

 Side 1  free  transition at x/c =  0.8346   67
 Side 2  free  transition at x/c =  0.2018   35

   3   rms: 0.7385E-01   max: 0.3554E+00   C at   35  2
       a = -2.500      CL =  0.2079
      Cm = -0.1056     CD =  0.00928   =>   CDf =  0.00676    CDp =  0.00252

 Side 1  free  transition at x/c =  0.8298   67
 Side 2  free  transition at x/c =  0.1898   34

   4   rms: 0.4628E-02   max: -.4843E-01   D at   34  2
       a = -2.500      CL =  0.2092
      Cm = -0.1059     CD =  0.00935   =>   CDf =  0.00641    CDp =  0.00294

 Side 1  free  transition at x/c =  0.8303   67
 Side 2  free  transition at x/c =  0.1895   34

   5   rms: 0.9676E-04   max: 0.1723E-02   C at   34  2
       a = -2.500      CL =  0.2092
      Cm = -0.1059     CD =  0.00936   =>   CDf =  0.00641    CDp =  0.00295
 plradd ia,ip,cpol            3           0  1.67421233E-02

 Point added to stored polar  1
 Point written to save file  naca4412_Re400k.base.pol                        
 Dump file unspecified or not available
 Calculating wake trajectory ...
 Calculating source influence matrix ...

 Solving BL system ...

 Side 1  free  transition at x/c =  0.8303   67
 Side 2  free  transition at x/c =  0.1895   34

   1   rms: 0.1137E+00   max: -.1144E+01   C at   34  2   RLX: 0.437
       a = -2.000      CL =  0.2326
      Cm = -0.1056     CD =  0.00922   =>   CDf =  0.00641    CDp =  0.00280

 Side 1  free  transition at x/c =  0.8189   66
 Side 2  free  transition at x/c =  0.2117   35

   2   rms: 0.5941E-01   max: -.4758E+00   C at   35  2
       a = -2.000      CL =  0.2636
      Cm = -0.1054     CD =  0.00912   =>   CDf =  0.00643    CDp =  0.00269

 Side 1  free  transition at x/c =  0.8053   67
 Side 2  free  transition at x/c =  0.2425   36

   3   rms: 0.1740E-01   max: -.1850E+00   D at   36  2
       a = -2.000      CL =  0.2643
      Cm = -0.1055     CD =  0.00909   =>   CDf =  0.00642    CDp =  0.00267

 Side 1  free  transition at x/c =  0.8082   67
 Side 2  free  transition at x/c =  0.2508   37

   4   rms: 0.2746E-02   max: -.3643E-01   D at   38  2
       a = -2.000      CL =  0.2642
      Cm = -0.1055     CD =  0.00908   =>   CDf =  0.00631    CDp =  0.00277

 Side 1  free  transition at x/c =  0.8080   67
 Side 2  free  transition at x/c =  0.2492   37

   5   rms: 0.1308E-03   max: -.2147E-02   D at   38  2
       a = -2.000      CL =  0.2642
      Cm = -0.1055     CD =  0.00908   =>   CDf =  0.00632    CDp =  0.00276

 Side 1  free  transition at x/c =  0.8080   67
 Side 2  free  transition at x/c =  0.2491   37

   6   rms: 0.1395E-05   max: -.1489E-04   D at    4  1
       a = -2.000      CL =  0.2642
      Cm = -0.1055     CD =  0.00908   =>   CDf =  0.00632    CDp =  0.00276
 plradd ia,ip,cpol            4           0  1.67421233E-02

 Point added to stored polar  1
 Point written to save file  naca4412_Re400k.base.pol                        
 Dump file unspecified or not available
 Calculating wake trajectory ...
 Calculating source influence matrix ...

 Solving BL system ...

 Side 1  free  transition at x/c =  0.8080   67
 Side 2  free  transition at x/c =  0.2491   37

   1   rms: 0.1258E+00   max: -.1053E+01   C at   37  2   RLX: 0.475
       a = -1.500      CL =  0.2901
      Cm = -0.1053     CD =  0.00888   =>   CDf =  0.00632    CDp =  0.00256

 Side 1  free  transition at x/c =  0.7982   66
 Side 2  free  transition at x/c =  0.2645   38

   2   rms: 0.9409E-01   max: -.7237E+00   C at   38  2   RLX: 0.691
       a = -1.500      CL =  0.3089
      Cm = -0.1051     CD =  0.00865   =>   CDf =  0.00645    CDp =  0.00220

 Side 1  free  transition at x/c =  0.7868   65
 Side 2  free  transition at x/c =  0.2931   39

   3   rms: 0.2791E-01   max: -.2518E+00   D at   39  2
       a = -1.500      CL =  0.3192
      Cm = -0.1051     CD =  0.00887   =>   CDf =  0.00638    CDp =  0.00249

 Side 1  free  transition at x/c =  0.7852   65
 Side 2  free  transition at x/c =  0.3085   40

   4   rms: 0.6405E-02   max: 0.1142E+00   C at   40  2
       a = -1.500      CL =  0.3191
      Cm = -0.1051     CD =  0.00883   =>   CDf =  0.00623    CDp =  0.00260

 Side 1  free  transition at x/c =  0.7851   65
 Side 2  free  transition at x/c =  0.3058   40

   5   rms: 0.5659E-03   max: 0.1010E-01   C at   40  2
       a = -1.500      CL =  0.3190
      Cm = -0.1051     CD =  0.00883   =>   CDf =  0.00624    CDp =  0.00259

 Side 1  free  transition at x/c =  0.7851   65
 Side 2  free  transition at x/c =  0.3055   40

   6   rms: 0.2177E-05   max: -.2074E-04   D at    4  2
       a = -1.500      CL =  0.3190
      Cm = -0.1051     CD =  0.00883   =>   CDf =  0.00624    CDp =  0.00259
 plradd ia,ip,cpol            5           0  1.67421233E-02

 Point added to stored polar  1
 Point written to save file  naca4412_Re400k.base.pol                        
 Dump file unspecified or not available
 Calculating wake trajectory ...
 Calculating source influence matrix ...

 Solving BL system ...

 Side 1  free  transition at x/c =  0.7851   65
 Side 2  free  transition at x/c =  0.3055   40

   1   rms: 0.1167E+00   max: -.1438E+01   C at   40  2   RLX: 0.348
       a = -1.000      CL =  0.3376
      Cm = -0.1049     CD =  0.00872   =>   CDf =  0.00623    CDp =  0.00249

 Side 1  free  transition at x/c =  0.7744   66
 Side 2  free  transition at x/c =  0.3233   40

   2   rms: 0.8485E-01   max: -.1107E+01   C at   40  2   RLX: 0.451
       a = -1.000      CL =  0.3539
      Cm = -0.1047     CD =  0.00872   =>   CDf =  0.00626    CDp =  0.00246

 Side 1  free  transition at x/c =  0.7687   65
 Side 2  free  transition at x/c =  0.3398   41

   3   rms: 0.6179E-01   max: -.9674E+00   C at   41  2   RLX: 0.517
       a = -1.000      CL =  0.3641
      Cm = -0.1047     CD =  0.00864   =>   CDf =  0.00624    CDp =  0.00240

 Side 1  free  transition at x/c =  0.7635   65
 Side 2  free  transition at x/c =  0.3536   42

   4   rms: 0.4880E-01   max: -.8096E+00   C at   42  2   RLX: 0.618
       a = -1.000      CL =  0.3698
      Cm = -0.1047     CD =  0.00858   =>   CDf =  0.00621    CDp =  0.00238

 Side 1  free  transition at x/c =  0.7612   65
 Side 2  free  transition at x/c =  0.3674   43

   5   rms: 0.3528E-01   max: -.5825E+00   C at   43  2   RLX: 0.858
       a = -1.000      CL =  0.3725
      Cm = -0.1047     CD =  0.00852   =>   CDf =  0.00617    CDp =  0.00235

 Side 1  free  transition at x/c =  0.7601   65
 Side 2  free  transition at x/c =  0.3832   44

   6   rms: 0.1875E-01   max: -.3241E+00   C at   44  2
       a = -1.000      CL =  0.3729
      Cm = -0.1046     CD =  0.00851   =>   CDf =  0.00611    CDp =  0.00240

 Side 1  free  transition at x/c =  0.7600   65
 Side 2  free  transition at x/c =  0.3938   44

   7   rms: 0.1047E-02   max: 0.1791E-01   C at   44  2
       a = -1.000      CL =  0.3730
      Cm = -0.1046     CD =  0.00852   =>   CDf =  0.00604    CDp =  0.00248

 Side 1  free  transition at x/c =  0.7600   65
 Side 2  free  transition at x/c =  0.3933   44

   8   rms: 0.4000E-05   max: -.7904E-04   D at   46  2
       a = -1.000      CL =  0.3730
      Cm = -0.1046     CD =  0.00852   =>   CDf =  0.00604    CDp =  0.00248
 plradd ia,ip,cpol            6           0  0.28723657    

 Point added to stored polar  1
 Point written to save file  naca4412_Re400k.base.pol                        
 Dump file unspecified or not available
 Calculating wake trajectory ...
 Calculating source influence matrix ...

 Solving BL system ...

 Side 1  free  transition at x/c =  0.7600   65
 Side 2  free  transition at x/c =  0.3933   44

   1   rms: 0.1761E+00   max: -.3054E+01   C at   44  2   RLX: 0.164
       a = -0.500      CL =  0.3817
      Cm = -0.1046     CD =  0.00846   =>   CDf =  0.00604    CDp =  0.00242

 Side 1  free  transition at x/c =  0.7559   65
 Side 2  free  transition at x/c =  0.4117   45

   2   rms: 0.1626E+00   max: -.2897E+01   C at   45  2   RLX: 0.173
       a = -0.500      CL =  0.3897
      Cm = -0.1045     CD =  0.00843   =>   CDf =  0.00602    CDp =  0.00241

 Side 1  free  transition at x/c =  0.7530   64
 Side 2  free  transition at x/c =  0.4300   46

   3   rms: 0.1587E+00   max: -.2942E+01   C at   46  2   RLX: 0.170
       a = -0.500      CL =  0.3960
      Cm = -0.1045     CD =  0.00836   =>   CDf =  0.00595    CDp =  0.00241

 Side 1  free  transition at x/c =  0.7494   65
 Side 2  free  transition at x/c =  0.4467   46

   4   rms: 0.1620E+00   max: -.3024E+01   C at   46  2   RLX: 0.165
       a = -0.500      CL =  0.4010
      Cm = -0.1044     CD =  0.00832   =>   CDf =  0.00592    CDp =  0.00239

 Side 1  free  transition at x/c =  0.7467   65
 Side 2  free  transition at x/c =  0.4621   47

   5   rms: 0.1607E+00   max: -.3063E+01   C at   47  2   RLX: 0.163
       a = -0.500      CL =  0.4051
      Cm = -0.1044     CD =  0.00827   =>   CDf =  0.00587    CDp =  0.00239

 Side 1  free  transition at x/c =  0.7446   65
 Side 2  free  transition at x/c =  0.4772   48

   6   rms: 0.1601E+00   max: -.3065E+01   C at   48  2   RLX: 0.163
       a = -0.500      CL =  0.4085
      Cm = -0.1043     CD =  0.00822   =>   CDf =  0.00583    CDp =  0.00239

 Side 1  free  transition at x/c =  0.7429   65
 Side 2  free  transition at x/c =  0.4925   49

   7   rms: 0.1542E+00   max: -.2956E+01   C at   49  2   RLX: 0.169
       a = -0.500      CL =  0.4114
      Cm = -0.1043     CD =  0.00818   =>   CDf =  0.00579    CDp =  0.00239

 Side 1  free  transition at x/c =  0.7415   65
 Side 2  free  transition at x/c =  0.5089   50

   8   rms: 0.1442E+00   max: -.2760E+01   C at   50  2   RLX: 0.181
       a = -0.500      CL =  0.4139
      Cm = -0.1043     CD =  0.00813   =>   CDf =  0.00574    CDp =  0.00240

 Side 1  free  transition at x/c =  0.7404   65
 Side 2  free  transition at x/c =  0.5269   51

   9   rms: 0.1265E+00   max: -.2406E+01   C at   51  2   RLX: 0.208
       a = -0.500      CL =  0.4162
      Cm = -0.1042     CD =  0.00809   =>   CDf =  0.00568    CDp =  0.00240

 Side 1  free  transition at x/c =  0.7394   65
 Side 2  free  transition at x/c =  0.5472   52

  10   rms: 0.9729E-01   max: -.1832E+01   C at   52  2   RLX: 0.273
       a = -0.500      CL =  0.4184
      Cm = -0.1041     CD =  0.00804   =>   CDf =  0.00563    CDp =  0.00241

 Side 1  free  transition at x/c =  0.7384   65
 Side 2  free  transition at x/c =  0.5706   54

  11   rms: 0.7170E-01   max: -.1353E+01   C at   54  2   RLX: 0.370
       a = -0.500      CL =  0.4204
      Cm = -0.1039     CD =  0.00797   =>   CDf =  0.00557    CDp =  0.00240

 Side 1  free  transition at x/c =  0.7374   64
 Side 2  free  transition at x/c =  0.5876   55

  12   rms: 0.4705E-01   max: -.8869E+00   C at   55  2   RLX: 0.564
       a = -0.500      CL =  0.4224
      Cm = -0.1038     CD =  0.00791   =>   CDf =  0.00552    CDp =  0.00239

 Side 1  free  transition at x/c =  0.7360   64
 Side 2  free  transition at x/c =  0.6053   56

  13   rms: 0.2736E-01   max: -.5172E+00   C at   56  2   RLX: 0.967
       a = -0.500      CL =  0.4235
      Cm = -0.1036     CD =  0.00786   =>   CDf =  0.00546    CDp =  0.00240

 Side 1  free  transition at x/c =  0.7350   64
 Side 2  free  transition at x/c =  0.6233   57

  14   rms: 0.7103E-02   max: -.1352E+00   C at   57  2
       a = -0.500      CL =  0.4236
      Cm = -0.1036     CD =  0.00787   =>   CDf =  0.00540    CDp =  0.00247

 Side 1  free  transition at x/c =  0.7350   64
 Side 2  free  transition at x/c =  0.6282   57

  15   rms: 0.2397E-03   max: -.4559E-02   C at   57  2
       a = -0.500      CL =  0.4236
      Cm = -0.1036     CD =  0.00787   =>   CDf =  0.00538    CDp =  0.00249

 Side 1  free  transition at x/c =  0.7350   64
 Side 2  free  transition at x/c =  0.6284   57

  16   rms: 0.1305E-05   max: -.2019E-04   C at   57  2
       a = -0.500      CL =  0.4236
      Cm = -0.1036     CD =  0.00787   =>   CDf =  0.00538    CDp =  0.00249
 plradd ia,ip,cpol            7           0  0.27190202    

 Point added to stored polar  1
 Point written to save file  naca4412_Re400k.base.pol                        
 Dump file unspecified or not available
 Calculating wake trajectory ...
 Calculating source influence matrix ...

 Solving BL system ...

 Side 1  free  transition at x/c =  0.7350   64
 Side 2  free  transition at x/c =  0.6284   57

   1   rms: 0.3345E+00   max: -.6137E+01   C at   57  2   RLX: 0.081
       a =  0.000      CL =  0.4274
      Cm = -0.1034     CD =  0.00781   =>   CDf =  0.00538    CDp =  0.00243

 Side 1  free  transition at x/c =  0.7326   64
 Side 2  free  transition at x/c =  0.6505   58

   2   rms: 0.2622E+00   max: -.4695E+01   C at   58  2   RLX: 0.107
       a =  0.000      CL =  0.4322
      Cm = -0.1033     CD =  0.00776   =>   CDf =  0.00531    CDp =  0.00245

 Side 1  free  transition at x/c =  0.7299   64
 Side 2  free  transition at x/c =  0.6830   60

   3   rms: 0.2260E+00   max: -.4012E+01   C at   60  2   RLX: 0.125
       a =  0.000      CL =  0.4367
      Cm = -0.1029     CD =  0.00767   =>   CDf =  0.00521    CDp =  0.00247

 Side 1  free  transition at x/c =  0.7272   64
 Side 2  free  transition at x/c =  0.7175   62

   4   rms: 0.1535E+00   max: -.2625E+01   C at   62  2   RLX: 0.190
       a =  0.000      CL =  0.4428
      Cm = -0.1024     CD =  0.00760   =>   CDf =  0.00511    CDp =  0.00249

 Side 1  free  transition at x/c =  0.7238   64
 Side 2  free  transition at x/c =  0.7673   65

   5   rms: 0.1409E+00   max: -.2457E+01   C at   65  2   RLX: 0.204
       a =  0.000      CL =  0.4469
      Cm = -0.1015     CD =  0.00748   =>   CDf =  0.00497    CDp =  0.00251

 Side 1  free  transition at x/c =  0.7214   63
 Side 2  free  transition at x/c =  0.8011   67

   6   rms: 0.9292E-01   max: -.1578E+01   C at   67  2   RLX: 0.317
       a =  0.000      CL =  0.4529
      Cm = -0.1009     CD =  0.00739   =>   CDf =  0.00488    CDp =  0.00250

 Side 1  free  transition at x/c =  0.7171   63
 Side 2  free  transition at x/c =  0.8453   70

   7   rms: 0.7267E-01   max: -.1260E+01   C at   70  2   RLX: 0.397
       a =  0.000      CL =  0.4568
      Cm = -0.0999     CD =  0.00730   =>   CDf =  0.00472    CDp =  0.00257

 Side 1  free  transition at x/c =  0.7138   64
 Side 2  free  transition at x/c =  0.8684   70

   8   rms: 0.3753E-01   max: -.6138E+00   C at   70  2   RLX: 0.815
       a =  0.000      CL =  0.4637
      Cm = -0.0996     CD =  0.00728   =>   CDf =  0.00470    CDp =  0.00257

 Side 1  free  transition at x/c =  0.7100   64
 Side 2  free  transition at x/c =  0.9066   72

   9   rms: 0.5025E-02   max: 0.5362E-01   D at   71  2
       a =  0.000      CL =  0.4669
      Cm = -0.0998     CD =  0.00728   =>   CDf =  0.00466    CDp =  0.00263

 Side 1  free  transition at x/c =  0.7094   64
 Side 2  free  transition at x/c =  0.9101   73

  10   rms: 0.2363E-03   max: -.3701E-02   C at   73  2
       a =  0.000      CL =  0.4670
      Cm = -0.0998     CD =  0.00728   =>   CDf =  0.00466    CDp =  0.00263

 Side 1  free  transition at x/c =  0.7094   64
 Side 2  free  transition at x/c =  0.9101   73

  11   rms: 0.8989E-06   max: -.5931E-05   C at   64  1
       a =  0.000      CL =  0.4670
      Cm = -0.0998     CD =  0.00728   =>   CDf =  0.00466    CDp =  0.00263
 plradd ia,ip,cpol            8           0  0.25663710    

 Point added to stored polar  1
 Point written to save file  naca4412_Re400k.base.pol                        
 Dump file unspecified or not available
 Calculating wake trajectory ...
 Calculating source influence matrix ...

 Solving BL system ...

 Side 1  free  transition at x/c =  0.7094   64
 Side 2  free  transition at x/c =  0.9101   73

   1   rms: 0.2821E+00   max: -.4468E+01   C at   73  2   RLX: 0.112
       a =  0.500      CL =  0.4755
      Cm = -0.1000     CD =  0.00725   =>   CDf =  0.00466    CDp =  0.00259

 Side 1  free  transition at x/c =  0.7067   64
 Side 2  free  transition at x/c =  0.9324   74

   2   rms: 0.1604E+00   max: -.1980E+01   C at   74  2   RLX: 0.253
       a =  0.500      CL =  0.4947
      Cm = -0.1014     CD =  0.00730   =>   CDf =  0.00466    CDp =  0.00264

 Side 1  free  transition at x/c =  0.7017   63
 Side 2  free  transition at x/c =  0.9866   78

   3   rms: 0.1052E+00   max: 0.4645E+00   D at   79  2
       a =  0.500      CL =  0.5763
      Cm = -0.1112     CD =  0.00728   =>   CDf =  0.00469    CDp =  0.00259

 Side 1  free  transition at x/c =  0.6787   63
 Side 2 forced transition at x/c =  1.0000   78

   4   rms: 0.4511E-01   max: -.4491E+00   C at   78  2
       a =  0.500      CL =  0.5454
      Cm = -0.1043     CD =  0.00734   =>   CDf =  0.00489    CDp =  0.00245

 Side 1  free  transition at x/c =  0.6833   63
 Side 2 forced transition at x/c =  1.0000   78

   5   rms: 0.5785E-02   max: 0.8503E-01   C at   78  2
       a =  0.500      CL =  0.5472
      Cm = -0.1047     CD =  0.00739   =>   CDf =  0.00481    CDp =  0.00258

 Side 1  free  transition at x/c =  0.6824   63
 Side 2 forced transition at x/c =  1.0000   78

   6   rms: 0.2987E-03   max: 0.4663E-02   C at   78  2
       a =  0.500      CL =  0.5473
      Cm = -0.1048     CD =  0.00739   =>   CDf =  0.00482    CDp =  0.00257

 Side 1  free  transition at x/c =  0.6824   63
 Side 2 forced transition at x/c =  1.0000   78

   7   rms: 0.1516E-05   max: 0.1500E-04   C at   78  2
       a =  0.500      CL =  0.5474
      Cm = -0.1048     CD =  0.00739   =>   CDf =  0.00482    CDp =  0.00257
 plradd ia,ip,cpol            9           0  0.24142809    

 Point added to stored polar  1
 Point written to save file  naca4412_Re400k.base.pol                        
 Dump file unspecified or not available
 Calculating wake trajectory ...
 Calculating source influence matrix ...

 Solving BL system ...

 Side 1  free  transition at x/c =  0.6824   63
 Side 2 forced transition at x/c =  1.0000   78

   1   rms: 0.8966E-01   max: -.2111E+00   n at   77  2
       a =  1.000      CL =  0.5980
      Cm = -0.1036     CD =  0.00760   =>   CDf =  0.00482    CDp =  0.00278

 Side 1  free  transition at x/c =  0.6549   61
 Side 2 forced transition at x/c =  1.0000   78

   2   rms: 0.1966E-01   max: -.3493E+00   D at   62  1
       a =  1.000      CL =  0.5982
      Cm = -0.1036     CD =  0.00763   =>   CDf =  0.00508    CDp =  0.00255

 Side 1  free  transition at x/c =  0.6576   62
 Side 2 forced transition at x/c =  1.0000   78

   3   rms: 0.2599E-02   max: -.4886E-01   D at   61  1
[...]
 plradd ia,ip,cpol           40           0  2.90126540E-04

 Point added to stored polar  1
 Point written to save file  naca4412_Re400k.base.pol                        
 Dump file unspecified or not available
 Calculating wake trajectory ...
 Calculating source influence matrix ...

 Solving BL system ...

 Side 1  free  transition at x/c =  0.0461   34
 Side 2 forced transition at x/c =  1.0000   65

   1   rms: 0.3959E-01   max: 0.1381E+00   D at   77  1   RLX: 0.814
       a = 13.000      CL =  1.4501
      Cm = -0.0456     CD =  0.03965   =>   CDf =  0.00682    CDp =  0.03283

 Side 1  free  transition at x/c =  0.0449   33
 Side 2 forced transition at x/c =  1.0000   65

   2   rms: 0.6967E-02   max: -.4862E-01   C at   33  1
       a = 13.000      CL =  1.4504
      Cm = -0.0453     CD =  0.03983   =>   CDf =  0.00643    CDp =  0.03340

 Side 1  free  transition at x/c =  0.0447   34
 Side 2 forced transition at x/c =  1.0000   64

   3   rms: 0.2051E-02   max: -.3589E-01   D at    2  1
       a = 13.000      CL =  1.4502
      Cm = -0.0453     CD =  0.03981   =>   CDf =  0.00674    CDp =  0.03307

 Side 1  free  transition at x/c =  0.0447   34
 Side 2 forced transition at x/c =  1.0000   64

   4   rms: 0.6456E-03   max: -.8198E-02   D at    4  1
       a = 13.000      CL =  1.4502
      Cm = -0.0453     CD =  0.03981   =>   CDf =  0.00674    CDp =  0.03307

 Side 1  free  transition at x/c =  0.0447   34
 Side 2 forced transition at x/c =  1.0000   64

   5   rms: 0.8899E-06   max: 0.4636E-05   D at    6  1
       a = 13.000      CL =  1.4502
      Cm = -0.0453     CD =  0.03981   =>   CDf =  0.00673    CDp =  0.03307
 plradd ia,ip,cpol           41           0  2.90126540E-04

 Point added to stored polar  1
 Point written to save file  naca4412_Re400k.base.pol                        
 Dump file unspecified or not available
 Calculating wake trajectory ...
 Calculating source influence matrix ...

 Solving BL system ...

 Side 1  free  transition at x/c =  0.0447   34
 Side 2 forced transition at x/c =  1.0000   64

   1   rms: 0.3315E-01   max: 0.1633E+00   T at   34  1   RLX: 0.792
       a = 13.250      CL =  1.4598
      Cm = -0.0449     CD =  0.04104   =>   CDf =  0.00674    CDp =  0.03430

 Side 1  free  transition at x/c =  0.0436   34
 Side 2 forced transition at x/c =  1.0000   64

   2   rms: 0.7204E-02   max: 0.3096E-01   D at   79  1
       a = 13.250      CL =  1.4593
      Cm = -0.0446     CD =  0.04151   =>   CDf =  0.00664    CDp =  0.03487

 Side 1  free  transition at x/c =  0.0434   34
 Side 2 forced transition at x/c =  1.0000   64

   3   rms: 0.6614E-03   max: 0.3578E-02   D at   77  2
       a = 13.250      CL =  1.4588
      Cm = -0.0445     CD =  0.04149   =>   CDf =  0.00662    CDp =  0.03487

 Side 1  free  transition at x/c =  0.0434   34
 Side 2 forced transition at x/c =  1.0000   64

   4   rms: 0.2791E-04   max: 0.1873E-03   D at   77  2
       a = 13.250      CL =  1.4587
      Cm = -0.0445     CD =  0.04148   =>   CDf =  0.00662    CDp =  0.03487
 plradd ia,ip,cpol           42           0  2.90126540E-04

 Point added to stored polar  1
 Point written to save file  naca4412_Re400k.base.pol                        
 Dump file unspecified or not available
 Calculating wake trajectory ...
 Calculating source influence matrix ...

 Solving BL system ...

 Side 1  free  transition at x/c =  0.0434   34
 Side 2 forced transition at x/c =  1.0000   64

   1   rms: 0.3255E-01   max: 0.1386E+00   T at   34  1   RLX: 0.764
       a = 13.500      CL =  1.4657
      Cm = -0.0441     CD =  0.04296   =>   CDf =  0.00662    CDp =  0.03634

 Side 1  free  transition at x/c =  0.0422   34
 Side 2 forced transition at x/c =  1.0000   64

   2   rms: 0.8019E-02   max: 0.3599E-01   D at   78  1
       a = 13.500      CL =  1.4653
      Cm = -0.0438     CD =  0.04348   =>   CDf =  0.00655    CDp =  0.03693

 Side 1  free  transition at x/c =  0.0419   34
 Side 2 forced transition at x/c =  1.0000   64

   3   rms: 0.6677E-03   max: 0.4036E-02   D at   77  2
       a = 13.500      CL =  1.4648
      Cm = -0.0437     CD =  0.04344   =>   CDf =  0.00653    CDp =  0.03691

 Side 1  free  transition at x/c =  0.0419   34
 Side 2 forced transition at x/c =  1.0000   64

   4   rms: 0.1868E-04   max: 0.1765E-03   D at   77  2
       a = 13.500      CL =  1.4648
      Cm = -0.0437     CD =  0.04343   =>   CDf =  0.00653    CDp =  0.03691
 plradd ia,ip,cpol           43           0  2.90126540E-04

 Point added to stored polar  1
 Point written to save file  naca4412_Re400k.base.pol                        
 Dump file unspecified or not available
 Calculating wake trajectory ...
 Calculating source influence matrix ...

 Solving BL system ...

 Side 1  free  transition at x/c =  0.0419   34
 Side 2 forced transition at x/c =  1.0000   64

   1   rms: 0.3280E-01   max: 0.1380E+00   T at   34  1   RLX: 0.737
       a = 13.750      CL =  1.4703
      Cm = -0.0434     CD =  0.04503   =>   CDf =  0.00653    CDp =  0.03850

 Side 1  free  transition at x/c =  0.0407   34
 Side 2 forced transition at x/c =  1.0000   64

   2   rms: 0.8995E-02   max: 0.3890E-01   D at   77  1
       a = 13.750      CL =  1.4698
      Cm = -0.0431     CD =  0.04564   =>   CDf =  0.00648    CDp =  0.03916

 Side 1  free  transition at x/c =  0.0404   34
 Side 2 forced transition at x/c =  1.0000   64

   3   rms: 0.7774E-03   max: 0.5516E-02   D at   77  2
       a = 13.750      CL =  1.4691
      Cm = -0.0430     CD =  0.04559   =>   CDf =  0.00646    CDp =  0.03913

 Side 1  free  transition at x/c =  0.0405   34
 Side 2 forced transition at x/c =  1.0000   64

   4   rms: 0.1931E-04   max: 0.1703E-03   D at   77  2
       a = 13.750      CL =  1.4691
      Cm = -0.0430     CD =  0.04558   =>   CDf =  0.00646    CDp =  0.03912
 plradd ia,ip,cpol           44           0  2.90126540E-04

 Point added to stored polar  1
 Point written to save file  naca4412_Re400k.base.pol                        
 Dump file unspecified or not available
 Calculating wake trajectory ...
 Calculating source influence matrix ...

 Solving BL system ...

 Side 1  free  transition at x/c =  0.0405   34
 Side 2 forced transition at x/c =  1.0000   64

   1   rms: 0.3335E-01   max: 0.1457E+00   T at   34  1   RLX: 0.709
       a = 14.000      CL =  1.4733
      Cm = -0.0427     CD =  0.04730   =>   CDf =  0.00646    CDp =  0.04084

 Side 1  free  transition at x/c =  0.0395   34
 Side 2 forced transition at x/c =  1.0000   64

   2   rms: 0.1074E-01   max: 0.4678E-01   D at   76  1
       a = 14.000      CL =  1.4713
      Cm = -0.0424     CD =  0.04818   =>   CDf =  0.00643    CDp =  0.04175

 Side 1  free  transition at x/c =  0.0392   34
 Side 2 forced transition at x/c =  1.0000   64

   3   rms: 0.1261E-02   max: 0.6521E-02   D at   75  1
       a = 14.000      CL =  1.4703
      Cm = -0.0423     CD =  0.04813   =>   CDf =  0.00642    CDp =  0.04171

 Side 1  free  transition at x/c =  0.0392   34
 Side 2 forced transition at x/c =  1.0000   64

   4   rms: 0.6309E-04   max: 0.3712E-03   D at   77  2
       a = 14.000      CL =  1.4702
      Cm = -0.0423     CD =  0.04812   =>   CDf =  0.00641    CDp =  0.04171
 plradd ia,ip,cpol           45           0  2.90126540E-04

 Point added to stored polar  1
 Point written to save file  naca4412_Re400k.base.pol                        
 Dump file unspecified or not available
 Calculating wake trajectory ...
 Calculating source influence matrix ...

 Solving BL system ...

 Side 1  free  transition at x/c =  0.0392   34
 Side 2 forced transition at x/c =  1.0000   64

   1   rms: 0.3544E-01   max: 0.1347E+00   T at   34  1   RLX: 0.678
       a = 14.250      CL =  1.4708
      Cm = -0.0420     CD =  0.05023   =>   CDf =  0.00642    CDp =  0.04382

 Side 1  free  transition at x/c =  0.0383   34
 Side 2 forced transition at x/c =  1.0000   64

   2   rms: 0.1514E-01   max: 0.5752E-01   D at   74  1
       a = 14.250      CL =  1.4652
      Cm = -0.0414     CD =  0.05153   =>   CDf =  0.00640    CDp =  0.04513

 Side 1  free  transition at x/c =  0.0378   33
 Side 2 forced transition at x/c =  1.0000   64

   3   rms: 0.1942E-02   max: 0.1016E-01   D at   78  2
       a = 14.250      CL =  1.4638
      Cm = -0.0413     CD =  0.05145   =>   CDf =  0.00639    CDp =  0.04506

 Side 1  free  transition at x/c =  0.0378   33
 Side 2 forced transition at x/c =  1.0000   64

   4   rms: 0.4532E-04   max: 0.4892E-03   D at   78  2
       a = 14.250      CL =  1.4637
      Cm = -0.0413     CD =  0.05143   =>   CDf =  0.00638    CDp =  0.04505
 plradd ia,ip,cpol           46           0  2.90126540E-04

 Point added to stored polar  1
 Point written to save file  naca4412_Re400k.base.pol                        
 Dump file unspecified or not available
 Calculating wake trajectory ...
 Calculating source influence matrix ...

 Solving BL system ...

 Side 1  free  transition at x/c =  0.0378   33
 Side 2 forced transition at x/c =  1.0000   64

   1   rms: 0.3269E-01   max: -.1956E+00   C at   33  1   RLX: 0.655
       a = 14.500      CL =  1.4706
      Cm = -0.0413     CD =  0.05282   =>   CDf =  0.00639    CDp =  0.04644

 Side 1  free  transition at x/c =  0.0371   33
 Side 2 forced transition at x/c =  1.0000   64

   2   rms: 0.1087E-01   max: 0.5674E-01   T at   33  1
       a = 14.500      CL =  1.4717
      Cm = -0.0412     CD =  0.05363   =>   CDf =  0.00629    CDp =  0.04734

 Side 1  free  transition at x/c =  0.0367   33
 Side 2 forced transition at x/c =  1.0000   64

   3   rms: 0.1518E-02   max: 0.8156E-02   D at   78  2
       a = 14.500      CL =  1.4705
      Cm = -0.0411     CD =  0.05360   =>   CDf =  0.00624    CDp =  0.04737

 Side 1  free  transition at x/c =  0.0367   33
 Side 2 forced transition at x/c =  1.0000   64

   4   rms: 0.1029E-03   max: 0.8653E-03   D at   78  2
       a = 14.500      CL =  1.4704
      Cm = -0.0411     CD =  0.05359   =>   CDf =  0.00624    CDp =  0.04735

 Side 1  free  transition at x/c =  0.0367   33
 Side 2 forced transition at x/c =  1.0000   64

   5   rms: 0.4695E-05   max: -.3342E-04   C at   64  2
       a = 14.500      CL =  1.4704
      Cm = -0.0411     CD =  0.05359   =>   CDf =  0.00624    CDp =  0.04735
 plradd ia,ip,cpol           47           0  2.90126540E-04

 Point added to stored polar  1
 Point written to save file  naca4412_Re400k.base.pol                        
 Dump file unspecified or not available
 Calculating wake trajectory ...
 Calculating source influence matrix ...

 Solving BL system ...

 Side 1  free  transition at x/c =  0.0367   33
 Side 2 forced transition at x/c =  1.0000   64

   1   rms: 0.3174E-01   max: 0.1578E+00   T at   33  1   RLX: 0.634
       a = 14.750      CL =  1.4751
      Cm = -0.0411     CD =  0.05519   =>   CDf =  0.00624    CDp =  0.04895

 Side 1  free  transition at x/c =  0.0358   33
 Side 2 forced transition at x/c =  1.0000   64

   2   rms: 0.1174E-01   max: -.4784E-01   D at    3  2
       a = 14.750      CL =  1.4756
      Cm = -0.0410     CD =  0.05612   =>   CDf =  0.00578    CDp =  0.05034

 Side 1  free  transition at x/c =  0.0353   34
 Side 2 forced transition at x/c =  1.0000   63

   3   rms: 0.2528E-02   max: -.3533E-01   D at    2  1
       a = 14.750      CL =  1.4744
      Cm = -0.0409     CD =  0.05608   =>   CDf =  0.00612    CDp =  0.04995

 Side 1  free  transition at x/c =  0.0354   34
 Side 2 forced transition at x/c =  1.0000   63

   4   rms: 0.6939E-03   max: -.8670E-02   D at    4  1
       a = 14.750      CL =  1.4743
      Cm = -0.0409     CD =  0.05606   =>   CDf =  0.00612    CDp =  0.04994

 Side 1  free  transition at x/c =  0.0354   34
 Side 2 forced transition at x/c =  1.0000   63

   5   rms: 0.1873E-05   max: -.1759E-04   C at   63  2
       a = 14.750      CL =  1.4743
      Cm = -0.0409     CD =  0.05606   =>   CDf =  0.00612    CDp =  0.04994
 plradd ia,ip,cpol           48           0  2.90126540E-04

 Point added to stored polar  1
 Point written to save file  naca4412_Re400k.base.pol                        
 Dump file unspecified or not available
 Calculating wake trajectory ...
 Calculating source influence matrix ...

 Solving BL system ...

 Side 1  free  transition at x/c =  0.0354   34
 Side 2 forced transition at x/c =  1.0000   63

   1   rms: 0.3171E-01   max: 0.1430E+00   T at   34  1   RLX: 0.614
       a = 15.000      CL =  1.4778
      Cm = -0.0410     CD =  0.05779   =>   CDf =  0.00612    CDp =  0.05166

 Side 1  free  transition at x/c =  0.0345   34
 Side 2 forced transition at x/c =  1.0000   63

   2   rms: 0.1220E-01   max: 0.4454E-01   T at   34  1
       a = 15.000      CL =  1.4780
      Cm = -0.0409     CD =  0.05883   =>   CDf =  0.00608    CDp =  0.05275

 Side 1  free  transition at x/c =  0.0341   34
 Side 2 forced transition at x/c =  1.0000   63

   3   rms: 0.1722E-02   max: 0.9180E-02   D at   72  1
       a = 15.000      CL =  1.4766
      Cm = -0.0408     CD =  0.05878   =>   CDf =  0.00605    CDp =  0.05273

 Side 1  free  transition at x/c =  0.0341   34
 Side 2 forced transition at x/c =  1.0000   63

   4   rms: 0.7695E-04   max: 0.5367E-03   D at   77  2
       a = 15.000      CL =  1.4766
      Cm = -0.0408     CD =  0.05876   =>   CDf =  0.00604    CDp =  0.05272
 plradd ia,ip,cpol           49           0  2.90126540E-04

 Point added to stored polar  1
 Point written to save file  naca4412_Re400k.base.pol                        
 Dump file unspecified or not available
 Calculating wake trajectory ...
 Calculating source influence matrix ...

 Solving BL system ...

 Side 1  free  transition at x/c =  0.0341   34
 Side 2 forced transition at x/c =  1.0000   63

   1   rms: 0.3205E-01   max: 0.1464E+00   T at   34  1   RLX: 0.594
       a = 15.250      CL =  1.4793
      Cm = -0.0409     CD =  0.06059   =>   CDf =  0.00605    CDp =  0.05454

 Side 1  free  transition at x/c =  0.0334   34
 Side 2 forced transition at x/c =  1.0000   63

   2   rms: 0.1301E-01   max: 0.4674E-01   D at   71  1
       a = 15.250      CL =  1.4788
      Cm = -0.0409     CD =  0.06180   =>   CDf =  0.00602    CDp =  0.05579

 Side 1  free  transition at x/c =  0.0330   34
 Side 2 forced transition at x/c =  1.0000   63

   3   rms: 0.2100E-02   max: 0.1103E-01   D at   71  1
       a = 15.250      CL =  1.4771
      Cm = -0.0408     CD =  0.06174   =>   CDf =  0.00599    CDp =  0.05574

 Side 1  free  transition at x/c =  0.0330   34
 Side 2 forced transition at x/c =  1.0000   63

   4   rms: 0.1469E-03   max: 0.8953E-03   D at   78  2
       a = 15.250      CL =  1.4770
      Cm = -0.0408     CD =  0.06172   =>   CDf =  0.00599    CDp =  0.05573

 Side 1  free  transition at x/c =  0.0330   34
 Side 2 forced transition at x/c =  1.0000   63

   5   rms: 0.7385E-05   max: -.6118E-04   C at   63  2
       a = 15.250      CL =  1.4770
      Cm = -0.0408     CD =  0.06172   =>   CDf =  0.00599    CDp =  0.05573
 plradd ia,ip,cpol           50           0  2.90126540E-04

 Point added to stored polar  1
 Point written to save file  naca4412_Re400k.base.pol                        
 Dump file unspecified or not available
 Calculating wake trajectory ...
 Calculating source influence matrix ...

 Solving BL system ...

 Side 1  free  transition at x/c =  0.0330   34
 Side 2 forced transition at x/c =  1.0000   63

   1   rms: 0.3292E-01   max: 0.1474E+00   T at   34  1   RLX: 0.573
       a = 15.500      CL =  1.4778
      Cm = -0.0409     CD =  0.06375   =>   CDf =  0.00599    CDp =  0.05776

 Side 1  free  transition at x/c =  0.0324   34
 Side 2 forced transition at x/c =  1.0000   63

   2   rms: 0.1564E-01   max: 0.6547E-01   T at   34  1
       a = 15.500      CL =  1.4742
      Cm = -0.0407     CD =  0.06534   =>   CDf =  0.00598    CDp =  0.05936

 Side 1  free  transition at x/c =  0.0319   34
 Side 2 forced transition at x/c =  1.0000   63

   3   rms: 0.2918E-02   max: 0.1401E-01   D at   78  2
       a = 15.500      CL =  1.4718
      Cm = -0.0405     CD =  0.06526   =>   CDf =  0.00597    CDp =  0.05929

 Side 1  free  transition at x/c =  0.0319   34
 Side 2 forced transition at x/c =  1.0000   63

   4   rms: 0.1730E-03   max: 0.1828E-02   D at   78  2
       a = 15.500      CL =  1.4717
      Cm = -0.0405     CD =  0.06524   =>   CDf =  0.00597    CDp =  0.05927

 Side 1  free  transition at x/c =  0.0319   34
 Side 2 forced transition at x/c =  1.0000   63

   5   rms: 0.7085E-05   max: 0.5007E-04   D at   78  2
       a = 15.500      CL =  1.4716
      Cm = -0.0405     CD =  0.06523   =>   CDf =  0.00597    CDp =  0.05926
 plradd ia,ip,cpol           51           0  2.90126540E-04

 Point added to stored polar  1
 Point written to save file  naca4412_Re400k.base.pol                        
 Dump file unspecified or not available
 Calculating wake trajectory ...
 Calculating source influence matrix ...

 Solving BL system ...

 Side 1  free  transition at x/c =  0.0319   34
 Side 2 forced transition at x/c =  1.0000   63

   1   rms: 0.3954E-01   max: 0.1638E+00   T at   34  1   RLX: 0.546
       a = 15.750      CL =  1.4681
      Cm = -0.0400     CD =  0.06750   =>   CDf =  0.00598    CDp =  0.06152

 Side 1  free  transition at x/c =  0.0313   33
 Side 2 forced transition at x/c =  1.0000   63

   2   rms: 0.1820E-01   max: -.1095E+00   D at   33  1
       a = 15.750      CL =  1.4727
      Cm = -0.0408     CD =  0.06862   =>   CDf =  0.00593    CDp =  0.06269

 Side 1  free  transition at x/c =  0.0310   33
 Side 2 forced transition at x/c =  1.0000   63

   3   rms: 0.1268E-02   max: 0.9024E-02   D at   33  1
       a = 15.750      CL =  1.4720
      Cm = -0.0406     CD =  0.06829   =>   CDf =  0.00584    CDp =  0.06246

 Side 1  free  transition at x/c =  0.0310   33
 Side 2 forced transition at x/c =  1.0000   63

   4   rms: 0.6126E-04   max: 0.4358E-03   D at   69  1
       a = 15.750      CL =  1.4720
      Cm = -0.0406     CD =  0.06830   =>   CDf =  0.00584    CDp =  0.06247
 plradd ia,ip,cpol           52           0 -8.77687198E-05

 Point added to stored polar  1
 Point written to save file  naca4412_Re400k.base.pol                        
 Dump file unspecified or not available
 Calculating wake trajectory ...
 Calculating source influence matrix ...

 Solving BL system ...

 Side 1  free  transition at x/c =  0.0310   33
 Side 2 forced transition at x/c =  1.0000   63

   1   rms: 0.3079E-01   max: 0.1571E+00   T at   33  1   RLX: 0.537
       a = 16.000      CL =  1.4746
      Cm = -0.0409     CD =  0.07010   =>   CDf =  0.00584    CDp =  0.06426

 Side 1  free  transition at x/c =  0.0303   33
 Side 2 forced transition at x/c =  1.0000   63

   2   rms: 0.1402E-01   max: 0.5927E-01   T at   33  1
       a = 16.000      CL =  1.4747
      Cm = -0.0410     CD =  0.07157   =>   CDf =  0.00576    CDp =  0.06581

 Side 1  free  transition at x/c =  0.0298   33
 Side 2 forced transition at x/c =  1.0000   63

   3   rms: 0.2192E-02   max: 0.9603E-02   D at   78  2
       a = 16.000      CL =  1.4729
      Cm = -0.0409     CD =  0.07145   =>   CDf =  0.00571    CDp =  0.06574

 Side 1  free  transition at x/c =  0.0299   33
 Side 2 forced transition at x/c =  1.0000   63

   4   rms: 0.1264E-03   max: 0.8262E-03   D at   78  2
       a = 16.000      CL =  1.4728
      Cm = -0.0409     CD =  0.07142   =>   CDf =  0.00571    CDp =  0.06571

 Side 1  free  transition at x/c =  0.0299   33
 Side 2 forced transition at x/c =  1.0000   63

   5   rms: 0.3358E-05   max: -.3310E-04   C at   63  2
       a = 16.000      CL =  1.4728
      Cm = -0.0409     CD =  0.07142   =>   CDf =  0.00571    CDp =  0.06571
 plradd ia,ip,cpol           53           0 -8.77687198E-05

 Point added to stored polar  1
 Point written to save file  naca4412_Re400k.base.pol                        
 Dump file unspecified or not available

.OPERva   c>  
 Polar accumulation disabled

.OPERv   c>  
 XFOIL   c>  
 XFOIL   c>  