  
       XFOIL         Version 6.99
  
 Calculated polar for: NACA 64(4)-421                                  
  
 1 1 Reynolds number fixed          Mach number fixed         
  
 xtrf =   1.000 (top)        1.000 (bottom)  
 Mach =   0.000     Re =     0.150 e 6     Ncrit =   9.000
  
   alpha    CL        CD       CDp       CM     Top_Xtr  Bot_Xtr
  ------ -------- --------- --------- -------- -------- --------
  -4.000  -0.1093   0.02839   0.02162  -0.0591   0.7238   0.6050
  -3.500  -0.0585   0.02889   0.02209  -0.0576   0.7139   0.6122
  -3.000  -0.0126   0.02849   0.02156  -0.0568   0.7058   0.6221
  -2.500   0.0260   0.02757   0.02051  -0.0563   0.6983   0.6315
  -2.000   0.0712   0.02767   0.02059  -0.0551   0.6895   0.6376
  -1.500   0.1177   0.02605   0.01870  -0.0572   0.6835   0.6487
  -1.000   0.1573   0.02657   0.01931  -0.0552   0.6753   0.6529
  -0.500   0.2036   0.02669   0.01943  -0.0547   0.6687   0.6588
   0.000   0.2602   0.02604   0.01859  -0.0573   0.6643   0.6674
   0.500   0.2905   0.02696   0.01964  -0.0550   0.6558   0.6725
   1.000   0.3313   0.02764   0.02037  -0.0540   0.6495   0.6778
   1.500   0.3922   0.02740   0.02006  -0.0560   0.6455   0.6847
   2.000   0.3842   0.03049   0.02332  -0.0505   0.6331   0.6920
   2.500   0.4367   0.03077   0.02365  -0.0505   0.6283   0.6980
   3.000   0.5091   0.03035   0.02320  -0.0535   0.6256   0.7061
  10.000   1.0669   0.03124   0.02611  -0.0235   0.4831   0.9304
  10.250   1.1600   0.02627   0.02108  -0.0276   0.4755   0.9447
  10.500   1.1552   0.02742   0.02241  -0.0259   0.4619   1.0000
  10.750   1.1561   0.02886   0.02393  -0.0253   0.4475   1.0000
  11.000   1.1593   0.03028   0.02540  -0.0248   0.4314   1.0000
  11.250   1.1613   0.03189   0.02704  -0.0242   0.4129   1.0000
  11.500   1.1725   0.03277   0.02787  -0.0238   0.3907   1.0000
  11.750   1.1823   0.03373   0.02867  -0.0230   0.3619   1.0000
  12.000   1.1859   0.03520   0.02991  -0.0219   0.3303   1.0000
  12.250   1.1808   0.03753   0.03201  -0.0205   0.2987   1.0000
  12.500   1.1716   0.04035   0.03459  -0.0192   0.2683   1.0000
  13.000   1.1522   0.04669   0.04052  -0.0172   0.2170   1.0000
  13.250   1.1440   0.04996   0.04361  -0.0166   0.1958   1.0000
  13.500   1.1377   0.05316   0.04664  -0.0162   0.1771   1.0000
  13.750   1.1339   0.05626   0.04963  -0.0160   0.1600   1.0000
  14.000   1.1313   0.05931   0.05257  -0.0158   0.1451   1.0000
  14.250   1.1303   0.06224   0.05537  -0.0158   0.1325   1.0000
  14.500   1.1306   0.06505   0.05805  -0.0157   0.1213   1.0000
  14.750   1.1334   0.06774   0.06071  -0.0159   0.1116   1.0000
  15.000   1.1377   0.07026   0.06320  -0.0160   0.1029   1.0000
  15.250   1.1436   0.07255   0.06541  -0.0160   0.0958   1.0000
  15.500   1.1498   0.07489   0.06770  -0.0162   0.0897   1.0000
  15.750   1.1580   0.07702   0.06984  -0.0163   0.0842   1.0000
  16.000   1.1678   0.07890   0.07162  -0.0164   0.0796   1.0000
