  
       XFOIL         Version 6.99
  
 Calculated polar for: NACA 0024                                       
  
 1 1 Reynolds number fixed          Mach number fixed         
  
 xtrf =   1.000 (top)        1.000 (bottom)  
 Mach =   0.000     Re =     0.600 e 6     Ncrit =   9.000
  
   alpha    CL        CD       CDp       CM     Top_Xtr  Bot_Xtr
  ------ -------- --------- --------- -------- -------- --------
-4.000  -0.3968   0.01053   0.00439  -0.0110   0.7082   0.3797
-3.500  -0.3489   0.01036   0.00419  -0.0094   0.6834   0.3966
-3.000  -0.3000   0.01023   0.00403  -0.0079   0.6591   0.4136
-2.500  -0.2504   0.01012   0.00389  -0.0065   0.6355   0.4310
-2.000  -0.2003   0.01005   0.00379  -0.0052   0.6124   0.4489
-1.000  -0.1002   0.00995   0.00365  -0.0026   0.5681   0.4868
-0.500  -0.0502   0.00991   0.00362  -0.0013   0.5468   0.5063
0.000   0.0000   0.00990   0.00361  -0.0000   0.5264   0.5264
0.500   0.0502   0.00991   0.00362   0.0013   0.5063   0.5469
1.000   0.1002   0.00995   0.00365   0.0026   0.4868   0.5681
2.000   0.2004   0.01005   0.00379   0.0052   0.4489   0.6124
2.500   0.2505   0.01013   0.00389   0.0065   0.4310   0.6355
3.000   0.3001   0.01023   0.00403   0.0079   0.4136   0.6591
3.500   0.3490   0.01036   0.00419   0.0094   0.3966   0.6834
4.000   0.3970   0.01053   0.00439   0.0110   0.3796   0.7081
4.500   0.4438   0.01075   0.00462   0.0129   0.3624   0.7333
5.000   0.4914   0.01094   0.00486   0.0145   0.3465   0.7589
5.500   0.5376   0.01117   0.00515   0.0165   0.3311   0.7846
6.000   0.5794   0.01144   0.00547   0.0192   0.3165   0.8103
6.500   0.6206   0.01181   0.00587   0.0220   0.3020   0.8356
7.000   0.6623   0.01228   0.00636   0.0246   0.2873   0.8605
7.500   0.7056   0.01273   0.00688   0.0269   0.2740   0.8844
8.000   0.7460   0.01329   0.00749   0.0296   0.2612   0.9077
8.500   0.7832   0.01399   0.00820   0.0327   0.2489   0.9303
9.000   0.8199   0.01482   0.00900   0.0357   0.2364   0.9516
9.500   0.8676   0.01567   0.00985   0.0364   0.2246   0.9678
10.000   0.9233   0.01672   0.01088   0.0350   0.2125   0.9791
10.250   0.9540   0.01742   0.01153   0.0333   0.2057   0.9820
10.500   0.9871   0.01794   0.01206   0.0315   0.2002   0.9850
10.750   1.0153   0.01862   0.01271   0.0303   0.1942   0.9891
11.000   1.0448   0.01932   0.01340   0.0288   0.1886   0.9919
11.250   1.0764   0.01997   0.01404   0.0269   0.1831   0.9938
11.500   1.1033   0.02090   0.01492   0.0254   0.1772   0.9965
11.750   1.1344   0.02153   0.01559   0.0236   0.1725   0.9988
12.000   1.1468   0.02228   0.01633   0.0248   0.1683   1.0000
12.250   1.1376   0.02302   0.01704   0.0298   0.1652   1.0000
12.500   1.1378   0.02364   0.01769   0.0333   0.1623   1.0000
12.750   1.1410   0.02435   0.01842   0.0362   0.1591   1.0000
13.000   1.1435   0.02529   0.01936   0.0389   0.1557   1.0000
13.250   1.1446   0.02652   0.02056   0.0412   0.1522   1.0000
13.500   1.1559   0.02736   0.02145   0.0425   0.1492   1.0000
13.750   1.1645   0.02850   0.02260   0.0437   0.1458   1.0000
14.000   1.1702   0.02994   0.02403   0.0449   0.1425   1.0000
14.250   1.1780   0.03133   0.02545   0.0458   0.1395   1.0000
14.500   1.1883   0.03261   0.02676   0.0465   0.1365   1.0000
14.750   1.1954   0.03419   0.02835   0.0471   0.1335   1.0000
15.000   1.1979   0.03622   0.03037   0.0478   0.1305   1.0000
15.250   1.2078   0.03769   0.03190   0.0481   0.1280   1.0000
15.500   1.2155   0.03939   0.03363   0.0484   0.1253   1.0000
15.750   1.2194   0.04148   0.03574   0.0486   0.1228   1.0000
16.000   1.2190   0.04400   0.03826   0.0489   0.1202   1.0000
