
 ===================================================
  XFOIL Version 6.99
  Copyright (C) 2000   Mark Drela, Harold Youngren

  This software comes with ABSOLUTELY NO WARRANTY,
    subject to the GNU General Public License.

  Caveat computor
 ===================================================

 File  xfoil.def  not found

   QUIT    Exit program

  .OPER    Direct operating point(s)
  .MDES    Complex mapping design routine
  .QDES    Surface speed design routine
  .GDES    Geometry design routine

   SAVE f  Write airfoil to labeled coordinate file
   PSAV f  Write airfoil to plain coordinate file
   ISAV f  Write airfoil to ISES coordinate file
   MSAV f  Write airfoil to MSES coordinate file
   REVE    Reverse written-airfoil node ordering

   LOAD f  Read buffer airfoil from coordinate file
   NACA i  Set NACA 4,5-digit airfoil and buffer airfoil
   INTE    Set buffer airfoil by interpolating two airfoils
   NORM    Buffer airfoil normalization toggle
   XYCM rr Change CM reference location, currently  0.25000 0.00000

   BEND    Display structural properties of current airfoil

   PCOP    Set current-airfoil panel nodes directly from buffer airfoil points
   PANE    Set current-airfoil panel nodes ( 160 ) based on curvature
  .PPAR    Show/change paneling

  .PLOP    Plotting options

   WDEF f  Write  current-settings file
   RDEF f  Reread current-settings file
   NAME s  Specify new airfoil name
   NINC    Increment name version number

   Z       Zoom    | (available in all menus)
   U       Unzoom  | 

 XFOIL   c>  
 Labeled airfoil file.  Name:  NACA 4424                                       

 Number of input coordinate points:  35
 Counterclockwise ordering
 Max thickness =     0.240461  at x =   0.291
 Max camber    =     0.033108  at x =   0.500

  LE  x,y  =  -0.00106   0.01185  |   Chord =   1.00113
  TE  x,y  =   1.00000   0.00000  |

 Current airfoil nodes set from buffer airfoil nodes (  35 )

 XFOIL   c>  
 XFOIL   c>  
 Sharp trailing edge

 Paneling parameters used...
   Number of panel nodes       160
   Panel bunching parameter    1.000
   TE/LE panel density ratio   0.150
   Refined-area/LE panel density ratio    0.200
   Top    side refined area x/c limits  1.000 1.000
   Bottom side refined area x/c limits  1.000 1.000

 XFOIL   c>  
.OPERi   c>  
 Xtr/c     =  1.0000    top    side
 Xtr/c     =  1.0000    bottom side
 Ncrit     =    9.00   ( 0.070 % turb. level )
 Vacc      =  0.0100

 Klag  =  5.6000     Uxwt  =    1.00
 A     =  6.7000     B     =  0.7500       KCt = 0.01485
 CtiniK=  1.8000     CtiniX=  3.3000

..VPAR   c>  
..VPAR   c>  
.OPERi   c>  
 M  =    0.0000
 Re =    600000

.OPERv   c>  
.OPERv   c>  
.OPERv   c>  
 Polar  1 newly created for accumulation
 Airfoil archived with polar: NACA 4424                                       

Enter  polar save filename  OR  <return> for no file   s>  
 New polar save file available

Enter  polar dump filename  OR  <return> for no file   s>  
 Polar dump file will NOT be written

 Polar accumulation enabled

.OPERva   c>   Calculating unit vorticity distributions ...
 Calculating wake trajectory ...
 Calculating source influence matrix ...

 Solving BL system ...

 Initializing BL ...
    side            1  ...
 MRCHUE: Inverse mode at  54     Hk =   4.844
 MRCHUE: Inverse mode at  55     Hk =   5.995
 MRCHUE: Inverse mode at  56     Hk =   7.129
 MRCHUE: Inverse mode at  57     Hk =   8.250
 MRCHUE: Inverse mode at  58     Hk =   4.872
 MRCHUE: Inverse mode at  59     Hk =   2.500
 MRCHUE: Inverse mode at  78     Hk =   2.500
 MRCHUE: Convergence failed at  79  side 1    Res =  0.1274E+02
    side            2  ...
 MRCHUE: Inverse mode at  46     Hk =   4.624
 MRCHUE: Inverse mode at  47     Hk =   5.801
 MRCHUE: Inverse mode at  48     Hk =   7.012
 MRCHUE: Inverse mode at  49     Hk =   8.265
 MRCHUE: Inverse mode at  50     Hk =   4.932
 MRCHUE: Inverse mode at  51     Hk =   2.500
 MRCHUE: Inverse mode at  81     Hk =   2.500
 MRCHUE: Inverse mode at  82     Hk =   2.500
 MRCHUE: Convergence failed at  83  side 2    Res =  0.9777E+01

 MRCHDU: Convergence failed at  79  side 1    Res =  0.1406E+02
 MRCHDU: Convergence failed at  83  side 2    Res =  0.2693E+01
 Side 1  free  transition at x/c =  0.5823   58
 Side 2  free  transition at x/c =  0.2305   50

   1   rms: 0.5177E+00   max: 0.3258E+01   D at   85  2   RLX: 0.460
       a = -4.000      CL =  0.0174
      Cm = -0.0892     CD =  0.00559   =>   CDf =  0.00753    CDp = -0.00194

 Side 1  free  transition at x/c =  0.5954   58
 Side 2  free  transition at x/c =  0.2380   50

   2   rms: 0.1939E+00   max: 0.9774E+00   D at   88  2   RLX: 0.688
       a = -4.000      CL =  0.0119
      Cm = -0.0875     CD =  0.00957   =>   CDf =  0.00749    CDp =  0.00208

 MRCHDU: Convergence failed at  51  side 2    Res =  0.2367E+01
 Side 1  free  transition at x/c =  0.6223   60
 Side 2  free  transition at x/c =  0.2507   51
 idif Ue xi dudx           1  7.60940611E-02  3.75711918E-03   20.253300    
 Uenew xinew           2  8.78593419E-03  4.33802605E-04

   3   rms: 0.8980E-01   max: 0.5950E+00   D at   60  1
       a = -4.000      CL = -0.0734
      Cm = -0.0694     CD =  0.01069   =>   CDf =  0.00693    CDp =  0.00376

 Side 1  free  transition at x/c =  0.6593   60
 Side 2  free  transition at x/c =  0.2562   52

   4   rms: 0.2755E-01   max: -.2827E+00   C at   60  1
       a = -4.000      CL = -0.0485
      Cm = -0.0748     CD =  0.01115   =>   CDf =  0.00677    CDp =  0.00438

 Side 1  free  transition at x/c =  0.6545   61
 Side 2  free  transition at x/c =  0.2571   51

   5   rms: 0.2539E-01   max: 0.4145E+00   T at    2  1
       a = -4.000      CL = -0.0367
      Cm = -0.0772     CD =  0.01117   =>   CDf =  0.00672    CDp =  0.00445

 Side 1  free  transition at x/c =  0.6539   61
 Side 2  free  transition at x/c =  0.2573   51

   6   rms: 0.3988E-02   max: -.6837E-01   C at   51  2
       a = -4.000      CL = -0.0366
      Cm = -0.0772     CD =  0.01118   =>   CDf =  0.00674    CDp =  0.00444

 Side 1  free  transition at x/c =  0.6539   61
 Side 2  free  transition at x/c =  0.2574   51

   7   rms: 0.3685E-02   max: -.6783E-01   C at   51  2
       a = -4.000      CL = -0.0367
      Cm = -0.0772     CD =  0.01118   =>   CDf =  0.00674    CDp =  0.00444

 Side 1  free  transition at x/c =  0.6539   61
 Side 2  free  transition at x/c =  0.2574   51

   8   rms: 0.3687E-02   max: -.6785E-01   C at   51  2
       a = -4.000      CL = -0.0367
      Cm = -0.0772     CD =  0.01118   =>   CDf =  0.00674    CDp =  0.00444

 Side 1  free  transition at x/c =  0.6539   61
 Side 2  free  transition at x/c =  0.2574   51

   9   rms: 0.3687E-02   max: -.6784E-01   C at   51  2
       a = -4.000      CL = -0.0367
      Cm = -0.0772     CD =  0.01118   =>   CDf =  0.00674    CDp =  0.00444

 Side 1  free  transition at x/c =  0.6539   61
 Side 2  free  transition at x/c =  0.2574   51

  10   rms: 0.3687E-02   max: -.6784E-01   C at   51  2
       a = -4.000      CL = -0.0367
      Cm = -0.0772     CD =  0.01118   =>   CDf =  0.00674    CDp =  0.00444

 Side 1  free  transition at x/c =  0.6539   61
 Side 2  free  transition at x/c =  0.2574   51

  11   rms: 0.3687E-02   max: -.6784E-01   C at   51  2
       a = -4.000      CL = -0.0367
      Cm = -0.0772     CD =  0.01118   =>   CDf =  0.00674    CDp =  0.00444

 Side 1  free  transition at x/c =  0.6539   61
 Side 2  free  transition at x/c =  0.2574   51

  12   rms: 0.3687E-02   max: -.6785E-01   C at   51  2
       a = -4.000      CL = -0.0367
      Cm = -0.0772     CD =  0.01118   =>   CDf =  0.00674    CDp =  0.00444

 Side 1  free  transition at x/c =  0.6539   61
 Side 2  free  transition at x/c =  0.2574   51

  13   rms: 0.3687E-02   max: -.6784E-01   C at   51  2
       a = -4.000      CL = -0.0367
      Cm = -0.0772     CD =  0.01118   =>   CDf =  0.00674    CDp =  0.00444

 Side 1  free  transition at x/c =  0.6539   61
 Side 2  free  transition at x/c =  0.2574   51

  14   rms: 0.3686E-02   max: -.6784E-01   C at   51  2
       a = -4.000      CL = -0.0367
      Cm = -0.0772     CD =  0.01118   =>   CDf =  0.00674    CDp =  0.00444

 Side 1  free  transition at x/c =  0.6539   61
 Side 2  free  transition at x/c =  0.2574   51

  15   rms: 0.3687E-02   max: -.6784E-01   C at   51  2
       a = -4.000      CL = -0.0367
      Cm = -0.0772     CD =  0.01118   =>   CDf =  0.00674    CDp =  0.00444

 Side 1  free  transition at x/c =  0.6539   61
 Side 2  free  transition at x/c =  0.2574   51

  16   rms: 0.3687E-02   max: -.6785E-01   C at   51  2
       a = -4.000      CL = -0.0367
      Cm = -0.0772     CD =  0.01118   =>   CDf =  0.00674    CDp =  0.00444

 Side 1  free  transition at x/c =  0.6539   61
 Side 2  free  transition at x/c =  0.2574   51

  17   rms: 0.3687E-02   max: -.6784E-01   C at   51  2
       a = -4.000      CL = -0.0367
      Cm = -0.0772     CD =  0.01118   =>   CDf =  0.00674    CDp =  0.00444

 Side 1  free  transition at x/c =  0.6539   61
 Side 2  free  transition at x/c =  0.2574   51

  18   rms: 0.3687E-02   max: -.6784E-01   C at   51  2
       a = -4.000      CL = -0.0367
      Cm = -0.0772     CD =  0.01118   =>   CDf =  0.00674    CDp =  0.00444

 Side 1  free  transition at x/c =  0.6539   61
 Side 2  free  transition at x/c =  0.2574   51

  19   rms: 0.3687E-02   max: -.6785E-01   C at   51  2
       a = -4.000      CL = -0.0367
      Cm = -0.0772     CD =  0.01118   =>   CDf =  0.00674    CDp =  0.00444

 Side 1  free  transition at x/c =  0.6539   61
 Side 2  free  transition at x/c =  0.2574   51

  20   rms: 0.3687E-02   max: -.6784E-01   C at   51  2
       a = -4.000      CL = -0.0367
      Cm = -0.0772     CD =  0.01118   =>   CDf =  0.00674    CDp =  0.00444

 Side 1  free  transition at x/c =  0.6539   61
 Side 2  free  transition at x/c =  0.2574   51

  21   rms: 0.3687E-02   max: -.6784E-01   C at   51  2
       a = -4.000      CL = -0.0367
      Cm = -0.0772     CD =  0.01118   =>   CDf =  0.00674    CDp =  0.00444

 Side 1  free  transition at x/c =  0.6539   61
 Side 2  free  transition at x/c =  0.2574   51

  22   rms: 0.3687E-02   max: -.6784E-01   C at   51  2
       a = -4.000      CL = -0.0367
      Cm = -0.0772     CD =  0.01118   =>   CDf =  0.00674    CDp =  0.00444

 Side 1  free  transition at x/c =  0.6539   61
 Side 2  free  transition at x/c =  0.2574   51

  23   rms: 0.3687E-02   max: -.6785E-01   C at   51  2
       a = -4.000      CL = -0.0367
      Cm = -0.0772     CD =  0.01118   =>   CDf =  0.00674    CDp =  0.00444

 Side 1  free  transition at x/c =  0.6539   61
 Side 2  free  transition at x/c =  0.2574   51

  24   rms: 0.3687E-02   max: -.6784E-01   C at   51  2
       a = -4.000      CL = -0.0367
      Cm = -0.0772     CD =  0.01118   =>   CDf =  0.00674    CDp =  0.00444

 Side 1  free  transition at x/c =  0.6539   61
 Side 2  free  transition at x/c =  0.2574   51

  25   rms: 0.3687E-02   max: -.6784E-01   C at   51  2
       a = -4.000      CL = -0.0367
      Cm = -0.0772     CD =  0.01118   =>   CDf =  0.00674    CDp =  0.00444

 Side 1  free  transition at x/c =  0.6539   61
 Side 2  free  transition at x/c =  0.2574   51

  26   rms: 0.3687E-02   max: -.6784E-01   C at   51  2
       a = -4.000      CL = -0.0367
      Cm = -0.0772     CD =  0.01118   =>   CDf =  0.00674    CDp =  0.00444

 Side 1  free  transition at x/c =  0.6539   61
 Side 2  free  transition at x/c =  0.2574   51

  27   rms: 0.3687E-02   max: -.6784E-01   C at   51  2
       a = -4.000      CL = -0.0367
      Cm = -0.0772     CD =  0.01118   =>   CDf =  0.00674    CDp =  0.00444

 Side 1  free  transition at x/c =  0.6539   61
 Side 2  free  transition at x/c =  0.2574   51

  28   rms: 0.3687E-02   max: -.6785E-01   C at   51  2
       a = -4.000      CL = -0.0367
      Cm = -0.0772     CD =  0.01118   =>   CDf =  0.00674    CDp =  0.00444

 Side 1  free  transition at x/c =  0.6539   61
 Side 2  free  transition at x/c =  0.2574   51

  29   rms: 0.3687E-02   max: -.6785E-01   C at   51  2
       a = -4.000      CL = -0.0367
      Cm = -0.0772     CD =  0.01118   =>   CDf =  0.00674    CDp =  0.00444

 Side 1  free  transition at x/c =  0.6539   61
 Side 2  free  transition at x/c =  0.2574   51

  30   rms: 0.3687E-02   max: -.6785E-01   C at   51  2
       a = -4.000      CL = -0.0367
      Cm = -0.0772     CD =  0.01118   =>   CDf =  0.00674    CDp =  0.00444

 Side 1  free  transition at x/c =  0.6539   61
 Side 2  free  transition at x/c =  0.2574   51

  31   rms: 0.3687E-02   max: -.6784E-01   C at   51  2
       a = -4.000      CL = -0.0367
      Cm = -0.0772     CD =  0.01118   =>   CDf =  0.00674    CDp =  0.00444

 Side 1  free  transition at x/c =  0.6539   61
 Side 2  free  transition at x/c =  0.2574   51

  32   rms: 0.3687E-02   max: -.6784E-01   C at   51  2
       a = -4.000      CL = -0.0367
      Cm = -0.0772     CD =  0.01118   =>   CDf =  0.00674    CDp =  0.00444

 Side 1  free  transition at x/c =  0.6539   61
 Side 2  free  transition at x/c =  0.2574   51

  33   rms: 0.3687E-02   max: -.6784E-01   C at   51  2
       a = -4.000      CL = -0.0367
      Cm = -0.0772     CD =  0.01118   =>   CDf =  0.00674    CDp =  0.00444

 Side 1  free  transition at x/c =  0.6539   61
 Side 2  free  transition at x/c =  0.2574   51

  34   rms: 0.3687E-02   max: -.6784E-01   C at   51  2
       a = -4.000      CL = -0.0367
      Cm = -0.0772     CD =  0.01118   =>   CDf =  0.00674    CDp =  0.00444

 Side 1  free  transition at x/c =  0.6539   61
 Side 2  free  transition at x/c =  0.2574   51

  35   rms: 0.3687E-02   max: -.6784E-01   C at   51  2
       a = -4.000      CL = -0.0367
      Cm = -0.0772     CD =  0.01118   =>   CDf =  0.00674    CDp =  0.00444

 Side 1  free  transition at x/c =  0.6539   61
 Side 2  free  transition at x/c =  0.2574   51

  36   rms: 0.3687E-02   max: -.6784E-01   C at   51  2
       a = -4.000      CL = -0.0367
      Cm = -0.0772     CD =  0.01118   =>   CDf =  0.00674    CDp =  0.00444

 Side 1  free  transition at x/c =  0.6539   61
 Side 2  free  transition at x/c =  0.2574   51

  37   rms: 0.3687E-02   max: -.6784E-01   C at   51  2
       a = -4.000      CL = -0.0367
      Cm = -0.0772     CD =  0.01118   =>   CDf =  0.00674    CDp =  0.00444

 Side 1  free  transition at x/c =  0.6539   61
 Side 2  free  transition at x/c =  0.2574   51

  38   rms: 0.3687E-02   max: -.6784E-01   C at   51  2
       a = -4.000      CL = -0.0367
      Cm = -0.0772     CD =  0.01118   =>   CDf =  0.00674    CDp =  0.00444

 Side 1  free  transition at x/c =  0.6539   61
 Side 2  free  transition at x/c =  0.2574   51

  39   rms: 0.3687E-02   max: -.6784E-01   C at   51  2
       a = -4.000      CL = -0.0367
      Cm = -0.0772     CD =  0.01118   =>   CDf =  0.00674    CDp =  0.00444

 Side 1  free  transition at x/c =  0.6539   61
 Side 2  free  transition at x/c =  0.2574   51

  40   rms: 0.3687E-02   max: -.6785E-01   C at   51  2
       a = -4.000      CL = -0.0367
      Cm = -0.0772     CD =  0.01118   =>   CDf =  0.00674    CDp =  0.00444

 Side 1  free  transition at x/c =  0.6539   61
 Side 2  free  transition at x/c =  0.2574   51

  41   rms: 0.3687E-02   max: -.6784E-01   C at   51  2
       a = -4.000      CL = -0.0367
      Cm = -0.0772     CD =  0.01118   =>   CDf =  0.00674    CDp =  0.00444

 Side 1  free  transition at x/c =  0.6539   61
 Side 2  free  transition at x/c =  0.2574   51

  42   rms: 0.3687E-02   max: -.6784E-01   C at   51  2
       a = -4.000      CL = -0.0367
      Cm = -0.0772     CD =  0.01118   =>   CDf =  0.00674    CDp =  0.00444

 Side 1  free  transition at x/c =  0.6539   61
 Side 2  free  transition at x/c =  0.2574   51

  43   rms: 0.3687E-02   max: -.6784E-01   C at   51  2
       a = -4.000      CL = -0.0367
      Cm = -0.0772     CD =  0.01118   =>   CDf =  0.00674    CDp =  0.00444

 Side 1  free  transition at x/c =  0.6539   61
 Side 2  free  transition at x/c =  0.2574   51

  44   rms: 0.3687E-02   max: -.6785E-01   C at   51  2
       a = -4.000      CL = -0.0367
      Cm = -0.0772     CD =  0.01118   =>   CDf =  0.00674    CDp =  0.00444

 Side 1  free  transition at x/c =  0.6539   61
 Side 2  free  transition at x/c =  0.2574   51

  45   rms: 0.3687E-02   max: -.6784E-01   C at   51  2
       a = -4.000      CL = -0.0367
      Cm = -0.0772     CD =  0.01118   =>   CDf =  0.00674    CDp =  0.00444

 Side 1  free  transition at x/c =  0.6539   61
 Side 2  free  transition at x/c =  0.2574   51

  46   rms: 0.3687E-02   max: -.6784E-01   C at   51  2
       a = -4.000      CL = -0.0367
      Cm = -0.0772     CD =  0.01118   =>   CDf =  0.00674    CDp =  0.00444

 Side 1  free  transition at x/c =  0.6539   61
 Side 2  free  transition at x/c =  0.2574   51

  47   rms: 0.3687E-02   max: -.6784E-01   C at   51  2
       a = -4.000      CL = -0.0367
      Cm = -0.0772     CD =  0.01118   =>   CDf =  0.00674    CDp =  0.00444

 Side 1  free  transition at x/c =  0.6539   61
 Side 2  free  transition at x/c =  0.2574   51

  48   rms: 0.3687E-02   max: -.6784E-01   C at   51  2
       a = -4.000      CL = -0.0367
      Cm = -0.0772     CD =  0.01118   =>   CDf =  0.00674    CDp =  0.00444

 Side 1  free  transition at x/c =  0.6539   61
 Side 2  free  transition at x/c =  0.2574   51

  49   rms: 0.3687E-02   max: -.6784E-01   C at   51  2
       a = -4.000      CL = -0.0367
      Cm = -0.0772     CD =  0.01118   =>   CDf =  0.00674    CDp =  0.00444

 Side 1  free  transition at x/c =  0.6539   61
 Side 2  free  transition at x/c =  0.2574   51

  50   rms: 0.3687E-02   max: -.6784E-01   C at   51  2
       a = -4.000      CL = -0.0367
      Cm = -0.0772     CD =  0.01118   =>   CDf =  0.00674    CDp =  0.00444

 Side 1  free  transition at x/c =  0.6539   61
 Side 2  free  transition at x/c =  0.2574   51

  51   rms: 0.3687E-02   max: -.6784E-01   C at   51  2
       a = -4.000      CL = -0.0367
      Cm = -0.0772     CD =  0.01118   =>   CDf =  0.00674    CDp =  0.00444

 Side 1  free  transition at x/c =  0.6539   61
 Side 2  free  transition at x/c =  0.2574   51

  52   rms: 0.3687E-02   max: -.6784E-01   C at   51  2
       a = -4.000      CL = -0.0367
      Cm = -0.0772     CD =  0.01118   =>   CDf =  0.00674    CDp =  0.00444

 Side 1  free  transition at x/c =  0.6539   61
 Side 2  free  transition at x/c =  0.2574   51

  53   rms: 0.3687E-02   max: -.6784E-01   C at   51  2
       a = -4.000      CL = -0.0367
      Cm = -0.0772     CD =  0.01118   =>   CDf =  0.00674    CDp =  0.00444

 Side 1  free  transition at x/c =  0.6539   61
 Side 2  free  transition at x/c =  0.2574   51

  54   rms: 0.3687E-02   max: -.6784E-01   C at   51  2
       a = -4.000      CL = -0.0367
      Cm = -0.0772     CD =  0.01118   =>   CDf =  0.00674    CDp =  0.00444

 Side 1  free  transition at x/c =  0.6539   61
 Side 2  free  transition at x/c =  0.2574   51

  55   rms: 0.3687E-02   max: -.6784E-01   C at   51  2
       a = -4.000      CL = -0.0367
      Cm = -0.0772     CD =  0.01118   =>   CDf =  0.00674    CDp =  0.00444

 Side 1  free  transition at x/c =  0.6539   61
 Side 2  free  transition at x/c =  0.2574   51

  56   rms: 0.3687E-02   max: -.6784E-01   C at   51  2
       a = -4.000      CL = -0.0367
      Cm = -0.0772     CD =  0.01118   =>   CDf =  0.00674    CDp =  0.00444

 Side 1  free  transition at x/c =  0.6539   61
 Side 2  free  transition at x/c =  0.2574   51

  57   rms: 0.3687E-02   max: -.6784E-01   C at   51  2
       a = -4.000      CL = -0.0367
      Cm = -0.0772     CD =  0.01118   =>   CDf =  0.00674    CDp =  0.00444

 Side 1  free  transition at x/c =  0.6539   61
 Side 2  free  transition at x/c =  0.2574   51

  58   rms: 0.3687E-02   max: -.6784E-01   C at   51  2
       a = -4.000      CL = -0.0367
      Cm = -0.0772     CD =  0.01118   =>   CDf =  0.00674    CDp =  0.00444

 Side 1  free  transition at x/c =  0.6539   61
 Side 2  free  transition at x/c =  0.2574   51

  59   rms: 0.3687E-02   max: -.6784E-01   C at   51  2
       a = -4.000      CL = -0.0367
      Cm = -0.0772     CD =  0.01118   =>   CDf =  0.00674    CDp =  0.00444

 Side 1  free  transition at x/c =  0.6539   61
 Side 2  free  transition at x/c =  0.2574   51

  60   rms: 0.3687E-02   max: -.6785E-01   C at   51  2
       a = -4.000      CL = -0.0367
      Cm = -0.0772     CD =  0.01118   =>   CDf =  0.00674    CDp =  0.00444

 Side 1  free  transition at x/c =  0.6539   61
 Side 2  free  transition at x/c =  0.2574   51

  61   rms: 0.3687E-02   max: -.6785E-01   C at   51  2
       a = -4.000      CL = -0.0367
      Cm = -0.0772     CD =  0.01118   =>   CDf =  0.00674    CDp =  0.00444

 Side 1  free  transition at x/c =  0.6539   61
 Side 2  free  transition at x/c =  0.2574   51

  62   rms: 0.3687E-02   max: -.6784E-01   C at   51  2
       a = -4.000      CL = -0.0367
      Cm = -0.0772     CD =  0.01118   =>   CDf =  0.00674    CDp =  0.00444

 Side 1  free  transition at x/c =  0.6539   61
 Side 2  free  transition at x/c =  0.2574   51

  63   rms: 0.3687E-02   max: -.6785E-01   C at   51  2
       a = -4.000      CL = -0.0367
      Cm = -0.0772     CD =  0.01118   =>   CDf =  0.00674    CDp =  0.00444

 Side 1  free  transition at x/c =  0.6539   61
 Side 2  free  transition at x/c =  0.2574   51

  64   rms: 0.3687E-02   max: -.6784E-01   C at   51  2
       a = -4.000      CL = -0.0367
      Cm = -0.0772     CD =  0.01118   =>   CDf =  0.00674    CDp =  0.00444

 Side 1  free  transition at x/c =  0.6539   61
 Side 2  free  transition at x/c =  0.2574   51

  65   rms: 0.3687E-02   max: -.6785E-01   C at   51  2
       a = -4.000      CL = -0.0367
      Cm = -0.0772     CD =  0.01118   =>   CDf =  0.00674    CDp =  0.00444

 Side 1  free  transition at x/c =  0.6539   61
 Side 2  free  transition at x/c =  0.2574   51

  66   rms: 0.3687E-02   max: -.6784E-01   C at   51  2
       a = -4.000      CL = -0.0367
      Cm = -0.0772     CD =  0.01118   =>   CDf =  0.00674    CDp =  0.00444

 Side 1  free  transition at x/c =  0.6539   61
 Side 2  free  transition at x/c =  0.2574   51

  67   rms: 0.3687E-02   max: -.6785E-01   C at   51  2
       a = -4.000      CL = -0.0367
      Cm = -0.0772     CD =  0.01118   =>   CDf =  0.00674    CDp =  0.00444

 Side 1  free  transition at x/c =  0.6539   61
 Side 2  free  transition at x/c =  0.2574   51

  68   rms: 0.3687E-02   max: -.6784E-01   C at   51  2
       a = -4.000      CL = -0.0367
      Cm = -0.0772     CD =  0.01118   =>   CDf =  0.00674    CDp =  0.00444

 Side 1  free  transition at x/c =  0.6539   61
 Side 2  free  transition at x/c =  0.2574   51

  69   rms: 0.3687E-02   max: -.6785E-01   C at   51  2
       a = -4.000      CL = -0.0367
      Cm = -0.0772     CD =  0.01118   =>   CDf =  0.00674    CDp =  0.00444

 Side 1  free  transition at x/c =  0.6539   61
 Side 2  free  transition at x/c =  0.2574   51

  70   rms: 0.3687E-02   max: -.6784E-01   C at   51  2
       a = -4.000      CL = -0.0367
      Cm = -0.0772     CD =  0.01118   =>   CDf =  0.00674    CDp =  0.00444

 Side 1  free  transition at x/c =  0.6539   61
 Side 2  free  transition at x/c =  0.2574   51

  71   rms: 0.3687E-02   max: -.6785E-01   C at   51  2
       a = -4.000      CL = -0.0367
      Cm = -0.0772     CD =  0.01118   =>   CDf =  0.00674    CDp =  0.00444

 Side 1  free  transition at x/c =  0.6539   61
 Side 2  free  transition at x/c =  0.2574   51

  72   rms: 0.3687E-02   max: -.6785E-01   C at   51  2
       a = -4.000      CL = -0.0367
      Cm = -0.0772     CD =  0.01118   =>   CDf =  0.00674    CDp =  0.00444

 Side 1  free  transition at x/c =  0.6539   61
 Side 2  free  transition at x/c =  0.2574   51

  73   rms: 0.3687E-02   max: -.6785E-01   C at   51  2
       a = -4.000      CL = -0.0367
      Cm = -0.0772     CD =  0.01118   =>   CDf =  0.00674    CDp =  0.00444

 Side 1  free  transition at x/c =  0.6539   61
 Side 2  free  transition at x/c =  0.2574   51

  74   rms: 0.3687E-02   max: -.6784E-01   C at   51  2
       a = -4.000      CL = -0.0367
      Cm = -0.0772     CD =  0.01118   =>   CDf =  0.00674    CDp =  0.00444

 Side 1  free  transition at x/c =  0.6539   61
 Side 2  free  transition at x/c =  0.2574   51

  75   rms: 0.3687E-02   max: -.6784E-01   C at   51  2
       a = -4.000      CL = -0.0367
      Cm = -0.0772     CD =  0.01118   =>   CDf =  0.00674    CDp =  0.00444

 Side 1  free  transition at x/c =  0.6539   61
 Side 2  free  transition at x/c =  0.2574   51

  76   rms: 0.3687E-02   max: -.6784E-01   C at   51  2
       a = -4.000      CL = -0.0367
      Cm = -0.0772     CD =  0.01118   =>   CDf =  0.00674    CDp =  0.00444

 Side 1  free  transition at x/c =  0.6539   61
 Side 2  free  transition at x/c =  0.2574   51

  77   rms: 0.3687E-02   max: -.6784E-01   C at   51  2
       a = -4.000      CL = -0.0367
      Cm = -0.0772     CD =  0.01118   =>   CDf =  0.00674    CDp =  0.00444

 Side 1  free  transition at x/c =  0.6539   61
 Side 2  free  transition at x/c =  0.2574   51

  78   rms: 0.3687E-02   max: -.6784E-01   C at   51  2
       a = -4.000      CL = -0.0367
      Cm = -0.0772     CD =  0.01118   =>   CDf =  0.00674    CDp =  0.00444

 Side 1  free  transition at x/c =  0.6539   61
 Side 2  free  transition at x/c =  0.2574   51

  79   rms: 0.3687E-02   max: -.6784E-01   C at   51  2
       a = -4.000      CL = -0.0367
      Cm = -0.0772     CD =  0.01118   =>   CDf =  0.00674    CDp =  0.00444

 Side 1  free  transition at x/c =  0.6539   61
 Side 2  free  transition at x/c =  0.2574   51

  80   rms: 0.3687E-02   max: -.6784E-01   C at   51  2
       a = -4.000      CL = -0.0367
      Cm = -0.0772     CD =  0.01118   =>   CDf =  0.00674    CDp =  0.00444

 Side 1  free  transition at x/c =  0.6539   61
 Side 2  free  transition at x/c =  0.2574   51

  81   rms: 0.3687E-02   max: -.6784E-01   C at   51  2
       a = -4.000      CL = -0.0367
      Cm = -0.0772     CD =  0.01118   =>   CDf =  0.00674    CDp =  0.00444

 Side 1  free  transition at x/c =  0.6539   61
 Side 2  free  transition at x/c =  0.2574   51

  82   rms: 0.3687E-02   max: -.6784E-01   C at   51  2
       a = -4.000      CL = -0.0367
      Cm = -0.0772     CD =  0.01118   =>   CDf =  0.00674    CDp =  0.00444

 Side 1  free  transition at x/c =  0.6539   61
 Side 2  free  transition at x/c =  0.2574   51

  83   rms: 0.3687E-02   max: -.6784E-01   C at   51  2
       a = -4.000      CL = -0.0367
      Cm = -0.0772     CD =  0.01118   =>   CDf =  0.00674    CDp =  0.00444

 Side 1  free  transition at x/c =  0.6539   61
 Side 2  free  transition at x/c =  0.2574   51

  84   rms: 0.3687E-02   max: -.6785E-01   C at   51  2
       a = -4.000      CL = -0.0367
      Cm = -0.0772     CD =  0.01118   =>   CDf =  0.00674    CDp =  0.00444

 Side 1  free  transition at x/c =  0.6539   61
 Side 2  free  transition at x/c =  0.2574   51

  85   rms: 0.3687E-02   max: -.6784E-01   C at   51  2
       a = -4.000      CL = -0.0367
      Cm = -0.0772     CD =  0.01118   =>   CDf =  0.00674    CDp =  0.00444

 Side 1  free  transition at x/c =  0.6539   61
 Side 2  free  transition at x/c =  0.2574   51

  86   rms: 0.3687E-02   max: -.6784E-01   C at   51  2
       a = -4.000      CL = -0.0367
      Cm = -0.0772     CD =  0.01118   =>   CDf =  0.00674    CDp =  0.00444

 Side 1  free  transition at x/c =  0.6539   61
 Side 2  free  transition at x/c =  0.2574   51

  87   rms: 0.3687E-02   max: -.6784E-01   C at   51  2
       a = -4.000      CL = -0.0367
      Cm = -0.0772     CD =  0.01118   =>   CDf =  0.00674    CDp =  0.00444

 Side 1  free  transition at x/c =  0.6539   61
 Side 2  free  transition at x/c =  0.2574   51

  88   rms: 0.3687E-02   max: -.6785E-01   C at   51  2
       a = -4.000      CL = -0.0367
      Cm = -0.0772     CD =  0.01118   =>   CDf =  0.00674    CDp =  0.00444

 Side 1  free  transition at x/c =  0.6539   61
 Side 2  free  transition at x/c =  0.2574   51

  89   rms: 0.3687E-02   max: -.6784E-01   C at   51  2
       a = -4.000      CL = -0.0367
      Cm = -0.0772     CD =  0.01118   =>   CDf =  0.00674    CDp =  0.00444

 Side 1  free  transition at x/c =  0.6539   61
 Side 2  free  transition at x/c =  0.2574   51

  90   rms: 0.3687E-02   max: -.6785E-01   C at   51  2
       a = -4.000      CL = -0.0367
      Cm = -0.0772     CD =  0.01118   =>   CDf =  0.00674    CDp =  0.00444

 Side 1  free  transition at x/c =  0.6539   61
 Side 2  free  transition at x/c =  0.2574   51

  91   rms: 0.3687E-02   max: -.6784E-01   C at   51  2
       a = -4.000      CL = -0.0367
      Cm = -0.0772     CD =  0.01118   =>   CDf =  0.00674    CDp =  0.00444

 Side 1  free  transition at x/c =  0.6539   61
 Side 2  free  transition at x/c =  0.2574   51

  92   rms: 0.3687E-02   max: -.6784E-01   C at   51  2
       a = -4.000      CL = -0.0367
      Cm = -0.0772     CD =  0.01118   =>   CDf =  0.00674    CDp =  0.00444

 Side 1  free  transition at x/c =  0.6539   61
 Side 2  free  transition at x/c =  0.2574   51

  93   rms: 0.3687E-02   max: -.6785E-01   C at   51  2
       a = -4.000      CL = -0.0367
      Cm = -0.0772     CD =  0.01118   =>   CDf =  0.00674    CDp =  0.00444

 Side 1  free  transition at x/c =  0.6539   61
 Side 2  free  transition at x/c =  0.2574   51

  94   rms: 0.3687E-02   max: -.6784E-01   C at   51  2
       a = -4.000      CL = -0.0367
      Cm = -0.0772     CD =  0.01118   =>   CDf =  0.00674    CDp =  0.00444

 Side 1  free  transition at x/c =  0.6539   61
 Side 2  free  transition at x/c =  0.2574   51

  95   rms: 0.3687E-02   max: -.6785E-01   C at   51  2
       a = -4.000      CL = -0.0367
      Cm = -0.0772     CD =  0.01118   =>   CDf =  0.00674    CDp =  0.00444

 Side 1  free  transition at x/c =  0.6539   61
 Side 2  free  transition at x/c =  0.2574   51

  96   rms: 0.3687E-02   max: -.6784E-01   C at   51  2
       a = -4.000      CL = -0.0367
      Cm = -0.0772     CD =  0.01118   =>   CDf =  0.00674    CDp =  0.00444

 Side 1  free  transition at x/c =  0.6539   61
 Side 2  free  transition at x/c =  0.2574   51

  97   rms: 0.3687E-02   max: -.6784E-01   C at   51  2
       a = -4.000      CL = -0.0367
      Cm = -0.0772     CD =  0.01118   =>   CDf =  0.00674    CDp =  0.00444

 Side 1  free  transition at x/c =  0.6539   61
 Side 2  free  transition at x/c =  0.2574   51

  98   rms: 0.3687E-02   max: -.6785E-01   C at   51  2
       a = -4.000      CL = -0.0367
      Cm = -0.0772     CD =  0.01118   =>   CDf =  0.00674    CDp =  0.00444

 Side 1  free  transition at x/c =  0.6539   61
 Side 2  free  transition at x/c =  0.2574   51

  99   rms: 0.3687E-02   max: -.6784E-01   C at   51  2
       a = -4.000      CL = -0.0367
      Cm = -0.0772     CD =  0.01118   =>   CDf =  0.00674    CDp =  0.00444

 Side 1  free  transition at x/c =  0.6539   61
 Side 2  free  transition at x/c =  0.2574   51

 100   rms: 0.3687E-02   max: -.6784E-01   C at   51  2
       a = -4.000      CL = -0.0367
      Cm = -0.0772     CD =  0.01118   =>   CDf =  0.00674    CDp =  0.00444

 Side 1  free  transition at x/c =  0.6539   61
 Side 2  free  transition at x/c =  0.2574   51

 101   rms: 0.3687E-02   max: -.6784E-01   C at   51  2
       a = -4.000      CL = -0.0367
      Cm = -0.0772     CD =  0.01118   =>   CDf =  0.00674    CDp =  0.00444

 Side 1  free  transition at x/c =  0.6539   61
 Side 2  free  transition at x/c =  0.2574   51

 102   rms: 0.3687E-02   max: -.6785E-01   C at   51  2
       a = -4.000      CL = -0.0367
      Cm = -0.0772     CD =  0.01118   =>   CDf =  0.00674    CDp =  0.00444

 Side 1  free  transition at x/c =  0.6539   61
 Side 2  free  transition at x/c =  0.2574   51

 103   rms: 0.3687E-02   max: -.6784E-01   C at   51  2
       a = -4.000      CL = -0.0367
      Cm = -0.0772     CD =  0.01118   =>   CDf =  0.00674    CDp =  0.00444

 Side 1  free  transition at x/c =  0.6539   61
 Side 2  free  transition at x/c =  0.2574   51

 104   rms: 0.3687E-02   max: -.6784E-01   C at   51  2
       a = -4.000      CL = -0.0367
      Cm = -0.0772     CD =  0.01118   =>   CDf =  0.00674    CDp =  0.00444

 Side 1  free  transition at x/c =  0.6539   61
 Side 2  free  transition at x/c =  0.2574   51

 105   rms: 0.3687E-02   max: -.6785E-01   C at   51  2
       a = -4.000      CL = -0.0367
      Cm = -0.0772     CD =  0.01118   =>   CDf =  0.00674    CDp =  0.00444

 Side 1  free  transition at x/c =  0.6539   61
 Side 2  free  transition at x/c =  0.2574   51

 106   rms: 0.3687E-02   max: -.6784E-01   C at   51  2
       a = -4.000      CL = -0.0367
      Cm = -0.0772     CD =  0.01118   =>   CDf =  0.00674    CDp =  0.00444

 Side 1  free  transition at x/c =  0.6539   61
 Side 2  free  transition at x/c =  0.2574   51

 107   rms: 0.3687E-02   max: -.6784E-01   C at   51  2
       a = -4.000      CL = -0.0367
      Cm = -0.0772     CD =  0.01118   =>   CDf =  0.00674    CDp =  0.00444

 Side 1  free  transition at x/c =  0.6539   61
 Side 2  free  transition at x/c =  0.2574   51

 108   rms: 0.3687E-02   max: -.6784E-01   C at   51  2
       a = -4.000      CL = -0.0367
      Cm = -0.0772     CD =  0.01118   =>   CDf =  0.00674    CDp =  0.00444

 Side 1  free  transition at x/c =  0.6539   61
 Side 2  free  transition at x/c =  0.2574   51

 109   rms: 0.3687E-02   max: -.6784E-01   C at   51  2
       a = -4.000      CL = -0.0367
      Cm = -0.0772     CD =  0.01118   =>   CDf =  0.00674    CDp =  0.00444

 Side 1  free  transition at x/c =  0.6539   61
 Side 2  free  transition at x/c =  0.2574   51

 110   rms: 0.3687E-02   max: -.6784E-01   C at   51  2
       a = -4.000      CL = -0.0367
      Cm = -0.0772     CD =  0.01118   =>   CDf =  0.00674    CDp =  0.00444

 Side 1  free  transition at x/c =  0.6539   61
 Side 2  free  transition at x/c =  0.2574   51

 111   rms: 0.3687E-02   max: -.6784E-01   C at   51  2
       a = -4.000      CL = -0.0367
      Cm = -0.0772     CD =  0.01118   =>   CDf =  0.00674    CDp =  0.00444

 Side 1  free  transition at x/c =  0.6539   61
 Side 2  free  transition at x/c =  0.2574   51

 112   rms: 0.3687E-02   max: -.6784E-01   C at   51  2
       a = -4.000      CL = -0.0367
      Cm = -0.0772     CD =  0.01118   =>   CDf =  0.00674    CDp =  0.00444

 Side 1  free  transition at x/c =  0.6539   61
 Side 2  free  transition at x/c =  0.2574   51

 113   rms: 0.3687E-02   max: -.6784E-01   C at   51  2
       a = -4.000      CL = -0.0367
      Cm = -0.0772     CD =  0.01118   =>   CDf =  0.00674    CDp =  0.00444

 Side 1  free  transition at x/c =  0.6539   61
 Side 2  free  transition at x/c =  0.2574   51

 114   rms: 0.3687E-02   max: -.6784E-01   C at   51  2
       a = -4.000      CL = -0.0367
      Cm = -0.0772     CD =  0.01118   =>   CDf =  0.00674    CDp =  0.00444

 Side 1  free  transition at x/c =  0.6539   61
 Side 2  free  transition at x/c =  0.2574   51

 115   rms: 0.3687E-02   max: -.6784E-01   C at   51  2
       a = -4.000      CL = -0.0367
      Cm = -0.0772     CD =  0.01118   =>   CDf =  0.00674    CDp =  0.00444

 Side 1  free  transition at x/c =  0.6539   61
 Side 2  free  transition at x/c =  0.2574   51

 116   rms: 0.3687E-02   max: -.6784E-01   C at   51  2
       a = -4.000      CL = -0.0367
      Cm = -0.0772     CD =  0.01118   =>   CDf =  0.00674    CDp =  0.00444

 Side 1  free  transition at x/c =  0.6539   61
 Side 2  free  transition at x/c =  0.2574   51

 117   rms: 0.3687E-02   max: -.6784E-01   C at   51  2
       a = -4.000      CL = -0.0367
      Cm = -0.0772     CD =  0.01118   =>   CDf =  0.00674    CDp =  0.00444

 Side 1  free  transition at x/c =  0.6539   61
 Side 2  free  transition at x/c =  0.2574   51

 118   rms: 0.3687E-02   max: -.6784E-01   C at   51  2
       a = -4.000      CL = -0.0367
      Cm = -0.0772     CD =  0.01118   =>   CDf =  0.00674    CDp =  0.00444

 Side 1  free  transition at x/c =  0.6539   61
 Side 2  free  transition at x/c =  0.2574   51

 119   rms: 0.3687E-02   max: -.6784E-01   C at   51  2
       a = -4.000      CL = -0.0367
      Cm = -0.0772     CD =  0.01118   =>   CDf =  0.00674    CDp =  0.00444

 Side 1  free  transition at x/c =  0.6539   61
 Side 2  free  transition at x/c =  0.2574   51

 120   rms: 0.3687E-02   max: -.6784E-01   C at   51  2
       a = -4.000      CL = -0.0367
      Cm = -0.0772     CD =  0.01118   =>   CDf =  0.00674    CDp =  0.00444

 Side 1  free  transition at x/c =  0.6539   61
 Side 2  free  transition at x/c =  0.2574   51

 121   rms: 0.3687E-02   max: -.6784E-01   C at   51  2
       a = -4.000      CL = -0.0367
      Cm = -0.0772     CD =  0.01118   =>   CDf =  0.00674    CDp =  0.00444

 Side 1  free  transition at x/c =  0.6539   61
 Side 2  free  transition at x/c =  0.2574   51

 122   rms: 0.3687E-02   max: -.6785E-01   C at   51  2
       a = -4.000      CL = -0.0367
      Cm = -0.0772     CD =  0.01118   =>   CDf =  0.00674    CDp =  0.00444

 Side 1  free  transition at x/c =  0.6539   61
 Side 2  free  transition at x/c =  0.2574   51

 123   rms: 0.3687E-02   max: -.6784E-01   C at   51  2
       a = -4.000      CL = -0.0367
      Cm = -0.0772     CD =  0.01118   =>   CDf =  0.00674    CDp =  0.00444

 Side 1  free  transition at x/c =  0.6539   61
 Side 2  free  transition at x/c =  0.2574   51

 124   rms: 0.3687E-02   max: -.6784E-01   C at   51  2
       a = -4.000      CL = -0.0367
      Cm = -0.0772     CD =  0.01118   =>   CDf =  0.00674    CDp =  0.00444

 Side 1  free  transition at x/c =  0.6539   61
 Side 2  free  transition at x/c =  0.2574   51

 125   rms: 0.3687E-02   max: -.6784E-01   C at   51  2
       a = -4.000      CL = -0.0367
      Cm = -0.0772     CD =  0.01118   =>   CDf =  0.00674    CDp =  0.00444

 Side 1  free  transition at x/c =  0.6539   61
 Side 2  free  transition at x/c =  0.2574   51

 126   rms: 0.3687E-02   max: -.6784E-01   C at   51  2
       a = -4.000      CL = -0.0367
      Cm = -0.0772     CD =  0.01118   =>   CDf =  0.00674    CDp =  0.00444

 Side 1  free  transition at x/c =  0.6539   61
 Side 2  free  transition at x/c =  0.2574   51

 127   rms: 0.3687E-02   max: -.6784E-01   C at   51  2
       a = -4.000      CL = -0.0367
      Cm = -0.0772     CD =  0.01118   =>   CDf =  0.00674    CDp =  0.00444

 Side 1  free  transition at x/c =  0.6539   61
 Side 2  free  transition at x/c =  0.2574   51

 128   rms: 0.3687E-02   max: -.6784E-01   C at   51  2
       a = -4.000      CL = -0.0367
      Cm = -0.0772     CD =  0.01118   =>   CDf =  0.00674    CDp =  0.00444

 Side 1  free  transition at x/c =  0.6539   61
 Side 2  free  transition at x/c =  0.2574   51

 129   rms: 0.3687E-02   max: -.6784E-01   C at   51  2
       a = -4.000      CL = -0.0367
      Cm = -0.0772     CD =  0.01118   =>   CDf =  0.00674    CDp =  0.00444

 Side 1  free  transition at x/c =  0.6539   61
 Side 2  free  transition at x/c =  0.2574   51

 130   rms: 0.3687E-02   max: -.6784E-01   C at   51  2
       a = -4.000      CL = -0.0367
      Cm = -0.0772     CD =  0.01118   =>   CDf =  0.00674    CDp =  0.00444

 Side 1  free  transition at x/c =  0.6539   61
 Side 2  free  transition at x/c =  0.2574   51

 131   rms: 0.3687E-02   max: -.6784E-01   C at   51  2
       a = -4.000      CL = -0.0367
      Cm = -0.0772     CD =  0.01118   =>   CDf =  0.00674    CDp =  0.00444

 Side 1  free  transition at x/c =  0.6539   61
 Side 2  free  transition at x/c =  0.2574   51

 132   rms: 0.3687E-02   max: -.6784E-01   C at   51  2
       a = -4.000      CL = -0.0367
      Cm = -0.0772     CD =  0.01118   =>   CDf =  0.00674    CDp =  0.00444

 Side 1  free  transition at x/c =  0.6539   61
 Side 2  free  transition at x/c =  0.2574   51

 133   rms: 0.3687E-02   max: -.6784E-01   C at   51  2
       a = -4.000      CL = -0.0367
      Cm = -0.0772     CD =  0.01118   =>   CDf =  0.00674    CDp =  0.00444

 Side 1  free  transition at x/c =  0.6539   61
 Side 2  free  transition at x/c =  0.2574   51

 134   rms: 0.3687E-02   max: -.6785E-01   C at   51  2
       a = -4.000      CL = -0.0367
      Cm = -0.0772     CD =  0.01118   =>   CDf =  0.00674    CDp =  0.00444

 Side 1  free  transition at x/c =  0.6539   61
 Side 2  free  transition at x/c =  0.2574   51

 135   rms: 0.3687E-02   max: -.6784E-01   C at   51  2
       a = -4.000      CL = -0.0367
      Cm = -0.0772     CD =  0.01118   =>   CDf =  0.00674    CDp =  0.00444

 Side 1  free  transition at x/c =  0.6539   61
 Side 2  free  transition at x/c =  0.2574   51

 136   rms: 0.3687E-02   max: -.6784E-01   C at   51  2
       a = -4.000      CL = -0.0367
      Cm = -0.0772     CD =  0.01118   =>   CDf =  0.00674    CDp =  0.00444

 Side 1  free  transition at x/c =  0.6539   61
 Side 2  free  transition at x/c =  0.2574   51

 137   rms: 0.3687E-02   max: -.6785E-01   C at   51  2
       a = -4.000      CL = -0.0367
      Cm = -0.0772     CD =  0.01118   =>   CDf =  0.00674    CDp =  0.00444

 Side 1  free  transition at x/c =  0.6539   61
 Side 2  free  transition at x/c =  0.2574   51

 138   rms: 0.3687E-02   max: -.6784E-01   C at   51  2
       a = -4.000      CL = -0.0367
      Cm = -0.0772     CD =  0.01118   =>   CDf =  0.00674    CDp =  0.00444

 Side 1  free  transition at x/c =  0.6539   61
 Side 2  free  transition at x/c =  0.2574   51

 139   rms: 0.3687E-02   max: -.6784E-01   C at   51  2
       a = -4.000      CL = -0.0367
      Cm = -0.0772     CD =  0.01118   =>   CDf =  0.00674    CDp =  0.00444

 Side 1  free  transition at x/c =  0.6539   61
 Side 2  free  transition at x/c =  0.2574   51

 140   rms: 0.3687E-02   max: -.6784E-01   C at   51  2
       a = -4.000      CL = -0.0367
      Cm = -0.0772     CD =  0.01118   =>   CDf =  0.00674    CDp =  0.00444

 Side 1  free  transition at x/c =  0.6539   61
 Side 2  free  transition at x/c =  0.2574   51

 141   rms: 0.3687E-02   max: -.6784E-01   C at   51  2
       a = -4.000      CL = -0.0367
      Cm = -0.0772     CD =  0.01118   =>   CDf =  0.00674    CDp =  0.00444

 Side 1  free  transition at x/c =  0.6539   61
 Side 2  free  transition at x/c =  0.2574   51

 142   rms: 0.3687E-02   max: -.6784E-01   C at   51  2
       a = -4.000      CL = -0.0367
      Cm = -0.0772     CD =  0.01118   =>   CDf =  0.00674    CDp =  0.00444

 Side 1  free  transition at x/c =  0.6539   61
 Side 2  free  transition at x/c =  0.2574   51

 143   rms: 0.3687E-02   max: -.6784E-01   C at   51  2
       a = -4.000      CL = -0.0367
      Cm = -0.0772     CD =  0.01118   =>   CDf =  0.00674    CDp =  0.00444

 Side 1  free  transition at x/c =  0.6539   61
 Side 2  free  transition at x/c =  0.2574   51

 144   rms: 0.3687E-02   max: -.6784E-01   C at   51  2
       a = -4.000      CL = -0.0367
      Cm = -0.0772     CD =  0.01118   =>   CDf =  0.00674    CDp =  0.00444

 Side 1  free  transition at x/c =  0.6539   61
 Side 2  free  transition at x/c =  0.2574   51

 145   rms: 0.3687E-02   max: -.6785E-01   C at   51  2
       a = -4.000      CL = -0.0367
      Cm = -0.0772     CD =  0.01118   =>   CDf =  0.00674    CDp =  0.00444

 Side 1  free  transition at x/c =  0.6539   61
 Side 2  free  transition at x/c =  0.2574   51

 146   rms: 0.3687E-02   max: -.6784E-01   C at   51  2
       a = -4.000      CL = -0.0367
      Cm = -0.0772     CD =  0.01118   =>   CDf =  0.00674    CDp =  0.00444

 Side 1  free  transition at x/c =  0.6539   61
 Side 2  free  transition at x/c =  0.2574   51

 147   rms: 0.3687E-02   max: -.6785E-01   C at   51  2
       a = -4.000      CL = -0.0367
      Cm = -0.0772     CD =  0.01118   =>   CDf =  0.00674    CDp =  0.00444

 Side 1  free  transition at x/c =  0.6539   61
 Side 2  free  transition at x/c =  0.2574   51

 148   rms: 0.3687E-02   max: -.6784E-01   C at   51  2
       a = -4.000      CL = -0.0367
      Cm = -0.0772     CD =  0.01118   =>   CDf =  0.00674    CDp =  0.00444

 Side 1  free  transition at x/c =  0.6539   61
 Side 2  free  transition at x/c =  0.2574   51

 149   rms: 0.3687E-02   max: -.6785E-01   C at   51  2
       a = -4.000      CL = -0.0367
      Cm = -0.0772     CD =  0.01118   =>   CDf =  0.00674    CDp =  0.00444

 Side 1  free  transition at x/c =  0.6539   61
 Side 2  free  transition at x/c =  0.2574   51

 150   rms: 0.3687E-02   max: -.6784E-01   C at   51  2
       a = -4.000      CL = -0.0367
      Cm = -0.0772     CD =  0.01118   =>   CDf =  0.00674    CDp =  0.00444

 Side 1  free  transition at x/c =  0.6539   61
 Side 2  free  transition at x/c =  0.2574   51

 151   rms: 0.3687E-02   max: -.6784E-01   C at   51  2
       a = -4.000      CL = -0.0367
      Cm = -0.0772     CD =  0.01118   =>   CDf =  0.00674    CDp =  0.00444

 Side 1  free  transition at x/c =  0.6539   61
 Side 2  free  transition at x/c =  0.2574   51

 152   rms: 0.3687E-02   max: -.6784E-01   C at   51  2
       a = -4.000      CL = -0.0367
      Cm = -0.0772     CD =  0.01118   =>   CDf =  0.00674    CDp =  0.00444

 Side 1  free  transition at x/c =  0.6539   61
 Side 2  free  transition at x/c =  0.2574   51

 153   rms: 0.3687E-02   max: -.6784E-01   C at   51  2
       a = -4.000      CL = -0.0367
      Cm = -0.0772     CD =  0.01118   =>   CDf =  0.00674    CDp =  0.00444

 Side 1  free  transition at x/c =  0.6539   61
 Side 2  free  transition at x/c =  0.2574   51

 154   rms: 0.3687E-02   max: -.6784E-01   C at   51  2
       a = -4.000      CL = -0.0367
      Cm = -0.0772     CD =  0.01118   =>   CDf =  0.00674    CDp =  0.00444

 Side 1  free  transition at x/c =  0.6539   61
 Side 2  free  transition at x/c =  0.2574   51

 155   rms: 0.3687E-02   max: -.6784E-01   C at   51  2
       a = -4.000      CL = -0.0367
      Cm = -0.0772     CD =  0.01118   =>   CDf =  0.00674    CDp =  0.00444
 VISCAL:  Convergence failed
 Calculating wake trajectory ...
 Calculating source influence matrix ...

 Solving BL system ...

 Side 1  free  transition at x/c =  0.6539   61
 Side 2  free  transition at x/c =  0.2574   51

   1   rms: 0.5903E-01   max: 0.2845E+00   C at   51  2
       a = -3.500      CL = -0.0064
      Cm = -0.0716     CD =  0.01124   =>   CDf =  0.00674    CDp =  0.00451

 MRCHDU: Convergence failed at  52  side 2    Res =  0.1704E+01
 Side 1  free  transition at x/c =  0.6364   60
 Side 2  free  transition at x/c =  0.2686   52

   2   rms: 0.1812E-01   max: 0.3026E+00   C at   52  2
       a = -3.500      CL = -0.0141
      Cm = -0.0702     CD =  0.01107   =>   CDf =  0.00669    CDp =  0.00438

 Side 1  free  transition at x/c =  0.6371   60
 Side 2  free  transition at x/c =  0.2712   52

   3   rms: 0.1304E-02   max: -.2125E-01   D at   53  2
       a = -3.500      CL = -0.0132
      Cm = -0.0704     CD =  0.01109   =>   CDf =  0.00674    CDp =  0.00435

 Side 1  free  transition at x/c =  0.6370   60
 Side 2  free  transition at x/c =  0.2709   52

   4   rms: 0.1467E-04   max: -.2071E-03   D at   53  2
       a = -3.500      CL = -0.0131
      Cm = -0.0704     CD =  0.01109   =>   CDf =  0.00674    CDp =  0.00435
 plradd ia,ip,cpol            1           0  6.14586510E-02

 Point added to stored polar  1
 Point written to save file  naca4424_Re600k.base.pol                        
 Dump file unspecified or not available
 Calculating wake trajectory ...
 Calculating source influence matrix ...

 Solving BL system ...

 Side 1  free  transition at x/c =  0.6370   60
 Side 2  free  transition at x/c =  0.2709   52

   1   rms: 0.5973E-01   max: 0.2796E+00   D at    3  2
       a = -3.000      CL =  0.0159
      Cm = -0.0646     CD =  0.01102   =>   CDf =  0.00674    CDp =  0.00428

 Side 1  free  transition at x/c =  0.6183   61
 Side 2  free  transition at x/c =  0.2816   52

   2   rms: 0.8426E-02   max: 0.7580E-01   D at   61  1
       a = -3.000      CL =  0.0126
      Cm = -0.0640     CD =  0.01105   =>   CDf =  0.00685    CDp =  0.00420

 Side 1  free  transition at x/c =  0.6210   61
 Side 2  free  transition at x/c =  0.2837   52

   3   rms: 0.1610E-02   max: -.1295E-01   D at   62  1
       a = -3.000      CL =  0.0144
      Cm = -0.0643     CD =  0.01106   =>   CDf =  0.00677    CDp =  0.00428

 Side 1  free  transition at x/c =  0.6205   61
 Side 2  free  transition at x/c =  0.2837   52

   4   rms: 0.3137E-04   max: -.2476E-03   D at   62  1
       a = -3.000      CL =  0.0144
      Cm = -0.0643     CD =  0.01106   =>   CDf =  0.00678    CDp =  0.00428
 plradd ia,ip,cpol            2           0  6.14586510E-02

 Point added to stored polar  1
 Point written to save file  naca4424_Re600k.base.pol                        
 Dump file unspecified or not available
 Calculating wake trajectory ...
 Calculating source influence matrix ...

 Solving BL system ...

 Side 1  free  transition at x/c =  0.6205   61
 Side 2  free  transition at x/c =  0.2837   52

   1   rms: 0.6462E-01   max: 0.3234E+00   D at   52  2
       a = -2.500      CL =  0.0435
      Cm = -0.0587     CD =  0.01107   =>   CDf =  0.00678    CDp =  0.00429

 Side 1  free  transition at x/c =  0.6060   60
 Side 2  free  transition at x/c =  0.2952   52

   2   rms: 0.1384E-01   max: -.1579E+00   D at   61  1
       a = -2.500      CL =  0.0447
      Cm = -0.0588     CD =  0.01104   =>   CDf =  0.00682    CDp =  0.00422

 Side 1  free  transition at x/c =  0.6055   60
 Side 2  free  transition at x/c =  0.2967   52

   3   rms: 0.1294E-02   max: -.1138E-01   D at   61  1
       a = -2.500      CL =  0.0460
      Cm = -0.0591     CD =  0.01105   =>   CDf =  0.00680    CDp =  0.00425

 Side 1  free  transition at x/c =  0.6052   60
 Side 2  free  transition at x/c =  0.2967   52

   4   rms: 0.2660E-04   max: 0.2124E-03   D at   78  1
       a = -2.500      CL =  0.0461
      Cm = -0.0591     CD =  0.01105   =>   CDf =  0.00680    CDp =  0.00425
 plradd ia,ip,cpol            3           0  7.31342286E-02

 Point added to stored polar  1
 Point written to save file  naca4424_Re600k.base.pol                        
 Dump file unspecified or not available
 Calculating wake trajectory ...
 Calculating source influence matrix ...

 Solving BL system ...

 Side 1  free  transition at x/c =  0.6052   60
 Side 2  free  transition at x/c =  0.2967   52

   1   rms: 0.6206E-01   max: 0.2593E+00   C at   52  2
       a = -2.000      CL =  0.0815
      Cm = -0.0547     CD =  0.01118   =>   CDf =  0.00679    CDp =  0.00439

 MRCHDU: Convergence failed at  52  side 2    Res =  0.2171E+01
 Side 1  free  transition at x/c =  0.5909   60
 Side 2  free  transition at x/c =  0.3108   52

   2   rms: 0.1631E-01   max: 0.2416E+00   C at   52  2
       a = -2.000      CL =  0.0744
      Cm = -0.0533     CD =  0.01102   =>   CDf =  0.00676    CDp =  0.00426

 Side 1  free  transition at x/c =  0.5911   60
 Side 2  free  transition at x/c =  0.3131   52

   3   rms: 0.1174E-02   max: -.1579E-01   D at   53  2
       a = -2.000      CL =  0.0754
      Cm = -0.0535     CD =  0.01103   =>   CDf =  0.00679    CDp =  0.00424

 Side 1  free  transition at x/c =  0.5909   60
 Side 2  free  transition at x/c =  0.3129   52

   4   rms: 0.2360E-04   max: -.9391E-04   D at   53  2
       a = -2.000      CL =  0.0755
      Cm = -0.0535     CD =  0.01103   =>   CDf =  0.00679    CDp =  0.00424
 plradd ia,ip,cpol            4           0  7.95610771E-02

 Point added to stored polar  1
 Point written to save file  naca4424_Re600k.base.pol                        
 Dump file unspecified or not available
 Calculating wake trajectory ...
 Calculating source influence matrix ...

 Solving BL system ...

 Side 1  free  transition at x/c =  0.5909   60
 Side 2  free  transition at x/c =  0.3129   52

   1   rms: 0.5887E-01   max: 0.2164E+00   D at   52  2
       a = -1.500      CL =  0.1103
      Cm = -0.0490     CD =  0.01103   =>   CDf =  0.00676    CDp =  0.00427

 Side 1  free  transition at x/c =  0.5759   61
 Side 2  free  transition at x/c =  0.3268   52

   2   rms: 0.7084E-02   max: -.5735E-01   C at   52  2
       a = -1.500      CL =  0.1067
      Cm = -0.0483     CD =  0.01105   =>   CDf =  0.00686    CDp =  0.00418

 Side 1  free  transition at x/c =  0.5771   61
 Side 2  free  transition at x/c =  0.3291   52

   3   rms: 0.1125E-02   max: -.1128E-01   D at    4  1
       a = -1.500      CL =  0.1073
      Cm = -0.0485     CD =  0.01105   =>   CDf =  0.00681    CDp =  0.00424

 Side 1  free  transition at x/c =  0.5770   61
 Side 2  free  transition at x/c =  0.3290   52

   4   rms: 0.1263E-04   max: -.4750E-04   D at   61  1
       a = -1.500      CL =  0.1073
      Cm = -0.0485     CD =  0.01105   =>   CDf =  0.00682    CDp =  0.00423
 plradd ia,ip,cpol            5           0  7.31342286E-02

 Point added to stored polar  1
 Point written to save file  naca4424_Re600k.base.pol                        
 Dump file unspecified or not available
 Calculating wake trajectory ...
 Calculating source influence matrix ...

 Solving BL system ...

 Side 1  free  transition at x/c =  0.5770   61
 Side 2  free  transition at x/c =  0.3290   52

   1   rms: 0.6358E-01   max: 0.3257E+00   D at   52  2
       a = -1.000      CL =  0.1418
      Cm = -0.0440     CD =  0.01113   =>   CDf =  0.00678    CDp =  0.00435

 Side 1  free  transition at x/c =  0.5653   61
 Side 2  free  transition at x/c =  0.3405   51

   2   rms: 0.1752E-01   max: -.1647E+00   D at   61  1
       a = -1.000      CL =  0.1423
      Cm = -0.0440     CD =  0.01109   =>   CDf =  0.00688    CDp =  0.00421

 Side 1  free  transition at x/c =  0.5656   61
 Side 2  free  transition at x/c =  0.3440   52

   3   rms: 0.5351E-02   max: -.6084E-01   D at   51  2
       a = -1.000      CL =  0.1431
      Cm = -0.0442     CD =  0.01105   =>   CDf =  0.00681    CDp =  0.00424

 Side 1  free  transition at x/c =  0.5651   61
 Side 2  free  transition at x/c =  0.3465   52

   4   rms: 0.6240E-03   max: -.9226E-02   D at   52  2
       a = -1.000      CL =  0.1432
      Cm = -0.0442     CD =  0.01106   =>   CDf =  0.00679    CDp =  0.00427

 Side 1  free  transition at x/c =  0.5651   61
 Side 2  free  transition at x/c =  0.3461   52

   5   rms: 0.7867E-05   max: -.1103E-03   D at   52  2
       a = -1.000      CL =  0.1432
      Cm = -0.0442     CD =  0.01106   =>   CDf =  0.00679    CDp =  0.00426
 plradd ia,ip,cpol            6           0  0.25376606    

 Point added to stored polar  1
 Point written to save file  naca4424_Re600k.base.pol                        
 Dump file unspecified or not available
 Calculating wake trajectory ...
 Calculating source influence matrix ...

 Solving BL system ...

 Side 1  free  transition at x/c =  0.5651   61
 Side 2  free  transition at x/c =  0.3461   52

   1   rms: 0.6334E-01   max: 0.3936E+00   D at   52  2
       a = -0.500      CL =  0.1767
      Cm = -0.0396     CD =  0.01099   =>   CDf =  0.00679    CDp =  0.00420

 Side 1  free  transition at x/c =  0.5519   60
 Side 2  free  transition at x/c =  0.3633   52

   2   rms: 0.8046E-02   max: -.1407E+00   C at   52  2
       a = -0.500      CL =  0.1769
      Cm = -0.0396     CD =  0.01115   =>   CDf =  0.00686    CDp =  0.00429

 Side 1  free  transition at x/c =  0.5522   60
 Side 2  free  transition at x/c =  0.3637   52

   3   rms: 0.6529E-02   max: -.1315E+00   C at   52  2
       a = -0.500      CL =  0.1771
      Cm = -0.0397     CD =  0.01115   =>   CDf =  0.00685    CDp =  0.00430

 Side 1  free  transition at x/c =  0.5522   60
 Side 2  free  transition at x/c =  0.3637   52

   4   rms: 0.6557E-02   max: -.1319E+00   C at   52  2
       a = -0.500      CL =  0.1772
      Cm = -0.0397     CD =  0.01115   =>   CDf =  0.00685    CDp =  0.00430

 Side 1  free  transition at x/c =  0.5522   60
 Side 2  free  transition at x/c =  0.3637   52

   5   rms: 0.6556E-02   max: -.1319E+00   C at   52  2
       a = -0.500      CL =  0.1772
      Cm = -0.0397     CD =  0.01115   =>   CDf =  0.00685    CDp =  0.00430

 Side 1  free  transition at x/c =  0.5522   60
 Side 2  free  transition at x/c =  0.3637   52

   6   rms: 0.6556E-02   max: -.1319E+00   C at   52  2
       a = -0.500      CL =  0.1772
      Cm = -0.0397     CD =  0.01115   =>   CDf =  0.00685    CDp =  0.00430

 Side 1  free  transition at x/c =  0.5522   60
 Side 2  free  transition at x/c =  0.3637   52

   7   rms: 0.6556E-02   max: -.1319E+00   C at   52  2
       a = -0.500      CL =  0.1772
      Cm = -0.0397     CD =  0.01115   =>   CDf =  0.00685    CDp =  0.00430

 Side 1  free  transition at x/c =  0.5522   60
 Side 2  free  transition at x/c =  0.3637   52

   8   rms: 0.6556E-02   max: -.1319E+00   C at   52  2
       a = -0.500      CL =  0.1772
      Cm = -0.0397     CD =  0.01115   =>   CDf =  0.00685    CDp =  0.00430

 Side 1  free  transition at x/c =  0.5522   60
 Side 2  free  transition at x/c =  0.3637   52

   9   rms: 0.6556E-02   max: -.1319E+00   C at   52  2
       a = -0.500      CL =  0.1772
      Cm = -0.0397     CD =  0.01115   =>   CDf =  0.00685    CDp =  0.00430

 Side 1  free  transition at x/c =  0.5522   60
 Side 2  free  transition at x/c =  0.3637   52

  10   rms: 0.6556E-02   max: -.1319E+00   C at   52  2
       a = -0.500      CL =  0.1772
      Cm = -0.0397     CD =  0.01115   =>   CDf =  0.00685    CDp =  0.00430

 Side 1  free  transition at x/c =  0.5522   60
 Side 2  free  transition at x/c =  0.3637   52

  11   rms: 0.6556E-02   max: -.1319E+00   C at   52  2
       a = -0.500      CL =  0.1772
      Cm = -0.0397     CD =  0.01115   =>   CDf =  0.00685    CDp =  0.00430

 Side 1  free  transition at x/c =  0.5522   60
 Side 2  free  transition at x/c =  0.3637   52

  12   rms: 0.6555E-02   max: -.1319E+00   C at   52  2
       a = -0.500      CL =  0.1772
      Cm = -0.0397     CD =  0.01115   =>   CDf =  0.00685    CDp =  0.00430

 Side 1  free  transition at x/c =  0.5522   60
 Side 2  free  transition at x/c =  0.3637   52

  13   rms: 0.6556E-02   max: -.1319E+00   C at   52  2
       a = -0.500      CL =  0.1772
      Cm = -0.0397     CD =  0.01115   =>   CDf =  0.00685    CDp =  0.00430

 Side 1  free  transition at x/c =  0.5522   60
 Side 2  free  transition at x/c =  0.3637   52

  14   rms: 0.6556E-02   max: -.1319E+00   C at   52  2
       a = -0.500      CL =  0.1772
      Cm = -0.0397     CD =  0.01115   =>   CDf =  0.00685    CDp =  0.00430

 Side 1  free  transition at x/c =  0.5522   60
 Side 2  free  transition at x/c =  0.3637   52

  15   rms: 0.6556E-02   max: -.1319E+00   C at   52  2
       a = -0.500      CL =  0.1772
      Cm = -0.0397     CD =  0.01115   =>   CDf =  0.00685    CDp =  0.00430

 Side 1  free  transition at x/c =  0.5522   60
 Side 2  free  transition at x/c =  0.3637   52

  16   rms: 0.6556E-02   max: -.1319E+00   C at   52  2
       a = -0.500      CL =  0.1772
      Cm = -0.0397     CD =  0.01115   =>   CDf =  0.00685    CDp =  0.00430

 Side 1  free  transition at x/c =  0.5522   60
 Side 2  free  transition at x/c =  0.3637   52

  17   rms: 0.6556E-02   max: -.1319E+00   C at   52  2
       a = -0.500      CL =  0.1772
      Cm = -0.0397     CD =  0.01115   =>   CDf =  0.00685    CDp =  0.00430

 Side 1  free  transition at x/c =  0.5522   60
 Side 2  free  transition at x/c =  0.3637   52

  18   rms: 0.6556E-02   max: -.1319E+00   C at   52  2
       a = -0.500      CL =  0.1772
      Cm = -0.0397     CD =  0.01115   =>   CDf =  0.00685    CDp =  0.00430

 Side 1  free  transition at x/c =  0.5522   60
 Side 2  free  transition at x/c =  0.3637   52

  19   rms: 0.6556E-02   max: -.1319E+00   C at   52  2
       a = -0.500      CL =  0.1772
      Cm = -0.0397     CD =  0.01115   =>   CDf =  0.00685    CDp =  0.00430

 Side 1  free  transition at x/c =  0.5522   60
 Side 2  free  transition at x/c =  0.3637   52

  20   rms: 0.6556E-02   max: -.1319E+00   C at   52  2
       a = -0.500      CL =  0.1772
      Cm = -0.0397     CD =  0.01115   =>   CDf =  0.00685    CDp =  0.00430

 Side 1  free  transition at x/c =  0.5522   60
 Side 2  free  transition at x/c =  0.3637   52

  21   rms: 0.6556E-02   max: -.1319E+00   C at   52  2
       a = -0.500      CL =  0.1772
      Cm = -0.0397     CD =  0.01115   =>   CDf =  0.00685    CDp =  0.00430

 Side 1  free  transition at x/c =  0.5522   60
 Side 2  free  transition at x/c =  0.3637   52

  22   rms: 0.6556E-02   max: -.1319E+00   C at   52  2
       a = -0.500      CL =  0.1772
      Cm = -0.0397     CD =  0.01115   =>   CDf =  0.00685    CDp =  0.00430

 Side 1  free  transition at x/c =  0.5522   60
 Side 2  free  transition at x/c =  0.3637   52

  23   rms: 0.6556E-02   max: -.1319E+00   C at   52  2
       a = -0.500      CL =  0.1772
      Cm = -0.0397     CD =  0.01115   =>   CDf =  0.00685    CDp =  0.00430

 Side 1  free  transition at x/c =  0.5522   60
 Side 2  free  transition at x/c =  0.3637   52

  24   rms: 0.6556E-02   max: -.1319E+00   C at   52  2
       a = -0.500      CL =  0.1772
      Cm = -0.0397     CD =  0.01115   =>   CDf =  0.00685    CDp =  0.00430

 Side 1  free  transition at x/c =  0.5522   60
 Side 2  free  transition at x/c =  0.3637   52

  25   rms: 0.6556E-02   max: -.1319E+00   C at   52  2
       a = -0.500      CL =  0.1772
      Cm = -0.0397     CD =  0.01115   =>   CDf =  0.00685    CDp =  0.00430

 Side 1  free  transition at x/c =  0.5522   60
 Side 2  free  transition at x/c =  0.3637   52

  26   rms: 0.6556E-02   max: -.1319E+00   C at   52  2
       a = -0.500      CL =  0.1772
      Cm = -0.0397     CD =  0.01115   =>   CDf =  0.00685    CDp =  0.00430

 Side 1  free  transition at x/c =  0.5522   60
 Side 2  free  transition at x/c =  0.3637   52

  27   rms: 0.6556E-02   max: -.1319E+00   C at   52  2
       a = -0.500      CL =  0.1772
      Cm = -0.0397     CD =  0.01115   =>   CDf =  0.00685    CDp =  0.00430

 Side 1  free  transition at x/c =  0.5522   60
 Side 2  free  transition at x/c =  0.3637   52

  28   rms: 0.6556E-02   max: -.1319E+00   C at   52  2
       a = -0.500      CL =  0.1772
      Cm = -0.0397     CD =  0.01115   =>   CDf =  0.00685    CDp =  0.00430

 Side 1  free  transition at x/c =  0.5522   60
 Side 2  free  transition at x/c =  0.3637   52

  29   rms: 0.6556E-02   max: -.1319E+00   C at   52  2
       a = -0.500      CL =  0.1772
      Cm = -0.0397     CD =  0.01115   =>   CDf =  0.00685    CDp =  0.00430

 Side 1  free  transition at x/c =  0.5522   60
 Side 2  free  transition at x/c =  0.3637   52

  30   rms: 0.6556E-02   max: -.1319E+00   C at   52  2
       a = -0.500      CL =  0.1772
      Cm = -0.0397     CD =  0.01115   =>   CDf =  0.00685    CDp =  0.00430

 Side 1  free  transition at x/c =  0.5522   60
 Side 2  free  transition at x/c =  0.3637   52

  31   rms: 0.6556E-02   max: -.1319E+00   C at   52  2
       a = -0.500      CL =  0.1772
      Cm = -0.0397     CD =  0.01115   =>   CDf =  0.00685    CDp =  0.00430

 Side 1  free  transition at x/c =  0.5522   60
 Side 2  free  transition at x/c =  0.3637   52

  32   rms: 0.6556E-02   max: -.1319E+00   C at   52  2
       a = -0.500      CL =  0.1772
      Cm = -0.0397     CD =  0.01115   =>   CDf =  0.00685    CDp =  0.00430

 Side 1  free  transition at x/c =  0.5522   60
 Side 2  free  transition at x/c =  0.3637   52

  33   rms: 0.6556E-02   max: -.1319E+00   C at   52  2
       a = -0.500      CL =  0.1772
      Cm = -0.0397     CD =  0.01115   =>   CDf =  0.00685    CDp =  0.00430

 Side 1  free  transition at x/c =  0.5522   60
 Side 2  free  transition at x/c =  0.3637   52

  34   rms: 0.6556E-02   max: -.1319E+00   C at   52  2
       a = -0.500      CL =  0.1772
      Cm = -0.0397     CD =  0.01115   =>   CDf =  0.00685    CDp =  0.00430

 Side 1  free  transition at x/c =  0.5522   60
 Side 2  free  transition at x/c =  0.3637   52

  35   rms: 0.6556E-02   max: -.1319E+00   C at   52  2
       a = -0.500      CL =  0.1772
      Cm = -0.0397     CD =  0.01115   =>   CDf =  0.00685    CDp =  0.00430

 Side 1  free  transition at x/c =  0.5522   60
 Side 2  free  transition at x/c =  0.3637   52

  36   rms: 0.6556E-02   max: -.1319E+00   C at   52  2
       a = -0.500      CL =  0.1772
      Cm = -0.0397     CD =  0.01115   =>   CDf =  0.00685    CDp =  0.00430

 Side 1  free  transition at x/c =  0.5522   60
 Side 2  free  transition at x/c =  0.3637   52

  37   rms: 0.6556E-02   max: -.1319E+00   C at   52  2
       a = -0.500      CL =  0.1772
      Cm = -0.0397     CD =  0.01115   =>   CDf =  0.00685    CDp =  0.00430

 Side 1  free  transition at x/c =  0.5522   60
 Side 2  free  transition at x/c =  0.3637   52

  38   rms: 0.6556E-02   max: -.1319E+00   C at   52  2
       a = -0.500      CL =  0.1772
      Cm = -0.0397     CD =  0.01115   =>   CDf =  0.00685    CDp =  0.00430

 Side 1  free  transition at x/c =  0.5522   60
 Side 2  free  transition at x/c =  0.3637   52

  39   rms: 0.6556E-02   max: -.1319E+00   C at   52  2
       a = -0.500      CL =  0.1772
      Cm = -0.0397     CD =  0.01115   =>   CDf =  0.00685    CDp =  0.00430

 Side 1  free  transition at x/c =  0.5522   60
 Side 2  free  transition at x/c =  0.3637   52

  40   rms: 0.6555E-02   max: -.1319E+00   C at   52  2
       a = -0.500      CL =  0.1772
      Cm = -0.0397     CD =  0.01115   =>   CDf =  0.00685    CDp =  0.00430

 Side 1  free  transition at x/c =  0.5522   60
 Side 2  free  transition at x/c =  0.3637   52

  41   rms: 0.6556E-02   max: -.1319E+00   C at   52  2
       a = -0.500      CL =  0.1772
      Cm = -0.0397     CD =  0.01115   =>   CDf =  0.00685    CDp =  0.00430

 Side 1  free  transition at x/c =  0.5522   60
 Side 2  free  transition at x/c =  0.3637   52

  42   rms: 0.6556E-02   max: -.1319E+00   C at   52  2
       a = -0.500      CL =  0.1772
      Cm = -0.0397     CD =  0.01115   =>   CDf =  0.00685    CDp =  0.00430

 Side 1  free  transition at x/c =  0.5522   60
 Side 2  free  transition at x/c =  0.3637   52

  43   rms: 0.6556E-02   max: -.1319E+00   C at   52  2
       a = -0.500      CL =  0.1772
      Cm = -0.0397     CD =  0.01115   =>   CDf =  0.00685    CDp =  0.00430

 Side 1  free  transition at x/c =  0.5522   60
 Side 2  free  transition at x/c =  0.3637   52

  44   rms: 0.6556E-02   max: -.1319E+00   C at   52  2
       a = -0.500      CL =  0.1772
      Cm = -0.0397     CD =  0.01115   =>   CDf =  0.00685    CDp =  0.00430

 Side 1  free  transition at x/c =  0.5522   60
 Side 2  free  transition at x/c =  0.3637   52

  45   rms: 0.6556E-02   max: -.1319E+00   C at   52  2
       a = -0.500      CL =  0.1772
      Cm = -0.0397     CD =  0.01115   =>   CDf =  0.00685    CDp =  0.00430

 Side 1  free  transition at x/c =  0.5522   60
 Side 2  free  transition at x/c =  0.3637   52

  46   rms: 0.6556E-02   max: -.1319E+00   C at   52  2
       a = -0.500      CL =  0.1772
      Cm = -0.0397     CD =  0.01115   =>   CDf =  0.00685    CDp =  0.00430

 Side 1  free  transition at x/c =  0.5522   60
 Side 2  free  transition at x/c =  0.3637   52

  47   rms: 0.6556E-02   max: -.1319E+00   C at   52  2
       a = -0.500      CL =  0.1772
      Cm = -0.0397     CD =  0.01115   =>   CDf =  0.00685    CDp =  0.00430

 Side 1  free  transition at x/c =  0.5522   60
 Side 2  free  transition at x/c =  0.3637   52

  48   rms: 0.6556E-02   max: -.1319E+00   C at   52  2
       a = -0.500      CL =  0.1772
      Cm = -0.0397     CD =  0.01115   =>   CDf =  0.00685    CDp =  0.00430

 Side 1  free  transition at x/c =  0.5522   60
 Side 2  free  transition at x/c =  0.3637   52

  49   rms: 0.6556E-02   max: -.1319E+00   C at   52  2
       a = -0.500      CL =  0.1772
      Cm = -0.0397     CD =  0.01115   =>   CDf =  0.00685    CDp =  0.00430

 Side 1  free  transition at x/c =  0.5522   60
 Side 2  free  transition at x/c =  0.3637   52

  50   rms: 0.6556E-02   max: -.1319E+00   C at   52  2
       a = -0.500      CL =  0.1772
      Cm = -0.0397     CD =  0.01115   =>   CDf =  0.00685    CDp =  0.00430

 Side 1  free  transition at x/c =  0.5522   60
 Side 2  free  transition at x/c =  0.3637   52

  51   rms: 0.6556E-02   max: -.1319E+00   C at   52  2
       a = -0.500      CL =  0.1772
      Cm = -0.0397     CD =  0.01115   =>   CDf =  0.00685    CDp =  0.00430

 Side 1  free  transition at x/c =  0.5522   60
 Side 2  free  transition at x/c =  0.3637   52

  52   rms: 0.6556E-02   max: -.1319E+00   C at   52  2
       a = -0.500      CL =  0.1772
      Cm = -0.0397     CD =  0.01115   =>   CDf =  0.00685    CDp =  0.00430

 Side 1  free  transition at x/c =  0.5522   60
 Side 2  free  transition at x/c =  0.3637   52

  53   rms: 0.6556E-02   max: -.1319E+00   C at   52  2
       a = -0.500      CL =  0.1772
      Cm = -0.0397     CD =  0.01115   =>   CDf =  0.00685    CDp =  0.00430

 Side 1  free  transition at x/c =  0.5522   60
 Side 2  free  transition at x/c =  0.3637   52

  54   rms: 0.6556E-02   max: -.1319E+00   C at   52  2
       a = -0.500      CL =  0.1772
      Cm = -0.0397     CD =  0.01115   =>   CDf =  0.00685    CDp =  0.00430

 Side 1  free  transition at x/c =  0.5522   60
 Side 2  free  transition at x/c =  0.3637   52

  55   rms: 0.6556E-02   max: -.1319E+00   C at   52  2
       a = -0.500      CL =  0.1772
      Cm = -0.0397     CD =  0.01115   =>   CDf =  0.00685    CDp =  0.00430

 Side 1  free  transition at x/c =  0.5522   60
 Side 2  free  transition at x/c =  0.3637   52

  56   rms: 0.6555E-02   max: -.1319E+00   C at   52  2
       a = -0.500      CL =  0.1772
      Cm = -0.0397     CD =  0.01115   =>   CDf =  0.00685    CDp =  0.00430

 Side 1  free  transition at x/c =  0.5522   60
 Side 2  free  transition at x/c =  0.3637   52

  57   rms: 0.6556E-02   max: -.1319E+00   C at   52  2
       a = -0.500      CL =  0.1772
      Cm = -0.0397     CD =  0.01115   =>   CDf =  0.00685    CDp =  0.00430

 Side 1  free  transition at x/c =  0.5522   60
 Side 2  free  transition at x/c =  0.3637   52

  58   rms: 0.6556E-02   max: -.1319E+00   C at   52  2
       a = -0.500      CL =  0.1772
      Cm = -0.0397     CD =  0.01115   =>   CDf =  0.00685    CDp =  0.00430

 Side 1  free  transition at x/c =  0.5522   60
 Side 2  free  transition at x/c =  0.3637   52

  59   rms: 0.6556E-02   max: -.1319E+00   C at   52  2
       a = -0.500      CL =  0.1772
      Cm = -0.0397     CD =  0.01115   =>   CDf =  0.00685    CDp =  0.00430

 Side 1  free  transition at x/c =  0.5522   60
 Side 2  free  transition at x/c =  0.3637   52

  60   rms: 0.6556E-02   max: -.1319E+00   C at   52  2
       a = -0.500      CL =  0.1772
      Cm = -0.0397     CD =  0.01115   =>   CDf =  0.00685    CDp =  0.00430

 Side 1  free  transition at x/c =  0.5522   60
 Side 2  free  transition at x/c =  0.3637   52

  61   rms: 0.6556E-02   max: -.1319E+00   C at   52  2
       a = -0.500      CL =  0.1772
      Cm = -0.0397     CD =  0.01115   =>   CDf =  0.00685    CDp =  0.00430

 Side 1  free  transition at x/c =  0.5522   60
 Side 2  free  transition at x/c =  0.3637   52

  62   rms: 0.6556E-02   max: -.1319E+00   C at   52  2
       a = -0.500      CL =  0.1772
      Cm = -0.0397     CD =  0.01115   =>   CDf =  0.00685    CDp =  0.00430

 Side 1  free  transition at x/c =  0.5522   60
 Side 2  free  transition at x/c =  0.3637   52

  63   rms: 0.6556E-02   max: -.1319E+00   C at   52  2
       a = -0.500      CL =  0.1772
      Cm = -0.0397     CD =  0.01115   =>   CDf =  0.00685    CDp =  0.00430

 Side 1  free  transition at x/c =  0.5522   60
 Side 2  free  transition at x/c =  0.3637   52

  64   rms: 0.6556E-02   max: -.1319E+00   C at   52  2
       a = -0.500      CL =  0.1772
      Cm = -0.0397     CD =  0.01115   =>   CDf =  0.00685    CDp =  0.00430

 Side 1  free  transition at x/c =  0.5522   60
 Side 2  free  transition at x/c =  0.3637   52

  65   rms: 0.6556E-02   max: -.1319E+00   C at   52  2
       a = -0.500      CL =  0.1772
      Cm = -0.0397     CD =  0.01115   =>   CDf =  0.00685    CDp =  0.00430

 Side 1  free  transition at x/c =  0.5522   60
 Side 2  free  transition at x/c =  0.3637   52

  66   rms: 0.6556E-02   max: -.1319E+00   C at   52  2
       a = -0.500      CL =  0.1772
      Cm = -0.0397     CD =  0.01115   =>   CDf =  0.00685    CDp =  0.00430

 Side 1  free  transition at x/c =  0.5522   60
 Side 2  free  transition at x/c =  0.3637   52

  67   rms: 0.6556E-02   max: -.1319E+00   C at   52  2
       a = -0.500      CL =  0.1772
      Cm = -0.0397     CD =  0.01115   =>   CDf =  0.00685    CDp =  0.00430

 Side 1  free  transition at x/c =  0.5522   60
 Side 2  free  transition at x/c =  0.3637   52

  68   rms: 0.6556E-02   max: -.1319E+00   C at   52  2
       a = -0.500      CL =  0.1772
      Cm = -0.0397     CD =  0.01115   =>   CDf =  0.00685    CDp =  0.00430

 Side 1  free  transition at x/c =  0.5522   60
 Side 2  free  transition at x/c =  0.3637   52

  69   rms: 0.6555E-02   max: -.1319E+00   C at   52  2
       a = -0.500      CL =  0.1772
      Cm = -0.0397     CD =  0.01115   =>   CDf =  0.00685    CDp =  0.00430

 Side 1  free  transition at x/c =  0.5522   60
 Side 2  free  transition at x/c =  0.3637   52

  70   rms: 0.6556E-02   max: -.1319E+00   C at   52  2
       a = -0.500      CL =  0.1772
      Cm = -0.0397     CD =  0.01115   =>   CDf =  0.00685    CDp =  0.00430

 Side 1  free  transition at x/c =  0.5522   60
 Side 2  free  transition at x/c =  0.3637   52

  71   rms: 0.6556E-02   max: -.1319E+00   C at   52  2
       a = -0.500      CL =  0.1772
      Cm = -0.0397     CD =  0.01115   =>   CDf =  0.00685    CDp =  0.00430

 Side 1  free  transition at x/c =  0.5522   60
 Side 2  free  transition at x/c =  0.3637   52

  72   rms: 0.6556E-02   max: -.1319E+00   C at   52  2
       a = -0.500      CL =  0.1772
      Cm = -0.0397     CD =  0.01115   =>   CDf =  0.00685    CDp =  0.00430

 Side 1  free  transition at x/c =  0.5522   60
 Side 2  free  transition at x/c =  0.3637   52

  73   rms: 0.6556E-02   max: -.1319E+00   C at   52  2
       a = -0.500      CL =  0.1772
      Cm = -0.0397     CD =  0.01115   =>   CDf =  0.00685    CDp =  0.00430

 Side 1  free  transition at x/c =  0.5522   60
 Side 2  free  transition at x/c =  0.3637   52

  74   rms: 0.6556E-02   max: -.1319E+00   C at   52  2
       a = -0.500      CL =  0.1772
      Cm = -0.0397     CD =  0.01115   =>   CDf =  0.00685    CDp =  0.00430

 Side 1  free  transition at x/c =  0.5522   60
 Side 2  free  transition at x/c =  0.3637   52

  75   rms: 0.6556E-02   max: -.1319E+00   C at   52  2
       a = -0.500      CL =  0.1772
      Cm = -0.0397     CD =  0.01115   =>   CDf =  0.00685    CDp =  0.00430

 Side 1  free  transition at x/c =  0.5522   60
 Side 2  free  transition at x/c =  0.3637   52

  76   rms: 0.6556E-02   max: -.1319E+00   C at   52  2
       a = -0.500      CL =  0.1772
      Cm = -0.0397     CD =  0.01115   =>   CDf =  0.00685    CDp =  0.00430

 Side 1  free  transition at x/c =  0.5522   60
 Side 2  free  transition at x/c =  0.3637   52

  77   rms: 0.6556E-02   max: -.1319E+00   C at   52  2
       a = -0.500      CL =  0.1772
      Cm = -0.0397     CD =  0.01115   =>   CDf =  0.00685    CDp =  0.00430

 Side 1  free  transition at x/c =  0.5522   60
 Side 2  free  transition at x/c =  0.3637   52

  78   rms: 0.6556E-02   max: -.1319E+00   C at   52  2
       a = -0.500      CL =  0.1772
      Cm = -0.0397     CD =  0.01115   =>   CDf =  0.00685    CDp =  0.00430

 Side 1  free  transition at x/c =  0.5522   60
 Side 2  free  transition at x/c =  0.3637   52

  79   rms: 0.6556E-02   max: -.1319E+00   C at   52  2
       a = -0.500      CL =  0.1772
      Cm = -0.0397     CD =  0.01115   =>   CDf =  0.00685    CDp =  0.00430

 Side 1  free  transition at x/c =  0.5522   60
 Side 2  free  transition at x/c =  0.3637   52

  80   rms: 0.6556E-02   max: -.1319E+00   C at   52  2
       a = -0.500      CL =  0.1772
      Cm = -0.0397     CD =  0.01115   =>   CDf =  0.00685    CDp =  0.00430

 Side 1  free  transition at x/c =  0.5522   60
 Side 2  free  transition at x/c =  0.3637   52

  81   rms: 0.6556E-02   max: -.1319E+00   C at   52  2
       a = -0.500      CL =  0.1772
      Cm = -0.0397     CD =  0.01115   =>   CDf =  0.00685    CDp =  0.00430

 Side 1  free  transition at x/c =  0.5522   60
 Side 2  free  transition at x/c =  0.3637   52

  82   rms: 0.6556E-02   max: -.1319E+00   C at   52  2
       a = -0.500      CL =  0.1772
      Cm = -0.0397     CD =  0.01115   =>   CDf =  0.00685    CDp =  0.00430

 Side 1  free  transition at x/c =  0.5522   60
 Side 2  free  transition at x/c =  0.3637   52

  83   rms: 0.6556E-02   max: -.1319E+00   C at   52  2
       a = -0.500      CL =  0.1772
      Cm = -0.0397     CD =  0.01115   =>   CDf =  0.00685    CDp =  0.00430

 Side 1  free  transition at x/c =  0.5522   60
 Side 2  free  transition at x/c =  0.3637   52

  84   rms: 0.6556E-02   max: -.1319E+00   C at   52  2
       a = -0.500      CL =  0.1772
      Cm = -0.0397     CD =  0.01115   =>   CDf =  0.00685    CDp =  0.00430

 Side 1  free  transition at x/c =  0.5522   60
 Side 2  free  transition at x/c =  0.3637   52

  85   rms: 0.6556E-02   max: -.1319E+00   C at   52  2
       a = -0.500      CL =  0.1772
      Cm = -0.0397     CD =  0.01115   =>   CDf =  0.00685    CDp =  0.00430

 Side 1  free  transition at x/c =  0.5522   60
 Side 2  free  transition at x/c =  0.3637   52

  86   rms: 0.6556E-02   max: -.1319E+00   C at   52  2
       a = -0.500      CL =  0.1772
      Cm = -0.0397     CD =  0.01115   =>   CDf =  0.00685    CDp =  0.00430

 Side 1  free  transition at x/c =  0.5522   60
 Side 2  free  transition at x/c =  0.3637   52

  87   rms: 0.6556E-02   max: -.1319E+00   C at   52  2
       a = -0.500      CL =  0.1772
      Cm = -0.0397     CD =  0.01115   =>   CDf =  0.00685    CDp =  0.00430

 Side 1  free  transition at x/c =  0.5522   60
 Side 2  free  transition at x/c =  0.3637   52

  88   rms: 0.6555E-02   max: -.1319E+00   C at   52  2
       a = -0.500      CL =  0.1772
      Cm = -0.0397     CD =  0.01115   =>   CDf =  0.00685    CDp =  0.00430

 Side 1  free  transition at x/c =  0.5522   60
 Side 2  free  transition at x/c =  0.3637   52

  89   rms: 0.6556E-02   max: -.1319E+00   C at   52  2
       a = -0.500      CL =  0.1772
      Cm = -0.0397     CD =  0.01115   =>   CDf =  0.00685    CDp =  0.00430

 Side 1  free  transition at x/c =  0.5522   60
 Side 2  free  transition at x/c =  0.3637   52

  90   rms: 0.6556E-02   max: -.1319E+00   C at   52  2
       a = -0.500      CL =  0.1772
      Cm = -0.0397     CD =  0.01115   =>   CDf =  0.00685    CDp =  0.00430

 Side 1  free  transition at x/c =  0.5522   60
 Side 2  free  transition at x/c =  0.3637   52

  91   rms: 0.6556E-02   max: -.1319E+00   C at   52  2
       a = -0.500      CL =  0.1772
      Cm = -0.0397     CD =  0.01115   =>   CDf =  0.00685    CDp =  0.00430

 Side 1  free  transition at x/c =  0.5522   60
 Side 2  free  transition at x/c =  0.3637   52

  92   rms: 0.6556E-02   max: -.1319E+00   C at   52  2
       a = -0.500      CL =  0.1772
      Cm = -0.0397     CD =  0.01115   =>   CDf =  0.00685    CDp =  0.00430

 Side 1  free  transition at x/c =  0.5522   60
 Side 2  free  transition at x/c =  0.3637   52

  93   rms: 0.6556E-02   max: -.1319E+00   C at   52  2
       a = -0.500      CL =  0.1772
      Cm = -0.0397     CD =  0.01115   =>   CDf =  0.00685    CDp =  0.00430

 Side 1  free  transition at x/c =  0.5522   60
 Side 2  free  transition at x/c =  0.3637   52

  94   rms: 0.6556E-02   max: -.1319E+00   C at   52  2
       a = -0.500      CL =  0.1772
      Cm = -0.0397     CD =  0.01115   =>   CDf =  0.00685    CDp =  0.00430

 Side 1  free  transition at x/c =  0.5522   60
 Side 2  free  transition at x/c =  0.3637   52

  95   rms: 0.6556E-02   max: -.1319E+00   C at   52  2
       a = -0.500      CL =  0.1772
      Cm = -0.0397     CD =  0.01115   =>   CDf =  0.00685    CDp =  0.00430

[...]
 Dump file unspecified or not available
 Calculating wake trajectory ...
 Calculating source influence matrix ...

 Solving BL system ...

 Side 1  free  transition at x/c =  0.2615   63
 Side 2 forced transition at x/c =  1.0000   61

   1   rms: 0.3797E-01   max: -.3196E+00   D at    3  1   RLX: 0.511
       a = 13.000      CL =  1.2956
      Cm = -0.0085     CD =  0.03311   =>   CDf =  0.00537    CDp =  0.02774

 Side 1  free  transition at x/c =  0.2582   64
 Side 2 forced transition at x/c =  1.0000   60

   2   rms: 0.1945E-01   max: 0.1534E+00   D at    2  1
       a = 13.000      CL =  1.2975
      Cm = -0.0077     CD =  0.03386   =>   CDf =  0.00549    CDp =  0.02836

 Side 1  free  transition at x/c =  0.2554   64
 Side 2 forced transition at x/c =  1.0000   60

   3   rms: 0.1492E-02   max: 0.1300E-01   D at   85  1
       a = 13.000      CL =  1.2962
      Cm = -0.0076     CD =  0.03389   =>   CDf =  0.00551    CDp =  0.02839

 Side 1  free  transition at x/c =  0.2554   64
 Side 2 forced transition at x/c =  1.0000   60

   4   rms: 0.7866E-04   max: 0.7649E-03   D at   85  1
       a = 13.000      CL =  1.2961
      Cm = -0.0076     CD =  0.03389   =>   CDf =  0.00550    CDp =  0.02839
 plradd ia,ip,cpol           39           0  3.83259505E-02

 Point added to stored polar  1
 Point written to save file  naca4424_Re600k.base.pol                        
 Dump file unspecified or not available
 Calculating wake trajectory ...
 Calculating source influence matrix ...

 Solving BL system ...

 Side 1  free  transition at x/c =  0.2554   64
 Side 2 forced transition at x/c =  1.0000   60

   1   rms: 0.3535E-01   max: -.1663E+00   D at    5  1   RLX: 0.494
       a = 13.250      CL =  1.2970
      Cm = -0.0068     CD =  0.03480   =>   CDf =  0.00551    CDp =  0.02929

 Side 1  free  transition at x/c =  0.2528   63
 Side 2 forced transition at x/c =  1.0000   60

   2   rms: 0.1610E-01   max: -.8027E-01   D at    5  1
       a = 13.250      CL =  1.3035
      Cm = -0.0063     CD =  0.03525   =>   CDf =  0.00552    CDp =  0.02973

 Side 1  free  transition at x/c =  0.2500   63
 Side 2 forced transition at x/c =  1.0000   60

   3   rms: 0.1156E-02   max: -.9692E-02   C at   63  1
       a = 13.250      CL =  1.3024
      Cm = -0.0062     CD =  0.03528   =>   CDf =  0.00549    CDp =  0.02979

 Side 1  free  transition at x/c =  0.2502   63
 Side 2 forced transition at x/c =  1.0000   60

   4   rms: 0.9348E-05   max: 0.8485E-04   D at   71  2
       a = 13.250      CL =  1.3024
      Cm = -0.0062     CD =  0.03528   =>   CDf =  0.00549    CDp =  0.02979
 plradd ia,ip,cpol           40           0  3.83259505E-02

 Point added to stored polar  1
 Point written to save file  naca4424_Re600k.base.pol                        
 Dump file unspecified or not available
 Calculating wake trajectory ...
 Calculating source influence matrix ...

 Solving BL system ...

 Side 1  free  transition at x/c =  0.2502   63
 Side 2 forced transition at x/c =  1.0000   60

   1   rms: 0.2832E-01   max: 0.8688E-01   D at   83  1   RLX: 0.486
       a = 13.500      CL =  1.3077
      Cm = -0.0057     CD =  0.03586   =>   CDf =  0.00549    CDp =  0.03037

 Side 1  free  transition at x/c =  0.2476   63
 Side 2 forced transition at x/c =  1.0000   60

   2   rms: 0.1473E-01   max: 0.5265E-01   D at   84  1
       a = 13.500      CL =  1.3118
      Cm = -0.0051     CD =  0.03654   =>   CDf =  0.00548    CDp =  0.03106

 Side 1  free  transition at x/c =  0.2447   63
 Side 2 forced transition at x/c =  1.0000   60

   3   rms: 0.1088E-02   max: -.7964E-02   C at   63  1
       a = 13.500      CL =  1.3108
      Cm = -0.0051     CD =  0.03655   =>   CDf =  0.00548    CDp =  0.03107

 Side 1  free  transition at x/c =  0.2449   63
 Side 2 forced transition at x/c =  1.0000   60

   4   rms: 0.3676E-04   max: 0.3879E-03   D at   84  1
       a = 13.500      CL =  1.3108
      Cm = -0.0051     CD =  0.03655   =>   CDf =  0.00547    CDp =  0.03107
 plradd ia,ip,cpol           41           0  3.83259505E-02

 Point added to stored polar  1
 Point written to save file  naca4424_Re600k.base.pol                        
 Dump file unspecified or not available
 Calculating wake trajectory ...
 Calculating source influence matrix ...

 Solving BL system ...

 Side 1  free  transition at x/c =  0.2449   63
 Side 2 forced transition at x/c =  1.0000   60

   1   rms: 0.3032E-01   max: 0.1180E+00   D at   83  1   RLX: 0.473
       a = 13.750      CL =  1.3134
      Cm = -0.0044     CD =  0.03732   =>   CDf =  0.00548    CDp =  0.03184

 Side 1  free  transition at x/c =  0.2420   63
 Side 2 forced transition at x/c =  1.0000   60

   2   rms: 0.1762E-01   max: 0.8770E-01   D at   84  1
       a = 13.750      CL =  1.3125
      Cm = -0.0036     CD =  0.03845   =>   CDf =  0.00549    CDp =  0.03296

 Side 1  free  transition at x/c =  0.2392   63
 Side 2 forced transition at x/c =  1.0000   60

   3   rms: 0.8816E-03   max: 0.7302E-02   D at   71  2
       a = 13.750      CL =  1.3117
      Cm = -0.0035     CD =  0.03839   =>   CDf =  0.00550    CDp =  0.03289

 Side 1  free  transition at x/c =  0.2392   63
 Side 2 forced transition at x/c =  1.0000   60

   4   rms: 0.2254E-04   max: 0.3122E-03   D at   71  2
       a = 13.750      CL =  1.3117
      Cm = -0.0035     CD =  0.03839   =>   CDf =  0.00550    CDp =  0.03289
 plradd ia,ip,cpol           42           0  3.42734009E-02

 Point added to stored polar  1
 Point written to save file  naca4424_Re600k.base.pol                        
 Dump file unspecified or not available
 Calculating wake trajectory ...
 Calculating source influence matrix ...

 Solving BL system ...

 Side 1  free  transition at x/c =  0.2392   63
 Side 2 forced transition at x/c =  1.0000   60

   1   rms: 0.3213E-01   max: -.1584E+00   D at   63  1   RLX: 0.458
       a = 14.000      CL =  1.3120
      Cm = -0.0028     CD =  0.03933   =>   CDf =  0.00550    CDp =  0.03383

 Side 1  free  transition at x/c =  0.2369   62
 Side 2 forced transition at x/c =  1.0000   60

   2   rms: 0.1575E-01   max: -.6509E-01   C at   62  1
       a = 14.000      CL =  1.3211
      Cm = -0.0025     CD =  0.03969   =>   CDf =  0.00537    CDp =  0.03431

 Side 1  free  transition at x/c =  0.2341   63
 Side 2 forced transition at x/c =  1.0000   59

   3   rms: 0.1469E-02   max: 0.7569E-02   D at   84  1
       a = 14.000      CL =  1.3197
      Cm = -0.0024     CD =  0.03975   =>   CDf =  0.00547    CDp =  0.03428

 Side 1  free  transition at x/c =  0.2342   63
 Side 2 forced transition at x/c =  1.0000   59

   4   rms: 0.2837E-03   max: -.3250E-02   D at    4  1
       a = 14.000      CL =  1.3197
      Cm = -0.0024     CD =  0.03974   =>   CDf =  0.00547    CDp =  0.03428

 Side 1  free  transition at x/c =  0.2342   63
 Side 2 forced transition at x/c =  1.0000   59

   5   rms: 0.1312E-05   max: 0.8353E-05   D at   74  2
       a = 14.000      CL =  1.3197
      Cm = -0.0024     CD =  0.03974   =>   CDf =  0.00547    CDp =  0.03428
 plradd ia,ip,cpol           43           0  3.04941405E-02

 Point added to stored polar  1
 Point written to save file  naca4424_Re600k.base.pol                        
 Dump file unspecified or not available
 Calculating wake trajectory ...
 Calculating source influence matrix ...

 Solving BL system ...

 Side 1  free  transition at x/c =  0.2342   63
 Side 2 forced transition at x/c =  1.0000   59

   1   rms: 0.3048E-01   max: -.1672E+00   D at    3  1   RLX: 0.452
       a = 14.250      CL =  1.3236
      Cm = -0.0020     CD =  0.04040   =>   CDf =  0.00547    CDp =  0.03493

 Side 1  free  transition at x/c =  0.2318   63
 Side 2 forced transition at x/c =  1.0000   59

   2   rms: 0.1752E-01   max: -.8713E-01   D at    3  1
       a = 14.250      CL =  1.3253
      Cm = -0.0014     CD =  0.04142   =>   CDf =  0.00546    CDp =  0.03596

 Side 1  free  transition at x/c =  0.2289   63
 Side 2 forced transition at x/c =  1.0000   59

   3   rms: 0.1006E-02   max: -.7390E-02   C at   63  1
       a = 14.250      CL =  1.3244
      Cm = -0.0013     CD =  0.04139   =>   CDf =  0.00545    CDp =  0.03593

 Side 1  free  transition at x/c =  0.2291   63
 Side 2 forced transition at x/c =  1.0000   59

   4   rms: 0.1018E-04   max: -.9057E-04   D at   84  1
       a = 14.250      CL =  1.3244
      Cm = -0.0013     CD =  0.04138   =>   CDf =  0.00545    CDp =  0.03593
 plradd ia,ip,cpol           44           0  3.04941405E-02

 Point added to stored polar  1
 Point written to save file  naca4424_Re600k.base.pol                        
 Dump file unspecified or not available
 Calculating wake trajectory ...
 Calculating source influence matrix ...

 Solving BL system ...

 Side 1  free  transition at x/c =  0.2291   63
 Side 2 forced transition at x/c =  1.0000   59

   1   rms: 0.3253E-01   max: -.1619E+00   D at    3  2   RLX: 0.439
       a = 14.500      CL =  1.3261
      Cm = -0.0008     CD =  0.04221   =>   CDf =  0.00545    CDp =  0.03676

 Side 1  free  transition at x/c =  0.2265   63
 Side 2 forced transition at x/c =  1.0000   59

   2   rms: 0.1889E-01   max: 0.8767E-01   D at    4  2
       a = 14.500      CL =  1.3262
      Cm = -0.0001     CD =  0.04339   =>   CDf =  0.00546    CDp =  0.03793

 Side 1  free  transition at x/c =  0.2234   63
 Side 2 forced transition at x/c =  1.0000   59

   3   rms: 0.2073E-02   max: 0.1721E-01   D at   83  1
       a = 14.500      CL =  1.3242
      Cm =  0.0001     CD =  0.04343   =>   CDf =  0.00548    CDp =  0.03795

 Side 1  free  transition at x/c =  0.2234   63
 Side 2 forced transition at x/c =  1.0000   59

   4   rms: 0.1791E-03   max: 0.1698E-02   D at   83  1
       a = 14.500      CL =  1.3241
      Cm =  0.0001     CD =  0.04343   =>   CDf =  0.00548    CDp =  0.03795

 Side 1  free  transition at x/c =  0.2234   63
 Side 2 forced transition at x/c =  1.0000   59

   5   rms: 0.5155E-05   max: 0.3301E-04   D at   70  2
       a = 14.500      CL =  1.3241
      Cm =  0.0001     CD =  0.04343   =>   CDf =  0.00548    CDp =  0.03795
 plradd ia,ip,cpol           45           0  3.42734009E-02

 Point added to stored polar  1
 Point written to save file  naca4424_Re600k.base.pol                        
 Dump file unspecified or not available
 Calculating wake trajectory ...
 Calculating source influence matrix ...

 Solving BL system ...

 Side 1  free  transition at x/c =  0.2234   63
 Side 2 forced transition at x/c =  1.0000   59

   1   rms: 0.3435E-01   max: 0.1595E+00   D at   82  1   RLX: 0.425
       a = 14.750      CL =  1.3233
      Cm =  0.0006     CD =  0.04448   =>   CDf =  0.00548    CDp =  0.03900

 Side 1  free  transition at x/c =  0.2215   62
 Side 2 forced transition at x/c =  1.0000   59

   2   rms: 0.1781E-01   max: 0.8295E-01   D at    3  2
       a = 14.750      CL =  1.3324
      Cm =  0.0008     CD =  0.04494   =>   CDf =  0.00546    CDp =  0.03948

 Side 1  free  transition at x/c =  0.2190   62
 Side 2 forced transition at x/c =  1.0000   59

   3   rms: 0.1154E-02   max: -.6147E-02   C at   62  1
       a = 14.750      CL =  1.3312
      Cm =  0.0009     CD =  0.04497   =>   CDf =  0.00543    CDp =  0.03954

 Side 1  free  transition at x/c =  0.2191   62
 Side 2 forced transition at x/c =  1.0000   59

   4   rms: 0.1866E-04   max: 0.1492E-03   D at   71  2
       a = 14.750      CL =  1.3312
      Cm =  0.0009     CD =  0.04496   =>   CDf =  0.00543    CDp =  0.03953
 plradd ia,ip,cpol           46           0  3.04941405E-02

 Point added to stored polar  1
 Point written to save file  naca4424_Re600k.base.pol                        
 Dump file unspecified or not available
 Calculating wake trajectory ...
 Calculating source influence matrix ...

 Solving BL system ...

 Side 1  free  transition at x/c =  0.2191   62
 Side 2 forced transition at x/c =  1.0000   59

   1   rms: 0.2950E-01   max: -.1377E+00   D at    4  1   RLX: 0.420
       a = 15.000      CL =  1.3345
      Cm =  0.0012     CD =  0.04566   =>   CDf =  0.00543    CDp =  0.04023

 Side 1  free  transition at x/c =  0.2168   62
 Side 2 forced transition at x/c =  1.0000   59

   2   rms: 0.1751E-01   max: -.7463E-01   D at    4  1
       a = 15.000      CL =  1.3370
      Cm =  0.0017     CD =  0.04674   =>   CDf =  0.00529    CDp =  0.04144

 Side 1  free  transition at x/c =  0.2131   63
 Side 2 forced transition at x/c =  1.0000   58
 idif Ue xi dudx           1  6.18950129E-02  4.44531441E-03   13.923653    
 Uenew xinew           2  1.26146988E-04  9.05990601E-06

   3   rms: 0.5185E-02   max: -.7971E-01   D at    2  1
       a = 15.000      CL =  1.3351
      Cm =  0.0019     CD =  0.04678   =>   CDf =  0.00557    CDp =  0.04121

 Side 1  free  transition at x/c =  0.2137   62
 Side 2 forced transition at x/c =  1.0000   59

   4   rms: 0.3610E-03   max: -.4075E-02   D at    3  1
       a = 15.000      CL =  1.3350
      Cm =  0.0019     CD =  0.04677   =>   CDf =  0.00542    CDp =  0.04135

 Side 1  free  transition at x/c =  0.2137   62
 Side 2 forced transition at x/c =  1.0000   59

   5   rms: 0.2521E-03   max: 0.3100E-02   D at    4  2
       a = 15.000      CL =  1.3350
      Cm =  0.0019     CD =  0.04677   =>   CDf =  0.00542    CDp =  0.04135

 Side 1  free  transition at x/c =  0.2137   62
 Side 2 forced transition at x/c =  1.0000   59

   6   rms: 0.1003E-04   max: 0.1272E-03   D at    4  2
       a = 15.000      CL =  1.3350
      Cm =  0.0019     CD =  0.04677   =>   CDf =  0.00542    CDp =  0.04135
 plradd ia,ip,cpol           47           0  3.04941405E-02

 Point added to stored polar  1
 Point written to save file  naca4424_Re600k.base.pol                        
 Dump file unspecified or not available
 Calculating wake trajectory ...
 Calculating source influence matrix ...

 Solving BL system ...

 Side 1  free  transition at x/c =  0.2137   62
 Side 2 forced transition at x/c =  1.0000   59

   1   rms: 0.3717E-01   max: -.3528E+00   T at    2  2   RLX: 0.408
       a = 15.250      CL =  1.3351
      Cm =  0.0023     CD =  0.04775   =>   CDf =  0.00530    CDp =  0.04245

 Side 1  free  transition at x/c =  0.2115   63
 Side 2 forced transition at x/c =  1.0000   58

   2   rms: 0.2108E-01   max: 0.1084E+00   D at   83  1
       a = 15.250      CL =  1.3319
      Cm =  0.0030     CD =  0.04942   =>   CDf =  0.00543    CDp =  0.04399

 Side 1  free  transition at x/c =  0.2087   62
 Side 2 forced transition at x/c =  1.0000   58

   3   rms: 0.1086E-02   max: -.9091E-02   D at   63  1
       a = 15.250      CL =  1.3323
      Cm =  0.0030     CD =  0.04915   =>   CDf =  0.00544    CDp =  0.04372

 Side 1  free  transition at x/c =  0.2085   62
 Side 2 forced transition at x/c =  1.0000   58

   4   rms: 0.4467E-04   max: -.2477E-03   D at   72  2
       a = 15.250      CL =  1.3323
      Cm =  0.0030     CD =  0.04916   =>   CDf =  0.00544    CDp =  0.04372
 plradd ia,ip,cpol           48           0  3.04941405E-02

 Point added to stored polar  1
 Point written to save file  naca4424_Re600k.base.pol                        
 Dump file unspecified or not available
 Calculating wake trajectory ...
 Calculating source influence matrix ...

 Solving BL system ...

 Side 1  free  transition at x/c =  0.2085   62
 Side 2 forced transition at x/c =  1.0000   58

   1   rms: 0.3204E-01   max: -.2390E+00   D at    3  1   RLX: 0.400
       a = 15.500      CL =  1.3367
      Cm =  0.0032     CD =  0.04973   =>   CDf =  0.00544    CDp =  0.04429

 Side 1  free  transition at x/c =  0.2069   62
 Side 2 forced transition at x/c =  1.0000   58

   2   rms: 0.1877E-01   max: -.1308E+00   D at    3  1
       a = 15.500      CL =  1.3412
      Cm =  0.0036     CD =  0.05073   =>   CDf =  0.00541    CDp =  0.04531

 Side 1  free  transition at x/c =  0.2043   62
 Side 2 forced transition at x/c =  1.0000   58

   3   rms: 0.1528E-02   max: 0.1032E-01   D at   82  1
       a = 15.500      CL =  1.3398
      Cm =  0.0037     CD =  0.05073   =>   CDf =  0.00539    CDp =  0.04534

 Side 1  free  transition at x/c =  0.2043   62
 Side 2 forced transition at x/c =  1.0000   58

   4   rms: 0.1088E-03   max: 0.8699E-03   D at   82  1
       a = 15.500      CL =  1.3397
      Cm =  0.0037     CD =  0.05072   =>   CDf =  0.00539    CDp =  0.04533

 Side 1  free  transition at x/c =  0.2043   62
 Side 2 forced transition at x/c =  1.0000   58

   5   rms: 0.3354E-05   max: 0.2202E-04   D at   70  2
       a = 15.500      CL =  1.3397
      Cm =  0.0037     CD =  0.05072   =>   CDf =  0.00539    CDp =  0.04533
 plradd ia,ip,cpol           49           0  2.69767456E-02

 Point added to stored polar  1
 Point written to save file  naca4424_Re600k.base.pol                        
 Dump file unspecified or not available
 Calculating wake trajectory ...
 Calculating source influence matrix ...

 Solving BL system ...

 Side 1  free  transition at x/c =  0.2043   62
 Side 2 forced transition at x/c =  1.0000   58

   1   rms: 0.3136E-01   max: 0.2014E+00   T at    3  1   RLX: 0.391
       a = 15.750      CL =  1.3415
      Cm =  0.0039     CD =  0.05154   =>   CDf =  0.00539    CDp =  0.04615

 Side 1  free  transition at x/c =  0.2024   62
 Side 2 forced transition at x/c =  1.0000   58

   2   rms: 0.1997E-01   max: 0.1183E+00   D at    3  1
       a = 15.750      CL =  1.3417
      Cm =  0.0044     CD =  0.05301   =>   CDf =  0.00538    CDp =  0.04763

 Side 1  free  transition at x/c =  0.1995   62
 Side 2 forced transition at x/c =  1.0000   58

   3   rms: 0.1218E-02   max: -.7545E-02   C at   62  1
       a = 15.750      CL =  1.3407
      Cm =  0.0045     CD =  0.05290   =>   CDf =  0.00538    CDp =  0.04752

 Side 1  free  transition at x/c =  0.1996   62
 Side 2 forced transition at x/c =  1.0000   58

   4   rms: 0.1155E-04   max: 0.1025E-03   D at   71  2
       a = 15.750      CL =  1.3407
      Cm =  0.0045     CD =  0.05289   =>   CDf =  0.00537    CDp =  0.04751
 plradd ia,ip,cpol           50           0  2.69767456E-02

 Point added to stored polar  1
 Point written to save file  naca4424_Re600k.base.pol                        
 Dump file unspecified or not available
 Calculating wake trajectory ...
 Calculating source influence matrix ...

 Solving BL system ...

 Side 1  free  transition at x/c =  0.1996   62
 Side 2 forced transition at x/c =  1.0000   58

   1   rms: 0.3083E-01   max: -.1462E+00   D at   62  1   RLX: 0.381
       a = 16.000      CL =  1.3408
      Cm =  0.0048     CD =  0.05386   =>   CDf =  0.00538    CDp =  0.04848

 Side 1  free  transition at x/c =  0.1977   62
 Side 2 forced transition at x/c =  1.0000   58

   2   rms: 0.1973E-01   max: -.9969E-01   D at   62  1
       a = 16.000      CL =  1.3393
      Cm =  0.0053     CD =  0.05548   =>   CDf =  0.00539    CDp =  0.05009

 Side 1  free  transition at x/c =  0.1950   61
 Side 2 forced transition at x/c =  1.0000   58

   3   rms: 0.1479E-02   max: 0.1482E-01   D at   81  1
       a = 16.000      CL =  1.3383
      Cm =  0.0054     CD =  0.05536   =>   CDf =  0.00539    CDp =  0.04997

 Side 1  free  transition at x/c =  0.1948   61
 Side 2 forced transition at x/c =  1.0000   58

   4   rms: 0.1028E-03   max: 0.8808E-03   D at   81  1
       a = 16.000      CL =  1.3382
      Cm =  0.0054     CD =  0.05536   =>   CDf =  0.00539    CDp =  0.04997

 Side 1  free  transition at x/c =  0.1948   61
 Side 2 forced transition at x/c =  1.0000   58

   5   rms: 0.4502E-05   max: 0.2538E-04   D at   71  2
       a = 16.000      CL =  1.3382
      Cm =  0.0054     CD =  0.05536   =>   CDf =  0.00539    CDp =  0.04997
 plradd ia,ip,cpol           51           0  2.69767456E-02

 Point added to stored polar  1
 Point written to save file  naca4424_Re600k.base.pol                        
 Dump file unspecified or not available

.OPERva   c>  
 Polar accumulation disabled

.OPERv   c>  
 XFOIL   c>  
 XFOIL   c>  