
 ===================================================
  XFOIL Version 6.99
  Copyright (C) 2000   Mark Drela, Harold Youngren

  This software comes with ABSOLUTELY NO WARRANTY,
    subject to the GNU General Public License.

  Caveat computor
 ===================================================

 File  xfoil.def  not found

   QUIT    Exit program

  .OPER    Direct operating point(s)
  .MDES    Complex mapping design routine
  .QDES    Surface speed design routine
  .GDES    Geometry design routine

   SAVE f  Write airfoil to labeled coordinate file
   PSAV f  Write airfoil to plain coordinate file
   ISAV f  Write airfoil to ISES coordinate file
   MSAV f  Write airfoil to MSES coordinate file
   REVE    Reverse written-airfoil node ordering

   LOAD f  Read buffer airfoil from coordinate file
   NACA i  Set NACA 4,5-digit airfoil and buffer airfoil
   INTE    Set buffer airfoil by interpolating two airfoils
   NORM    Buffer airfoil normalization toggle
   XYCM rr Change CM reference location, currently  0.25000 0.00000

   BEND    Display structural properties of current airfoil

   PCOP    Set current-airfoil panel nodes directly from buffer airfoil points
   PANE    Set current-airfoil panel nodes ( 160 ) based on curvature
  .PPAR    Show/change paneling

  .PLOP    Plotting options

   WDEF f  Write  current-settings file
   RDEF f  Reread current-settings file
   NAME s  Specify new airfoil name
   NINC    Increment name version number

   Z       Zoom    | (available in all menus)
   U       Unzoom  | 

 XFOIL   c>  
 Labeled airfoil file.  Name:   NACA 23012  12%                                

 Number of input coordinate points:  61
 Counterclockwise ordering
 Max thickness =     0.120050  at x =   0.297
 Max camber    =     0.014608  at x =   0.165

  LE  x,y  =  -0.00061   0.00439  |   Chord =   1.00062
  TE  x,y  =   1.00000   0.00000  |

 Current airfoil nodes set from buffer airfoil nodes (  61 )

 XFOIL   c>  
 XFOIL   c>  
 Blunt trailing edge.  Gap =  0.00252

 Paneling parameters used...
   Number of panel nodes       160
   Panel bunching parameter    1.000
   TE/LE panel density ratio   0.150
   Refined-area/LE panel density ratio    0.200
   Top    side refined area x/c limits  1.000 1.000
   Bottom side refined area x/c limits  1.000 1.000

 XFOIL   c>  
.OPERi   c>  
 Xtr/c     =  1.0000    top    side
 Xtr/c     =  1.0000    bottom side
 Ncrit     =    9.00   ( 0.070 % turb. level )
 Vacc      =  0.0100

 Klag  =  5.6000     Uxwt  =    1.00
 A     =  6.7000     B     =  0.7500       KCt = 0.01485
 CtiniK=  1.8000     CtiniX=  3.3000

..VPAR   c>  
..VPAR   c>  
.OPERi   c>  
 M  =    0.0000
 Re =    600000

.OPERv   c>  
.OPERv   c>  
.OPERv   c>  
 Polar  1 newly created for accumulation
 Airfoil archived with polar: NACA 23012  12%                                 

Enter  polar save filename  OR  <return> for no file   s>  
 New polar save file available

Enter  polar dump filename  OR  <return> for no file   s>  
 Polar dump file will NOT be written

 Polar accumulation enabled

.OPERva   c>   Calculating unit vorticity distributions ...
 Calculating wake trajectory ...
 Calculating source influence matrix ...

 Solving BL system ...

 Initializing BL ...
    side            1  ...
 MRCHUE: Inverse mode at  61     Hk =   4.031
 MRCHUE: Inverse mode at  62     Hk =   4.635
 MRCHUE: Inverse mode at  63     Hk =   5.230
 MRCHUE: Inverse mode at  64     Hk =   5.817
 MRCHUE: Inverse mode at  65     Hk =   6.398
 MRCHUE: Inverse mode at  66     Hk =   6.974
 MRCHUE: Inverse mode at  67     Hk =   5.629
 MRCHUE: Inverse mode at  68     Hk =   3.390
    side            2  ...
 MRCHUE: Inverse mode at  20     Hk =   3.982
 MRCHUE: Inverse mode at  21     Hk =   4.927
 MRCHUE: Inverse mode at  22     Hk =   5.861
 MRCHUE: Inverse mode at  23     Hk =   6.815
 MRCHUE: Inverse mode at  24     Hk =   7.815
 MRCHUE: Inverse mode at  25     Hk =   8.887
 MRCHUE: Inverse mode at  26     Hk =  10.056
 MRCHUE: Inverse mode at  27     Hk =   4.022
 MRCHUE: Inverse mode at  28     Hk =   2.500
 MRCHUE: Inverse mode at  87     Hk =   2.500

 Side 1  free  transition at x/c =  0.8825   67
 Side 2  free  transition at x/c =  0.0405   27

   1   rms: 0.1875E+00   max: -.1130E+01   T at   27  2   RLX: 0.443
       a = -4.000      CL = -0.3260
      Cm = -0.0096     CD =  0.00902   =>   CDf =  0.00650    CDp =  0.00252

 Side 1  free  transition at x/c =  0.9040   68
 Side 2  free  transition at x/c =  0.0437   27

   2   rms: 0.9847E-01   max: -.5656E+00   T at   68  1   RLX: 0.884
       a = -4.000      CL = -0.2916
      Cm = -0.0150     CD =  0.01017   =>   CDf =  0.00642    CDp =  0.00375

 MRCHDU: Convergence failed at  73  side 1    Res =  0.1368E+01
 MRCHDU: Convergence failed at  74  side 1    Res =  0.1705E+01
 MRCHDU: Convergence failed at  75  side 1    Res =  0.2069E+01
 MRCHDU: Convergence failed at  76  side 1    Res =  0.2862E+01
 Side 1  free  transition at x/c =  0.9596   73
 Side 2  free  transition at x/c =  0.0466   26

   3   rms: 0.6476E-01   max: 0.5691E+00   T at   76  1
       a = -4.000      CL = -0.2783
      Cm = -0.0181     CD =  0.01026   =>   CDf =  0.00627    CDp =  0.00399

 Side 1  free  transition at x/c =  0.9451   72
 Side 2  free  transition at x/c =  0.0471   27

   4   rms: 0.1401E-01   max: -.1805E+00   D at   72  1
       a = -4.000      CL = -0.2764
      Cm = -0.0185     CD =  0.01034   =>   CDf =  0.00628    CDp =  0.00405

 Side 1  free  transition at x/c =  0.9503   72
 Side 2  free  transition at x/c =  0.0475   27

   5   rms: 0.3959E-02   max: 0.3979E-01   C at   72  1
       a = -4.000      CL = -0.2776
      Cm = -0.0183     CD =  0.01038   =>   CDf =  0.00627    CDp =  0.00410

 Side 1  free  transition at x/c =  0.9484   72
 Side 2  free  transition at x/c =  0.0474   27

   6   rms: 0.2784E-03   max: -.2025E-02   D at   72  1
       a = -4.000      CL = -0.2777
      Cm = -0.0182     CD =  0.01038   =>   CDf =  0.00628    CDp =  0.00410

 Side 1  free  transition at x/c =  0.9483   72
 Side 2  free  transition at x/c =  0.0474   27

   7   rms: 0.2570E-05   max: 0.9731E-05   D at   37  2
       a = -4.000      CL = -0.2777
      Cm = -0.0182     CD =  0.01038   =>   CDf =  0.00628    CDp =  0.00410
 plradd ia,ip,cpol            1           0  7.09063932E-03

 Point added to stored polar  1
 Point written to save file  naca23012_Re600k.base.pol                       
 Dump file unspecified or not available
 Calculating wake trajectory ...
 Calculating source influence matrix ...

 Solving BL system ...

 Side 1  free  transition at x/c =  0.9483   72
 Side 2  free  transition at x/c =  0.0474   27

   1   rms: 0.1590E+00   max: -.7773E+00   T at   27  2   RLX: 0.643
       a = -3.500      CL = -0.2465
      Cm = -0.0171     CD =  0.00926   =>   CDf =  0.00628    CDp =  0.00298

 Side 1  free  transition at x/c =  0.9258   71
 Side 2  free  transition at x/c =  0.0580   28

   2   rms: 0.4072E-01   max: -.3275E+00   D at   71  1
       a = -3.500      CL = -0.2253
      Cm = -0.0168     CD =  0.00973   =>   CDf =  0.00626    CDp =  0.00347

 Side 1  free  transition at x/c =  0.9168   70
 Side 2  free  transition at x/c =  0.0560   28

   3   rms: 0.3528E-02   max: -.3171E-01   D at   70  1
       a = -3.500      CL = -0.2244
      Cm = -0.0170     CD =  0.00980   =>   CDf =  0.00630    CDp =  0.00350

 Side 1  free  transition at x/c =  0.9155   70
 Side 2  free  transition at x/c =  0.0555   28

   4   rms: 0.4227E-03   max: 0.2742E-02   D at   27  2
       a = -3.500      CL = -0.2244
      Cm = -0.0171     CD =  0.00980   =>   CDf =  0.00630    CDp =  0.00350

 Side 1  free  transition at x/c =  0.9156   70
 Side 2  free  transition at x/c =  0.0555   28

   5   rms: 0.5101E-05   max: 0.3797E-04   D at   27  2
       a = -3.500      CL = -0.2244
      Cm = -0.0171     CD =  0.00980   =>   CDf =  0.00630    CDp =  0.00350
 plradd ia,ip,cpol            2           0  7.09063932E-03

 Point added to stored polar  1
 Point written to save file  naca23012_Re600k.base.pol                       
 Dump file unspecified or not available
 Calculating wake trajectory ...
 Calculating source influence matrix ...

 Solving BL system ...

 Side 1  free  transition at x/c =  0.9156   70
 Side 2  free  transition at x/c =  0.0555   28

   1   rms: 0.1463E+00   max: -.7106E+00   T at   28  2   RLX: 0.704
       a = -3.000      CL = -0.1916
      Cm = -0.0154     CD =  0.00888   =>   CDf =  0.00633    CDp =  0.00255

 Side 1  free  transition at x/c =  0.8912   69
 Side 2  free  transition at x/c =  0.0735   28

   2   rms: 0.4760E-01   max: -.3981E+00   C at   28  2
       a = -3.000      CL = -0.1737
      Cm = -0.0155     CD =  0.00917   =>   CDf =  0.00628    CDp =  0.00289

 Side 1  free  transition at x/c =  0.8789   69
 Side 2  free  transition at x/c =  0.0682   28

   3   rms: 0.4665E-02   max: -.5206E-01   C at   69  1
       a = -3.000      CL = -0.1728
      Cm = -0.0156     CD =  0.00931   =>   CDf =  0.00634    CDp =  0.00296

 Side 1  free  transition at x/c =  0.8805   69
 Side 2  free  transition at x/c =  0.0674   28

   4   rms: 0.1995E-03   max: 0.1934E-02   T at   28  2
       a = -3.000      CL = -0.1728
      Cm = -0.0156     CD =  0.00931   =>   CDf =  0.00634    CDp =  0.00297

 Side 1  free  transition at x/c =  0.8805   69
 Side 2  free  transition at x/c =  0.0674   28

   5   rms: 0.1864E-05   max: 0.5293E-05   T at   28  2
       a = -3.000      CL = -0.1728
      Cm = -0.0156     CD =  0.00931   =>   CDf =  0.00634    CDp =  0.00297
 plradd ia,ip,cpol            3           0  9.19411797E-03

 Point added to stored polar  1
 Point written to save file  naca23012_Re600k.base.pol                       
 Dump file unspecified or not available
 Calculating wake trajectory ...
 Calculating source influence matrix ...

 Solving BL system ...

 Side 1  free  transition at x/c =  0.8805   69
 Side 2  free  transition at x/c =  0.0674   28

   1   rms: 0.1128E+00   max: 0.7488E+00   D at   28  2   RLX: 0.828
       a = -2.500      CL = -0.1310
      Cm = -0.0143     CD =  0.00886   =>   CDf =  0.00636    CDp =  0.00250

 Side 1  free  transition at x/c =  0.8451   68
 Side 2  free  transition at x/c =  0.0829   28

   2   rms: 0.2437E-01   max: -.1554E+00   C at   28  2
       a = -2.500      CL = -0.1209
      Cm = -0.0143     CD =  0.00894   =>   CDf =  0.00640    CDp =  0.00254

 Side 1  free  transition at x/c =  0.8398   67
 Side 2  free  transition at x/c =  0.0872   28

   3   rms: 0.3178E-02   max: -.5659E-01   C at   28  2
       a = -2.500      CL = -0.1209
      Cm = -0.0143     CD =  0.00895   =>   CDf =  0.00641    CDp =  0.00255

 Side 1  free  transition at x/c =  0.8401   67
 Side 2  free  transition at x/c =  0.0877   28

   4   rms: 0.4135E-04   max: -.6669E-03   C at   28  2
       a = -2.500      CL = -0.1208
      Cm = -0.0143     CD =  0.00895   =>   CDf =  0.00640    CDp =  0.00255
 plradd ia,ip,cpol            4           0  9.19411797E-03

 Point added to stored polar  1
 Point written to save file  naca23012_Re600k.base.pol                       
 Dump file unspecified or not available
 Calculating wake trajectory ...
 Calculating source influence matrix ...

 Solving BL system ...

 Side 1  free  transition at x/c =  0.8401   67
 Side 2  free  transition at x/c =  0.0877   28

   1   rms: 0.9535E-01   max: -.5554E+00   T at   28  2   RLX: 0.900
       a = -2.000      CL = -0.0721
      Cm = -0.0137     CD =  0.00875   =>   CDf =  0.00641    CDp =  0.00234

 MRCHDU: Convergence failed at  28  side 2    Res =  0.1487E+02
 MRCHDU: Convergence failed at  29  side 2    Res =  0.1328E+01
 MRCHDU: Convergence failed at  30  side 2    Res =  0.1732E+01
 MRCHDU: Convergence failed at  31  side 2    Res =  0.1330E+01
 Side 1  free  transition at x/c =  0.7882   65
 Side 2  free  transition at x/c =  0.2425   37

   2   rms: 0.9940E+00   max: -.2264E+02   C at   37  2   RLX: 0.022
       a = -2.000      CL = -0.0979
      Cm = -0.0154     CD =  0.00813   =>   CDf =  0.00630    CDp =  0.00184

 Side 1  free  transition at x/c =  0.7883   65
 Side 2  free  transition at x/c =  0.2296   36

   3   rms: 0.9971E-01   max: -.9299E+00   T at   36  2   RLX: 0.538
       a = -2.000      CL = -0.0867
      Cm = -0.0140     CD =  0.00816   =>   CDf =  0.00622    CDp =  0.00194

 Side 1  free  transition at x/c =  0.7914   66
 Side 2  free  transition at x/c =  0.3198   42

   4   rms: 0.3011E+00   max: -.6356E+01   C at   42  2   RLX: 0.079
       a = -2.000      CL = -0.0935
      Cm = -0.0138     CD =  0.00774   =>   CDf =  0.00579    CDp =  0.00194

 Side 1  free  transition at x/c =  0.7916   66
 Side 2  free  transition at x/c =  0.3257   42

   5   rms: 0.2978E+00   max: -.6585E+01   C at   42  2   RLX: 0.076
       a = -2.000      CL = -0.0922
      Cm = -0.0137     CD =  0.00771   =>   CDf =  0.00574    CDp =  0.00197

 Side 1  free  transition at x/c =  0.7917   66
 Side 2  free  transition at x/c =  0.3281   42

   6   rms: 0.8944E-01   max: -.1665E+01   C at   42  2   RLX: 0.300
       a = -2.000      CL = -0.0869
      Cm = -0.0133     CD =  0.00768   =>   CDf =  0.00576    CDp =  0.00192

 Side 1  free  transition at x/c =  0.7923   66
 Side 2  free  transition at x/c =  0.3776   45

   7   rms: 0.5025E-01   max: -.8062E+00   C at   45  2   RLX: 0.620
       a = -2.000      CL = -0.0813
      Cm = -0.0126     CD =  0.00740   =>   CDf =  0.00552    CDp =  0.00188

 Side 1  free  transition at x/c =  0.7930   66
 Side 2  free  transition at x/c =  0.4421   49

   8   rms: 0.2699E-01   max: -.4436E+00   C at   49  2
       a = -2.000      CL = -0.0796
      Cm = -0.0120     CD =  0.00711   =>   CDf =  0.00525    CDp =  0.00185

 Side 1  free  transition at x/c =  0.7935   66
 Side 2  free  transition at x/c =  0.4149   48

   9   rms: 0.5812E-02   max: 0.7174E-01   D at   49  2
       a = -2.000      CL = -0.0783
      Cm = -0.0121     CD =  0.00726   =>   CDf =  0.00530    CDp =  0.00196

 Side 1  free  transition at x/c =  0.7933   66
 Side 2  free  transition at x/c =  0.4130   48

  10   rms: 0.5012E-03   max: 0.1036E-01   C at   48  2
       a = -2.000      CL = -0.0783
      Cm = -0.0122     CD =  0.00726   =>   CDf =  0.00530    CDp =  0.00196

 Side 1  free  transition at x/c =  0.7933   66
 Side 2  free  transition at x/c =  0.4127   48

  11   rms: 0.3506E-05   max: -.5415E-04   C at   48  2
       a = -2.000      CL = -0.0783
      Cm = -0.0122     CD =  0.00726   =>   CDf =  0.00531    CDp =  0.00196
 plradd ia,ip,cpol            5           0  9.19411797E-03

 Point added to stored polar  1
 Point written to save file  naca23012_Re600k.base.pol                       
 Dump file unspecified or not available
 Calculating wake trajectory ...
 Calculating source influence matrix ...

 Solving BL system ...

 Side 1  free  transition at x/c =  0.7933   66
 Side 2  free  transition at x/c =  0.4127   48

   1   rms: 0.5119E+00   max: -.1025E+02   C at   48  2   RLX: 0.049
       a = -1.500      CL = -0.0765
      Cm = -0.0120     CD =  0.00717   =>   CDf =  0.00531    CDp =  0.00187

 Side 1  free  transition at x/c =  0.7910   66
 Side 2  free  transition at x/c =  0.4260   48

   2   rms: 0.4402E+00   max: -.9247E+01   C at   48  2   RLX: 0.054
       a = -1.500      CL = -0.0738
      Cm = -0.0120     CD =  0.00715   =>   CDf =  0.00527    CDp =  0.00189

 Side 1  free  transition at x/c =  0.7888   65
 Side 2  free  transition at x/c =  0.4429   49

   3   rms: 0.3729E+00   max: -.7774E+01   C at   49  2   RLX: 0.064
       a = -1.500      CL = -0.0712
      Cm = -0.0118     CD =  0.00708   =>   CDf =  0.00521    CDp =  0.00186

 Side 1  free  transition at x/c =  0.7859   65
 Side 2  free  transition at x/c =  0.4625   50

   4   rms: 0.2486E+00   max: -.4961E+01   C at   50  2   RLX: 0.101
       a = -1.500      CL = -0.0672
      Cm = -0.0117     CD =  0.00700   =>   CDf =  0.00515    CDp =  0.00186

 Side 1  free  transition at x/c =  0.7814   65
 Side 2  free  transition at x/c =  0.4924   52

   5   rms: 0.1139E+00   max: -.1467E+01   C at   52  2   RLX: 0.341
       a = -1.500      CL = -0.0543
      Cm = -0.0112     CD =  0.00690   =>   CDf =  0.00506    CDp =  0.00184

 Side 1  free  transition at x/c =  0.7684   64
 Side 2  free  transition at x/c =  0.5593   56

   6   rms: 0.1316E+00   max: -.2572E+01   C at   56  2   RLX: 0.194
       a = -1.500      CL = -0.0530
      Cm = -0.0101     CD =  0.00663   =>   CDf =  0.00486    CDp =  0.00176

 Side 1  free  transition at x/c =  0.7637   64
 Side 2  free  transition at x/c =  0.5667   57

   7   rms: 0.8306E-01   max: -.1378E+01   C at   57  2   RLX: 0.363
       a = -1.500      CL = -0.0452
      Cm = -0.0102     CD =  0.00658   =>   CDf =  0.00487    CDp =  0.00171

 Side 1  free  transition at x/c =  0.7566   64
 Side 2  free  transition at x/c =  0.5805   57

   8   rms: 0.4802E-01   max: -.8541E+00   C at   57  2   RLX: 0.585
       a = -1.500      CL = -0.0371
      Cm = -0.0102     CD =  0.00659   =>   CDf =  0.00484    CDp =  0.00176

 Side 1  free  transition at x/c =  0.7506   63
 Side 2  free  transition at x/c =  0.5990   58

   9   rms: 0.1690E-01   max: -.2779E+00   C at   58  2
       a = -1.500      CL = -0.0313
      Cm = -0.0102     CD =  0.00655   =>   CDf =  0.00479    CDp =  0.00176

 Side 1  free  transition at x/c =  0.7446   63
 Side 2  free  transition at x/c =  0.6154   59

  10   rms: 0.2692E-02   max: -.3667E-01   C at   59  2
       a = -1.500      CL = -0.0318
      Cm = -0.0101     CD =  0.00652   =>   CDf =  0.00475    CDp =  0.00177

 Side 1  free  transition at x/c =  0.7451   63
 Side 2  free  transition at x/c =  0.6132   59

  11   rms: 0.4097E-03   max: -.8105E-02   C at   59  2
       a = -1.500      CL = -0.0317
      Cm = -0.0101     CD =  0.00652   =>   CDf =  0.00474    CDp =  0.00178

 Side 1  free  transition at x/c =  0.7451   63
 Side 2  free  transition at x/c =  0.6134   59

  12   rms: 0.9976E-06   max: 0.1092E-04   C at   63  1
       a = -1.500      CL = -0.0317
      Cm = -0.0101     CD =  0.00652   =>   CDf =  0.00474    CDp =  0.00178
 plradd ia,ip,cpol            6           0  1.15812197E-02

 Point added to stored polar  1
 Point written to save file  naca23012_Re600k.base.pol                       
 Dump file unspecified or not available
 Calculating wake trajectory ...
 Calculating source influence matrix ...

 Solving BL system ...

 Side 1  free  transition at x/c =  0.7451   63
 Side 2  free  transition at x/c =  0.6134   59

   1   rms: 0.1650E+00   max: -.2660E+01   C at   59  2   RLX: 0.188
       a = -1.000      CL = -0.0223
      Cm = -0.0098     CD =  0.00648   =>   CDf =  0.00474    CDp =  0.00174

 Side 1  free  transition at x/c =  0.7350   62
 Side 2  free  transition at x/c =  0.6377   61

   2   rms: 0.1411E+00   max: -.2326E+01   C at   61  2   RLX: 0.215
       a = -1.000      CL = -0.0140
      Cm = -0.0094     CD =  0.00638   =>   CDf =  0.00470    CDp =  0.00169

 Side 1  free  transition at x/c =  0.7246   62
 Side 2  free  transition at x/c =  0.6510   62

   3   rms: 0.1062E+00   max: -.1470E+01   C at   62  2   RLX: 0.340
       a = -1.000      CL = -0.0032
      Cm = -0.0092     CD =  0.00637   =>   CDf =  0.00472    CDp =  0.00165

 Side 1  free  transition at x/c =  0.7142   62
 Side 2  free  transition at x/c =  0.6666   61

   4   rms: 0.5193E-01   max: -.4971E+00   C at   61  2
       a = -1.000      CL =  0.0201
      Cm = -0.0089     CD =  0.00642   =>   CDf =  0.00473    CDp =  0.00169

 Side 1  free  transition at x/c =  0.6888   61
 Side 2  free  transition at x/c =  0.7434   66

   5   rms: 0.1732E-01   max: 0.2365E+00   D at   61  2
       a = -1.000      CL =  0.0170
      Cm = -0.0081     CD =  0.00624   =>   CDf =  0.00453    CDp =  0.00171

 Side 1  free  transition at x/c =  0.6924   61
 Side 2  free  transition at x/c =  0.7264   65

   6   rms: 0.3000E-02   max: -.5014E-01   D at   65  2
       a = -1.000      CL =  0.0176
      Cm = -0.0083     CD =  0.00628   =>   CDf =  0.00455    CDp =  0.00173

 Side 1  free  transition at x/c =  0.6923   61
 Side 2  free  transition at x/c =  0.7225   65

   7   rms: 0.4350E-03   max: -.7820E-02   C at   65  2
       a = -1.000      CL =  0.0176
      Cm = -0.0083     CD =  0.00629   =>   CDf =  0.00457    CDp =  0.00172

 Side 1  free  transition at x/c =  0.6922   61
 Side 2  free  transition at x/c =  0.7227   65

   8   rms: 0.1466E-05   max: 0.2109E-04   C at   65  2
       a = -1.000      CL =  0.0176
      Cm = -0.0083     CD =  0.00629   =>   CDf =  0.00457    CDp =  0.00172
 plradd ia,ip,cpol            7           0  1.15812197E-02

 Point added to stored polar  1
 Point written to save file  naca23012_Re600k.base.pol                       
 Dump file unspecified or not available
 Calculating wake trajectory ...
 Calculating source influence matrix ...

 Solving BL system ...

 Side 1  free  transition at x/c =  0.6922   61
 Side 2  free  transition at x/c =  0.7227   65

   1   rms: 0.1449E+00   max: -.1936E+01   C at   65  2   RLX: 0.258
       a = -0.500      CL =  0.0302
      Cm = -0.0077     CD =  0.00624   =>   CDf =  0.00457    CDp =  0.00168

 Side 1  free  transition at x/c =  0.6786   60
 Side 2  free  transition at x/c =  0.7365   65

   2   rms: 0.7906E-01   max: 0.7759E+00   C at   60  1
       a = -0.500      CL =  0.0730
      Cm = -0.0078     CD =  0.00642   =>   CDf =  0.00460    CDp =  0.00182

 Side 1  free  transition at x/c =  0.6344   58
 Side 2  free  transition at x/c =  0.8310   70

   3   rms: 0.4650E-01   max: 0.8449E+00   C at   70  2
       a = -0.500      CL =  0.0682
      Cm = -0.0067     CD =  0.00629   =>   CDf =  0.00446    CDp =  0.00183

 Side 1  free  transition at x/c =  0.6412   59
 Side 2  free  transition at x/c =  0.8056   69

   4   rms: 0.6745E-02   max: -.8959E-01   D at   72  2
       a = -0.500      CL =  0.0683
      Cm = -0.0066     CD =  0.00625   =>   CDf =  0.00449    CDp =  0.00176

 Side 1  free  transition at x/c =  0.6403   59
 Side 2  free  transition at x/c =  0.8028   68

   5   rms: 0.7371E-03   max: 0.1058E-01   C at   68  2
       a = -0.500      CL =  0.0682
      Cm = -0.0066     CD =  0.00624   =>   CDf =  0.00451    CDp =  0.00174

 Side 1  free  transition at x/c =  0.6403   59
 Side 2  free  transition at x/c =  0.8022   68

   6   rms: 0.4919E-05   max: -.9153E-04   C at   68  2
       a = -0.500      CL =  0.0682
      Cm = -0.0066     CD =  0.00624   =>   CDf =  0.00451    CDp =  0.00173
 plradd ia,ip,cpol            8           0  0.11707911    

 Point added to stored polar  1
 Point written to save file  naca23012_Re600k.base.pol                       
 Dump file unspecified or not available
 Calculating wake trajectory ...
 Calculating source influence matrix ...

 Solving BL system ...

 Side 1  free  transition at x/c =  0.6403   59
 Side 2  free  transition at x/c =  0.8022   68

   1   rms: 0.1175E+00   max: 0.1234E+01   C at   59  1   RLX: 0.549
       a =  0.000      CL =  0.0963
      Cm = -0.0057     CD =  0.00632   =>   CDf =  0.00451    CDp =  0.00181

 Side 1  free  transition at x/c =  0.6073   57
 Side 2  free  transition at x/c =  0.8319   70

   2   rms: 0.5156E-01   max: -.5118E+00   C at   70  2   RLX: 0.977
       a =  0.000      CL =  0.1186
      Cm = -0.0049     CD =  0.00635   =>   CDf =  0.00456    CDp =  0.00179

 Side 1  free  transition at x/c =  0.5829   55
 Side 2  free  transition at x/c =  0.8548   71

   3   rms: 0.9055E-02   max: -.1287E+00   C at   71  2
       a =  0.000      CL =  0.1191
      Cm = -0.0049     CD =  0.00638   =>   CDf =  0.00463    CDp =  0.00175

 Side 1  free  transition at x/c =  0.5842   56
 Side 2  free  transition at x/c =  0.8631   72

   4   rms: 0.4620E-02   max: -.6820E-01   C at   56  1
       a =  0.000      CL =  0.1191
      Cm = -0.0049     CD =  0.00637   =>   CDf =  0.00457    CDp =  0.00179

 Side 1  free  transition at x/c =  0.5851   56
 Side 2  free  transition at x/c =  0.8616   72

   5   rms: 0.1799E-03   max: 0.2548E-02   C at   56  1
       a =  0.000      CL =  0.1190
      Cm = -0.0049     CD =  0.00637   =>   CDf =  0.00456    CDp =  0.00181

 Side 1  free  transition at x/c =  0.5850   56
 Side 2  free  transition at x/c =  0.8616   72

   6   rms: 0.8587E-06   max: -.7079E-05   D at    4  2
       a =  0.000      CL =  0.1190
      Cm = -0.0049     CD =  0.00637   =>   CDf =  0.00456    CDp =  0.00180
 plradd ia,ip,cpol            9           0  0.11707911    

 Point added to stored polar  1
 Point written to save file  naca23012_Re600k.base.pol                       
 Dump file unspecified or not available
 Calculating wake trajectory ...
 Calculating source influence matrix ...

 Solving BL system ...

 Side 1  free  transition at x/c =  0.5850   56
 Side 2  free  transition at x/c =  0.8616   72

   1   rms: 0.1233E+00   max: 0.1306E+01   C at   56  1   RLX: 0.589
       a =  0.500      CL =  0.1480
      Cm = -0.0036     CD =  0.00652   =>   CDf =  0.00454    CDp =  0.00198

 Side 1  free  transition at x/c =  0.5522   55
 Side 2  free  transition at x/c =  0.8826   72

   2   rms: 0.4767E-01   max: 0.3856E+00   C at   55  1
       a =  0.500      CL =  0.1693
      Cm = -0.0031     CD =  0.00662   =>   CDf =  0.00468    CDp =  0.00194

 Side 1  free  transition at x/c =  0.5309   53
 Side 2  free  transition at x/c =  0.9140   74

   3   rms: 0.8934E-02   max: 0.1162E+00   D at   74  2
       a =  0.500      CL =  0.1692
      Cm = -0.0029     CD =  0.00662   =>   CDf =  0.00467    CDp =  0.00195

 Side 1  free  transition at x/c =  0.5325   53
 Side 2  free  transition at x/c =  0.9123   74

   4   rms: 0.9372E-03   max: 0.1174E-01   C at   74  2
       a =  0.500      CL =  0.1694
      Cm = -0.0029     CD =  0.00662   =>   CDf =  0.00467    CDp =  0.00195

 Side 1  free  transition at x/c =  0.5323   53
 Side 2  free  transition at x/c =  0.9119   74

   5   rms: 0.1830E-03   max: -.3764E-02   C at   53  1
       a =  0.500      CL =  0.1694
      Cm = -0.0029     CD =  0.00662   =>   CDf =  0.00467    CDp =  0.00195

 Side 1  free  transition at x/c =  0.5324   53
 Side 2  free  transition at x/c =  0.9119   74

   6   rms: 0.9662E-06   max: -.7688E-05   C at   53  1
       a =  0.500      CL =  0.1694
      Cm = -0.0029     CD =  0.00662   =>   CDf =  0.00467    CDp =  0.00195
 plradd ia,ip,cpol           10           0  0.10500620    

 Point added to stored polar  1
 Point written to save file  naca23012_Re600k.base.pol                       
 Dump file unspecified or not available
 Calculating wake trajectory ...
 Calculating source influence matrix ...

 Solving BL system ...

 Side 1  free  transition at x/c =  0.5324   53
 Side 2  free  transition at x/c =  0.9119   74

   1   rms: 0.1130E+00   max: 0.8413E+00   C at   53  1
       a =  1.000      CL =  0.2219
      Cm = -0.0011     CD =  0.00680   =>   CDf =  0.00465    CDp =  0.00215

 Side 1  free  transition at x/c =  0.4702   51
 Side 2  free  transition at x/c =  0.9206   73

   2   rms: 0.5276E-01   max: -.6605E+00   D at   74  2   RLX: 0.757
       a =  1.000      CL =  0.2203
      Cm = -0.0020     CD =  0.00736   =>   CDf =  0.00501    CDp =  0.00235

 Side 1  free  transition at x/c =  0.4767   51
 Side 2  free  transition at x/c =  0.9534   75

   3   rms: 0.2688E-01   max: 0.2655E+00   D at   76  2
       a =  1.000      CL =  0.2296
      Cm = -0.0033     CD =  0.00703   =>   CDf =  0.00488    CDp =  0.00215

 Side 1  free  transition at x/c =  0.4746   51
 Side 2  free  transition at x/c =  0.9348   74

   4   rms: 0.1810E-01   max: -.1803E+00   D at   75  2
       a =  1.000      CL =  0.2192
      Cm = -0.0011     CD =  0.00696   =>   CDf =  0.00490    CDp =  0.00206

 Side 1  free  transition at x/c =  0.4778   51
 Side 2  free  transition at x/c =  0.9464   75

   5   rms: 0.9572E-02   max: 0.1078E+00   C at   75  2
       a =  1.000      CL =  0.2209
      Cm = -0.0014     CD =  0.00696   =>   CDf =  0.00486    CDp =  0.00210

 Side 1  free  transition at x/c =  0.4774   51
 Side 2  free  transition at x/c =  0.9432   75

   6   rms: 0.1635E-02   max: -.1714E-01   D at   79  2
       a =  1.000      CL =  0.2220
      Cm = -0.0016     CD =  0.00697   =>   CDf =  0.00487    CDp =  0.00211

 Side 1  free  transition at x/c =  0.4771   51
 Side 2  free  transition at x/c =  0.9427   75

   7   rms: 0.2383E-04   max: -.3394E-03   D at   75  2
       a =  1.000      CL =  0.2220
      Cm = -0.0016     CD =  0.00697   =>   CDf =  0.00487    CDp =  0.00210
 plradd ia,ip,cpol           11           0  0.10500620    

 Point added to stored polar  1
 Point written to save file  naca23012_Re600k.base.pol                       
 Dump file unspecified or not available
 Calculating wake trajectory ...
 Calculating source influence matrix ...

 Solving BL system ...

 Side 1  free  transition at x/c =  0.4771   51
 Side 2  free  transition at x/c =  0.9427   75

   1   rms: 0.1099E+00   max: 0.1257E+01   C at   51  1
       a =  1.500      CL =  0.2832
      Cm = -0.0023     CD =  0.00729   =>   CDf =  0.00486    CDp =  0.00243

 Side 1  free  transition at x/c =  0.4191   49
 Side 2  free  transition at x/c =  0.9550   74
 idif Ue xi dudx           1  0.15847796      1.84893608E-03   85.713058    
 Uenew xinew           2  1.32831308E-04  1.54972076E-06

   2   rms: 0.3435E-01   max: -.3648E+00   D at   76  2
       a =  1.500      CL =  0.2702
      Cm =  0.0003     CD =  0.00735   =>   CDf =  0.00517    CDp =  0.00219

 MRCHDU: Convergence failed at  77  side 2    Res =  0.2657E+02
 MRCHDU: Convergence failed at  78  side 2    Res =  0.1066E+02
 MRCHDU: Convergence failed at  79  side 2    Res =  0.6458E+01
 Side 1  free  transition at x/c =  0.4273   48
 Side 2  free  transition at x/c =  0.9744   77

   3   rms: 0.2080E+00   max: -.3459E+01   T at    2  2   RLX: 0.145
       a =  1.500      CL =  0.2687
      Cm =  0.0023     CD =  0.00640   =>   CDf =  0.00508    CDp =  0.00132

 Side 1  free  transition at x/c =  0.4266   49
 Side 2  free  transition at x/c =  0.9710   76
 idif Ue xi dudx           1  0.15853204      1.85549259E-03   85.439323    
 Uenew xinew           2  6.92590955E-04  8.10623169E-06

   4   rms: 0.2816E-01   max: -.3738E+00   D at   78  2
       a =  1.500      CL =  0.2699
      Cm =  0.0006     CD =  0.00734   =>   CDf =  0.00509    CDp =  0.00225

 Side 1  free  transition at x/c =  0.4264   48
 Side 2  free  transition at x/c =  0.9653   76

   5   rms: 0.3644E-01   max: -.5767E+00   T at    2  2   RLX: 0.867
       a =  1.500      CL =  0.2814
      Cm = -0.0020     CD =  0.00736   =>   CDf =  0.00508    CDp =  0.00228

 Side 1  free  transition at x/c =  0.4225   49
 Side 2  free  transition at x/c =  0.9589   75

   6   rms: 0.5677E-02   max: -.5415E-01   D at   75  2
       a =  1.500      CL =  0.2808
      Cm = -0.0019     CD =  0.00738   =>   CDf =  0.00511    CDp =  0.00226

 Side 1  free  transition at x/c =  0.4229   49
 Side 2  free  transition at x/c =  0.9604   75

   7   rms: 0.4281E-03   max: 0.2831E-02   T at   75  2
       a =  1.500      CL =  0.2810
      Cm = -0.0020     CD =  0.00738   =>   CDf =  0.00511    CDp =  0.00227

 Side 1  free  transition at x/c =  0.4228   49
 Side 2  free  transition at x/c =  0.9602   75

   8   rms: 0.4214E-05   max: -.4578E-04   D at   76  2
       a =  1.500      CL =  0.2810
      Cm = -0.0020     CD =  0.00738   =>   CDf =  0.00511    CDp =  0.00227
 plradd ia,ip,cpol           12           0  9.35740694E-02

 Point added to stored polar  1
 Point written to save file  naca23012_Re600k.base.pol                       
 Dump file unspecified or not available
 Calculating wake trajectory ...
 Calculating source influence matrix ...

 Solving BL system ...

 Side 1  free  transition at x/c =  0.4228   49
 Side 2  free  transition at x/c =  0.9602   75

   1   rms: 0.1178E+00   max: 0.1463E+01   C at   49  1   RLX: 0.893
       a =  2.000      CL =  0.3397
      Cm = -0.0037     CD =  0.00777   =>   CDf =  0.00511    CDp =  0.00266

 Side 1  free  transition at x/c =  0.3718   46
 Side 2  free  transition at x/c =  0.9690   75

   2   rms: 0.3868E-01   max: -.3547E+00   T at   75  2
       a =  2.000      CL =  0.3233
      Cm =  0.0013     CD =  0.00779   =>   CDf =  0.00538    CDp =  0.00241

 MRCHDU: Convergence failed at  78  side 2    Res =  0.3091E+01
 Side 1  free  transition at x/c =  0.3758   46
 Side 2  free  transition at x/c =  0.9934   77

   3   rms: 0.8451E-01   max: 0.1278E+01   C at   77  2
       a =  2.000      CL =  0.3389
      Cm = -0.0021     CD =  0.00760   =>   CDf =  0.00534    CDp =  0.00226

 Side 1  free  transition at x/c =  0.3693   46
 Side 2  free  transition at x/c =  0.9751   76

   4   rms: 0.1179E-01   max: -.1587E+00   D at   76  2
       a =  2.000      CL =  0.3467
      Cm = -0.0040     CD =  0.00786   =>   CDf =  0.00538    CDp =  0.00248

 Side 1  free  transition at x/c =  0.3672   46
 Side 2  free  transition at x/c =  0.9718   76

   5   rms: 0.5682E-02   max: -.5534E-01   D at   77  2
       a =  2.000      CL =  0.3459
      Cm = -0.0038     CD =  0.00785   =>   CDf =  0.00539    CDp =  0.00246

 Side 1  free  transition at x/c =  0.3675   46
 Side 2  free  transition at x/c =  0.9729   76

   6   rms: 0.7281E-04   max: -.1346E-02   D at   76  2
       a =  2.000      CL =  0.3459
      Cm = -0.0038     CD =  0.00785   =>   CDf =  0.00539    CDp =  0.00246
 plradd ia,ip,cpol           13           0  9.35740694E-02

 Point added to stored polar  1
 Point written to save file  naca23012_Re600k.base.pol                       
 Dump file unspecified or not available
 Calculating wake trajectory ...
 Calculating source influence matrix ...

 Solving BL system ...

 Side 1  free  transition at x/c =  0.3675   46
 Side 2  free  transition at x/c =  0.9729   76

   1   rms: 0.1279E+00   max: 0.1474E+01   C at   46  1   RLX: 0.685
       a =  2.500      CL =  0.3958
      Cm = -0.0064     CD =  0.00827   =>   CDf =  0.00538    CDp =  0.00289

 Side 1  free  transition at x/c =  0.3351   45
 Side 2  free  transition at x/c =  0.9771   75

   2   rms: 0.3978E-01   max: 0.3074E+00   C at   45  1
       a =  2.500      CL =  0.4193
      Cm = -0.0077     CD =  0.00837   =>   CDf =  0.00556    CDp =  0.00281

 Side 1  free  transition at x/c =  0.3203   44
 Side 2  free  transition at x/c =  0.9798   75

   3   rms: 0.3363E-02   max: -.5215E-01   D at   45  1
       a =  2.500      CL =  0.4189
      Cm = -0.0076     CD =  0.00833   =>   CDf =  0.00564    CDp =  0.00269

 Side 1  free  transition at x/c =  0.3200   44
 Side 2  free  transition at x/c =  0.9803   75

   4   rms: 0.9822E-04   max: -.1588E-02   D at   45  1
       a =  2.500      CL =  0.4189
      Cm = -0.0076     CD =  0.00833   =>   CDf =  0.00564    CDp =  0.00269
 plradd ia,ip,cpol           14           0  8.28411803E-02

 Point added to stored polar  1
 Point written to save file  naca23012_Re600k.base.pol                       
 Dump file unspecified or not available
 Calculating wake trajectory ...
 Calculating source influence matrix ...

 Solving BL system ...

 Side 1  free  transition at x/c =  0.3200   44
 Side 2  free  transition at x/c =  0.9803   75

   1   rms: 0.1134E+00   max: 0.1152E+01   C at   44  1   RLX: 0.851
       a =  3.000      CL =  0.4765
      Cm = -0.0099     CD =  0.00878   =>   CDf =  0.00562    CDp =  0.00316

 Side 1  free  transition at x/c =  0.2903   43
 Side 2  free  transition at x/c =  0.9885   75

   2   rms: 0.2738E-01   max: -.1805E+00   D at   43  1
       a =  3.000      CL =  0.4923
      Cm = -0.0115     CD =  0.00875   =>   CDf =  0.00582    CDp =  0.00294

 Side 1  free  transition at x/c =  0.2843   43
 Side 2  free  transition at x/c =  0.9864   75

   3   rms: 0.7730E-03   max: 0.1226E-01   D at   44  1
       a =  3.000      CL =  0.4923
      Cm = -0.0115     CD =  0.00878   =>   CDf =  0.00585    CDp =  0.00293

 Side 1  free  transition at x/c =  0.2843   43
 Side 2  free  transition at x/c =  0.9864   75

   4   rms: 0.5322E-05   max: -.8174E-04   D at   44  1
       a =  3.000      CL =  0.4923
      Cm = -0.0115     CD =  0.00878   =>   CDf =  0.00585    CDp =  0.00293
 plradd ia,ip,cpol           15           0  7.28674605E-02

 Point added to stored polar  1
 Point written to save file  naca23012_Re600k.base.pol                       
 Dump file unspecified or not available
 Calculating wake trajectory ...
 Calculating source influence matrix ...

 Solving BL system ...

 Side 1  free  transition at x/c =  0.2842   43
 Side 2  free  transition at x/c =  0.9864   75

   1   rms: 0.1093E+00   max: 0.6412E+00   C at   43  1   RLX: 0.815
       a =  3.500      CL =  0.5532
      Cm = -0.0151     CD =  0.00922   =>   CDf =  0.00582    CDp =  0.00340

 Side 1  free  transition at x/c =  0.2636   42
 Side 2  free  transition at x/c =  0.9901   74

   2   rms: 0.2407E-01   max: 0.2379E+00   D at   43  1
       a =  3.500      CL =  0.5655
      Cm = -0.0155     CD =  0.00917   =>   CDf =  0.00600    CDp =  0.00317

 Side 1  free  transition at x/c =  0.2603   42
 Side 2  free  transition at x/c =  0.9925   74

   3   rms: 0.7699E-03   max: 0.1035E-01   C at   42  1
       a =  3.500      CL =  0.5653
      Cm = -0.0154     CD =  0.00916   =>   CDf =  0.00598    CDp =  0.00318

 Side 1  free  transition at x/c =  0.2600   42
 Side 2  free  transition at x/c =  0.9927   74

   4   rms: 0.4577E-05   max: -.4176E-04   T at   74  2
       a =  3.500      CL =  0.5653
      Cm = -0.0154     CD =  0.00916   =>   CDf =  0.00599    CDp =  0.00318
 plradd ia,ip,cpol           16           0  7.28674605E-02

 Point added to stored polar  1
 Point written to save file  naca23012_Re600k.base.pol                       
 Dump file unspecified or not available
 Calculating wake trajectory ...
 Calculating source influence matrix ...

 Solving BL system ...

 Side 1  free  transition at x/c =  0.2600   42
 Side 2  free  transition at x/c =  0.9927   74

   1   rms: 0.9592E-01   max: 0.2502E+00   C at   74  2
       a =  4.000      CL =  0.6359
      Cm = -0.0187     CD =  0.00951   =>   CDf =  0.00595    CDp =  0.00356

 Side 1  free  transition at x/c =  0.2425   42
 Side 2  free  transition at x/c =  0.9998   74

   2   rms: 0.1653E-01   max: -.2053E+00   D at   42  1
       a =  4.000      CL =  0.6396
      Cm = -0.0196     CD =  0.00947   =>   CDf =  0.00608    CDp =  0.00338

 Side 1  free  transition at x/c =  0.2423   42
 Side 2  free  transition at x/c =  0.9973   74

   3   rms: 0.1538E-02   max: 0.2216E-01   C at   42  1
       a =  4.000      CL =  0.6395
      Cm = -0.0196     CD =  0.00951   =>   CDf =  0.00607    CDp =  0.00344

 Side 1  free  transition at x/c =  0.2419   42
 Side 2  free  transition at x/c =  0.9974   74

   4   rms: 0.1014E-04   max: -.1402E-03   D at   43  1
       a =  4.000      CL =  0.6395
      Cm = -0.0196     CD =  0.00951   =>   CDf =  0.00608    CDp =  0.00343
 plradd ia,ip,cpol           17           0  5.53473607E-02

 Point added to stored polar  1
 Point written to save file  naca23012_Re600k.base.pol                       
 Dump file unspecified or not available
 Calculating wake trajectory ...
 Calculating source influence matrix ...

 Solving BL system ...

 Side 1  free  transition at x/c =  0.2419   42
 Side 2  free  transition at x/c =  0.9974   74

   1   rms: 0.9677E-01   max: -.1832E+00   T at   74  2
       a =  4.500      CL =  0.7137
      Cm = -0.0238     CD =  0.00984   =>   CDf =  0.00608    CDp =  0.00377

 Side 1  free  transition at x/c =  0.2274   41
 Side 2 forced transition at x/c =  1.0000   74

   2   rms: 0.2326E-01   max: -.1830E+00   D at   41  1
       a =  4.500      CL =  0.7019
      Cm = -0.0213     CD =  0.00982   =>   CDf =  0.00615    CDp =  0.00366

 Side 1  free  transition at x/c =  0.2282   41
 Side 2 forced transition at x/c =  1.0000   74

   3   rms: 0.1294E-02   max: 0.1820E-01   C at   41  1
       a =  4.500      CL =  0.7017
      Cm = -0.0213     CD =  0.00984   =>   CDf =  0.00614    CDp =  0.00370

 Side 1  free  transition at x/c =  0.2279   41
 Side 2 forced transition at x/c =  1.0000   74

   4   rms: 0.1153E-04   max: -.1704E-03   D at   42  1
       a =  4.500      CL =  0.7017
      Cm = -0.0213     CD =  0.00984   =>   CDf =  0.00614    CDp =  0.00370
 plradd ia,ip,cpol           18           0  4.78247330E-02

 Point added to stored polar  1
 Point written to save file  naca23012_Re600k.base.pol                       
 Dump file unspecified or not available
 Calculating wake trajectory ...
 Calculating source influence matrix ...

 Solving BL system ...

 Side 1  free  transition at x/c =  0.2279   41
 Side 2 forced transition at x/c =  1.0000   74

   1   rms: 0.7819E-01   max: -.1548E+00   D at   68  2
       a =  5.000      CL =  0.7481
      Cm = -0.0196     CD =  0.01010   =>   CDf =  0.00609    CDp =  0.00402

 Side 1  free  transition at x/c =  0.2158   41
 Side 2 forced transition at x/c =  1.0000   73

   2   rms: 0.6955E-02   max: -.7326E-01   C at   41  1
       a =  5.000      CL =  0.7469
      Cm = -0.0194     CD =  0.01019   =>   CDf =  0.00622    CDp =  0.00397

 Side 1  free  transition at x/c =  0.2161   41
 Side 2 forced transition at x/c =  1.0000   73

   3   rms: 0.3740E-03   max: 0.2981E-02   D at    4  2
       a =  5.000      CL =  0.7470
      Cm = -0.0194     CD =  0.01020   =>   CDf =  0.00621    CDp =  0.00399

 Side 1  free  transition at x/c =  0.2160   41
 Side 2 forced transition at x/c =  1.0000   73

   4   rms: 0.8580E-06   max: -.4921E-05   D at   75  2
       a =  5.000      CL =  0.7470
      Cm = -0.0194     CD =  0.01020   =>   CDf =  0.00621    CDp =  0.00399
 plradd ia,ip,cpol           19           0  4.78247330E-02

 Point added to stored polar  1
 Point written to save file  naca23012_Re600k.base.pol                       
 Dump file unspecified or not available
 Calculating wake trajectory ...
 Calculating source influence matrix ...

 Solving BL system ...

 Side 1  free  transition at x/c =  0.2160   41
 Side 2 forced transition at x/c =  1.0000   73

   1   rms: 0.7736E-01   max: -.1478E+00   D at   68  2
       a =  5.500      CL =  0.7940
      Cm = -0.0178     CD =  0.01035   =>   CDf =  0.00614    CDp =  0.00421

 Side 1  free  transition at x/c =  0.2056   42
 Side 2 forced transition at x/c =  1.0000   72

   2   rms: 0.6634E-02   max: -.7525E-01   D at   42  1
       a =  5.500      CL =  0.7929
      Cm = -0.0176     CD =  0.01047   =>   CDf =  0.00621    CDp =  0.00426

 Side 1  free  transition at x/c =  0.2061   42
 Side 2 forced transition at x/c =  1.0000   72

   3   rms: 0.5066E-03   max: -.5377E-02   D at    4  1
       a =  5.500      CL =  0.7929
      Cm = -0.0176     CD =  0.01047   =>   CDf =  0.00620    CDp =  0.00428

 Side 1  free  transition at x/c =  0.2060   42
 Side 2 forced transition at x/c =  1.0000   72

   4   rms: 0.1002E-05   max: -.3551E-05   D at   80  2
       a =  5.500      CL =  0.7929
      Cm = -0.0176     CD =  0.01047   =>   CDf =  0.00620    CDp =  0.00428
 plradd ia,ip,cpol           20           0  3.52461040E-02

 Point added to stored polar  1
 Point written to save file  naca23012_Re600k.base.pol                       
 Dump file unspecified or not available
 Calculating wake trajectory ...
 Calculating source influence matrix ...

 Solving BL system ...

 Side 1  free  transition at x/c =  0.2060   42
 Side 2 forced transition at x/c =  1.0000   72

   1   rms: 0.7959E-01   max: -.3538E+00   D at   42  1
       a =  6.000      CL =  0.8375
      Cm = -0.0156     CD =  0.01092   =>   CDf =  0.00620    CDp =  0.00473

 Side 1  free  transition at x/c =  0.1972   41
 Side 2 forced transition at x/c =  1.0000   72

   2   rms: 0.1883E-01   max: -.1873E+00   D at   42  1
       a =  6.000      CL =  0.8385
      Cm = -0.0157     CD =  0.01079   =>   CDf =  0.00621    CDp =  0.00459

 Side 1  free  transition at x/c =  0.1967   41
 Side 2 forced transition at x/c =  1.0000   72

   3   rms: 0.1021E-02   max: -.1626E-01   D at   42  1
       a =  6.000      CL =  0.8383
      Cm = -0.0157     CD =  0.01083   =>   CDf =  0.00619    CDp =  0.00464

 Side 1  free  transition at x/c =  0.1964   41
 Side 2 forced transition at x/c =  1.0000   72

   4   rms: 0.1058E-04   max: -.1797E-03   D at   42  1
       a =  6.000      CL =  0.8383
      Cm = -0.0157     CD =  0.01083   =>   CDf =  0.00620    CDp =  0.00464
 plradd ia,ip,cpol           21           0  3.00825629E-02

 Point added to stored polar  1
 Point written to save file  naca23012_Re600k.base.pol                       
 Dump file unspecified or not available
 Calculating wake trajectory ...
 Calculating source influence matrix ...

 Solving BL system ...

 Side 1  free  transition at x/c =  0.1964   41
 Side 2 forced transition at x/c =  1.0000   72

   1   rms: 0.7633E-01   max: -.1374E+00   D at   69  2
       a =  6.500      CL =  0.8846
      Cm = -0.0139     CD =  0.01113   =>   CDf =  0.00611    CDp =  0.00502

 Side 1  free  transition at x/c =  0.1859   42
 Side 2 forced transition at x/c =  1.0000   71

   2   rms: 0.4763E-02   max: -.5739E-01   D at    3  1
       a =  6.500      CL =  0.8827
      Cm = -0.0136     CD =  0.01132   =>   CDf =  0.00625    CDp =  0.00506

 Side 1  free  transition at x/c =  0.1857   41
 Side 2 forced transition at x/c =  1.0000   71

   3   rms: 0.1092E-02   max: -.1172E-01   D at   41  1
       a =  6.500      CL =  0.8829
      Cm = -0.0137     CD =  0.01130   =>   CDf =  0.00625    CDp =  0.00506

 Side 1  free  transition at x/c =  0.1858   41
 Side 2 forced transition at x/c =  1.0000   71

   4   rms: 0.2611E-05   max: -.3304E-04   D at   42  1
       a =  6.500      CL =  0.8829
      Cm = -0.0137     CD =  0.01130   =>   CDf =  0.00625    CDp =  0.00506
 plradd ia,ip,cpol           22           0  1.49710057E-02

 Point added to stored polar  1
 Point written to save file  naca23012_Re600k.base.pol                       
 Dump file unspecified or not available
 Calculating wake trajectory ...
 Calculating source influence matrix ...

 Solving BL system ...

 Side 1  free  transition at x/c =  0.1858   41
 Side 2 forced transition at x/c =  1.0000   71

   1   rms: 0.7804E-01   max: -.4476E+00   C at   41  1
       a =  7.000      CL =  0.9314
      Cm = -0.0122     CD =  0.01144   =>   CDf =  0.00615    CDp =  0.00529

 Side 1  free  transition at x/c =  0.1761   42
 Side 2 forced transition at x/c =  1.0000   70

   2   rms: 0.6120E-02   max: -.7543E-01   D at   42  1
       a =  7.000      CL =  0.9299
      Cm = -0.0120     CD =  0.01160   =>   CDf =  0.00620    CDp =  0.00540

 Side 1  free  transition at x/c =  0.1765   42
 Side 2 forced transition at x/c =  1.0000   70

   3   rms: 0.6806E-03   max: -.7785E-02   D at    4  1
       a =  7.000      CL =  0.9299
      Cm = -0.0120     CD =  0.01160   =>   CDf =  0.00619    CDp =  0.00541

 Side 1  free  transition at x/c =  0.1765   42
 Side 2 forced transition at x/c =  1.0000   70

   4   rms: 0.9935E-06   max: 0.3801E-05   D at    8  1
       a =  7.000      CL =  0.9299
      Cm = -0.0120     CD =  0.01160   =>   CDf =  0.00619    CDp =  0.00541
 plradd ia,ip,cpol           23           0  1.22266682E-02

 Point added to stored polar  1
 Point written to save file  naca23012_Re600k.base.pol                       
 Dump file unspecified or not available
 Calculating wake trajectory ...
 Calculating source influence matrix ...

 Solving BL system ...

 Side 1  free  transition at x/c =  0.1765   42
 Side 2 forced transition at x/c =  1.0000   70

   1   rms: 0.7889E-01   max: -.3791E+00   D at   42  1
       a =  7.500      CL =  0.9755
      Cm = -0.0102     CD =  0.01208   =>   CDf =  0.00619    CDp =  0.00588

 Side 1  free  transition at x/c =  0.1674   41
 Side 2 forced transition at x/c =  1.0000   70

   2   rms: 0.1824E-01   max: -.1737E+00   D at   42  1
       a =  7.500      CL =  0.9764
      Cm = -0.0104     CD =  0.01200   =>   CDf =  0.00618    CDp =  0.00581

 Side 1  free  transition at x/c =  0.1669   41
 Side 2 forced transition at x/c =  1.0000   70

   3   rms: 0.9691E-03   max: -.1358E-01   D at   42  1
       a =  7.500      CL =  0.9761
      Cm = -0.0103     CD =  0.01204   =>   CDf =  0.00618    CDp =  0.00586

 Side 1  free  transition at x/c =  0.1666   41
 Side 2 forced transition at x/c =  1.0000   70

   4   rms: 0.8659E-05   max: -.1489E-03   D at   42  1
       a =  7.500      CL =  0.9761
      Cm = -0.0103     CD =  0.01204   =>   CDf =  0.00618    CDp =  0.00586
 plradd ia,ip,cpol           24           0  4.29404201E-03

 Point added to stored polar  1
 Point written to save file  naca23012_Re600k.base.pol                       
 Dump file unspecified or not available
 Calculating wake trajectory ...
 Calculating source influence matrix ...

 Solving BL system ...

 Side 1  free  transition at x/c =  0.1666   41
 Side 2 forced transition at x/c =  1.0000   70

   1   rms: 0.7645E-01   max: -.1830E+00   C at   70  2
       a =  8.000      CL =  1.0234
      Cm = -0.0088     CD =  0.01241   =>   CDf =  0.00606    CDp =  0.00635

 Side 1  free  transition at x/c =  0.1549   41
 Side 2 forced transition at x/c =  1.0000   69

   2   rms: 0.1074E-01   max: -.1219E+00   D at   41  1
       a =  8.000      CL =  1.0220
      Cm = -0.0087     CD =  0.01254   =>   CDf =  0.00621    CDp =  0.00632

 Side 1  free  transition at x/c =  0.1558   41
 Side 2 forced transition at x/c =  1.0000   69

   3   rms: 0.6073E-03   max: -.4719E-02   D at    4  1
       a =  8.000      CL =  1.0220
      Cm = -0.0086     CD =  0.01254   =>   CDf =  0.00619    CDp =  0.00635

 Side 1  free  transition at x/c =  0.1557   41
 Side 2 forced transition at x/c =  1.0000   69

   4   rms: 0.1151E-05   max: -.8378E-05   C at   41  1
       a =  8.000      CL =  1.0220
      Cm = -0.0086     CD =  0.01254   =>   CDf =  0.00619    CDp =  0.00634
 plradd ia,ip,cpol           25           0  4.29404201E-03

 Point added to stored polar  1
 Point written to save file  naca23012_Re600k.base.pol                       
 Dump file unspecified or not available
 Calculating wake trajectory ...
 Calculating source influence matrix ...

 Solving BL system ...

 Side 1  free  transition at x/c =  0.1557   41
 Side 2 forced transition at x/c =  1.0000   69

   1   rms: 0.7836E-01   max: -.3666E+00   C at   41  1
       a =  8.500      CL =  1.0715
      Cm = -0.0075     CD =  0.01278   =>   CDf =  0.00606    CDp =  0.00672

 Side 1  free  transition at x/c =  0.1434   42
 Side 2 forced transition at x/c =  1.0000   68

   2   rms: 0.5280E-02   max: 0.3908E-01   D at   43  1
       a =  8.500      CL =  1.0689
      Cm = -0.0072     CD =  0.01303   =>   CDf =  0.00622    CDp =  0.00681

 Side 1  free  transition at x/c =  0.1442   42
 Side 2 forced transition at x/c =  1.0000   68

   3   rms: 0.8945E-03   max: -.9767E-02   D at    4  1
       a =  8.500      CL =  1.0688
      Cm = -0.0072     CD =  0.01304   =>   CDf =  0.00619    CDp =  0.00685

 Side 1  free  transition at x/c =  0.1441   42
 Side 2 forced transition at x/c =  1.0000   68

   4   rms: 0.5754E-05   max: -.9033E-04   D at   42  1
       a =  8.500      CL =  1.0688
      Cm = -0.0072     CD =  0.01304   =>   CDf =  0.00619    CDp =  0.00685
 plradd ia,ip,cpol           26           0  2.95574823E-03

 Point added to stored polar  1
 Point written to save file  naca23012_Re600k.base.pol                       
 Dump file unspecified or not available
 Calculating wake trajectory ...
 Calculating source influence matrix ...

 Solving BL system ...

 Side 1  free  transition at x/c =  0.1441   42
 Side 2 forced transition at x/c =  1.0000   68

   1   rms: 0.8273E-01   max: -.4079E+00   D at   42  1
       a =  9.000      CL =  1.1119
      Cm = -0.0053     CD =  0.01395   =>   CDf =  0.00619    CDp =  0.00776

 Side 1  free  transition at x/c =  0.1317   41
 Side 2 forced transition at x/c =  1.0000   68

   2   rms: 0.1667E-01   max: 0.2840E+00   D at   41  1
       a =  9.000      CL =  1.1162
      Cm = -0.0060     CD =  0.01357   =>   CDf =  0.00622    CDp =  0.00735

 Side 1  free  transition at x/c =  0.1339   41
 Side 2 forced transition at x/c =  1.0000   68

   3   rms: 0.3789E-02   max: -.2314E-01   D at   42  1
       a =  9.000      CL =  1.1164
      Cm = -0.0060     CD =  0.01355   =>   CDf =  0.00614    CDp =  0.00741

 Side 1  free  transition at x/c =  0.1329   41
 Side 2 forced transition at x/c =  1.0000   68

   4   rms: 0.7349E-04   max: -.1043E-02   D at   42  1
       a =  9.000      CL =  1.1163
      Cm = -0.0060     CD =  0.01356   =>   CDf =  0.00616    CDp =  0.00740
 plradd ia,ip,cpol           27           0  2.95574823E-03

 Point added to stored polar  1
 Point written to save file  naca23012_Re600k.base.pol                       
 Dump file unspecified or not available
 Calculating wake trajectory ...
 Calculating source influence matrix ...

 Solving BL system ...

 Side 1  free  transition at x/c =  0.1329   41
 Side 2 forced transition at x/c =  1.0000   68

   1   rms: 0.8289E-01   max: -.5099E+00   D at   41  1   RLX: 0.981
       a =  9.500      CL =  1.1605
      Cm = -0.0045     CD =  0.01433   =>   CDf =  0.00600    CDp =  0.00833

 Side 1  free  transition at x/c =  0.1202   41
 Side 2 forced transition at x/c =  1.0000   67

   2   rms: 0.3095E-01   max: -.3548E+00   D at   41  1
       a =  9.500      CL =  1.1644
      Cm = -0.0049     CD =  0.01405   =>   CDf =  0.00611    CDp =  0.00794

 Side 1  free  transition at x/c =  0.1209   41
 Side 2 forced transition at x/c =  1.0000   67

   3   rms: 0.3590E-02   max: -.3689E-01   D at   42  1
       a =  9.500      CL =  1.1631
      Cm = -0.0047     CD =  0.01419   =>   CDf =  0.00613    CDp =  0.00805

 Side 1  free  transition at x/c =  0.1201   41
 Side 2 forced transition at x/c =  1.0000   67

   4   rms: 0.9397E-04   max: -.1533E-02   D at   42  1
       a =  9.500      CL =  1.1631
      Cm = -0.0047     CD =  0.01419   =>   CDf =  0.00615    CDp =  0.00804
 plradd ia,ip,cpol           28           0  2.95574823E-03

 Point added to stored polar  1
 Point written to save file  naca23012_Re600k.base.pol                       
 Dump file unspecified or not available
 Calculating wake trajectory ...
 Calculating source influence matrix ...

 Solving BL system ...

 Side 1  free  transition at x/c =  0.1201   41
 Side 2 forced transition at x/c =  1.0000   67

   1   rms: 0.8631E-01   max: -.6082E+00   D at   41  1   RLX: 0.822
       a = 10.000      CL =  1.1993
      Cm = -0.0035     CD =  0.01495   =>   CDf =  0.00615    CDp =  0.00880

 Side 1  free  transition at x/c =  0.1085   40
 Side 2 forced transition at x/c =  1.0000   67

   2   rms: 0.2212E-01   max: -.2712E+00   D at   41  1
       a = 10.000      CL =  1.2095
      Cm = -0.0035     CD =  0.01486   =>   CDf =  0.00595    CDp =  0.00892

 Side 1  free  transition at x/c =  0.1062   41
 Side 2 forced transition at x/c =  1.0000   66
 idif Ue xi dudx           1  8.21910724E-02  4.00519371E-03   20.521122    
 Uenew xinew           2  6.38486468E-04  3.11136246E-05

   3   rms: 0.2891E-01   max: -.5079E+00   D at    2  1   RLX: 0.984
       a = 10.000      CL =  1.2085
      Cm = -0.0034     CD =  0.01496   =>   CDf =  0.00634    CDp =  0.00862

 Side 1  free  transition at x/c =  0.1057   40
 Side 2 forced transition at x/c =  1.0000   67

   4   rms: 0.2170E-02   max: 0.2722E-01   D at    2  2
       a = 10.000      CL =  1.2084
      Cm = -0.0034     CD =  0.01497   =>   CDf =  0.00618    CDp =  0.00879

 Side 1  free  transition at x/c =  0.1057   40
 Side 2 forced transition at x/c =  1.0000   67

   5   rms: 0.6008E-03   max: 0.7105E-02   D at    4  2
       a = 10.000      CL =  1.2084
      Cm = -0.0034     CD =  0.01497   =>   CDf =  0.00618    CDp =  0.00879

 Side 1  free  transition at x/c =  0.1057   40
 Side 2 forced transition at x/c =  1.0000   67

   6   rms: 0.2665E-05   max: 0.3174E-04   D at    4  2
       a = 10.000      CL =  1.2084
      Cm = -0.0034     CD =  0.01497   =>   CDf =  0.00618    CDp =  0.00879
 plradd ia,ip,cpol           29           0  1.84838939E-03

 Point added to stored polar  1
 Point written to save file  naca23012_Re600k.base.pol                       
 Dump file unspecified or not available

.OPERva   c>  
 Solving BL system ...

 Side 1  free  transition at x/c =  0.1057   40
 Side 2 forced transition at x/c =  1.0000   67

   1   rms: 0.2500E-05   max: -.2977E-04   D at    4  2
       a = 10.000      CL =  1.2084
      Cm = -0.0034     CD =  0.01497   =>   CDf =  0.00618    CDp =  0.00879
 plradd ia,ip,cpol           30         182  1.84838939E-03

 Point added to stored polar  1
 Point written to save file  naca23012_Re600k.base.pol                       
 Dump file unspecified or not available
 Calculating wake trajectory ...
 Calculating source influence matrix ...

 Solving BL system ...

 Side 1  free  transition at x/c =  0.1057   40
 Side 2 forced transition at x/c =  1.0000   67

   1   rms: 0.4434E-01   max: -.2533E+00   D at   40  1
       a = 10.250      CL =  1.2290
      Cm = -0.0025     CD =  0.01556   =>   CDf =  0.00599    CDp =  0.00957

 Side 1  free  transition at x/c =  0.0984   40
 Side 2 forced transition at x/c =  1.0000   66

   2   rms: 0.1449E-01   max: -.1565E+00   D at   40  1
       a = 10.250      CL =  1.2318
      Cm = -0.0028     CD =  0.01528   =>   CDf =  0.00613    CDp =  0.00915

 Side 1  free  transition at x/c =  0.0995   40
 Side 2 forced transition at x/c =  1.0000   66

   3   rms: 0.9435E-03   max: 0.1163E-01   C at   40  1
       a = 10.250      CL =  1.2316
      Cm = -0.0028     CD =  0.01531   =>   CDf =  0.00614    CDp =  0.00917

 Side 1  free  transition at x/c =  0.0993   40
 Side 2 forced transition at x/c =  1.0000   66

   4   rms: 0.7499E-05   max: -.3714E-04   C at   66  2
       a = 10.250      CL =  1.2316
      Cm = -0.0028     CD =  0.01531   =>   CDf =  0.00614    CDp =  0.00917
 plradd ia,ip,cpol           31           0  1.84838939E-03

 Point added to stored polar  1
 Point written to save file  naca23012_Re600k.base.pol                       
 Dump file unspecified or not available
 Calculating wake trajectory ...
 Calculating source influence matrix ...

 Solving BL system ...

 Side 1  free  transition at x/c =  0.0993   40
 Side 2 forced transition at x/c =  1.0000   66

   1   rms: 0.4132E-01   max: -.2226E+00   D at   40  1
       a = 10.500      CL =  1.2536
      Cm = -0.0021     CD =  0.01577   =>   CDf =  0.00614    CDp =  0.00963

 Side 1  free  transition at x/c =  0.0925   39
 Side 2 forced transition at x/c =  1.0000   66

   2   rms: 0.3843E-02   max: -.5898E-01   C at   39  1
       a = 10.500      CL =  1.2531
      Cm = -0.0020     CD =  0.01580   =>   CDf =  0.00616    CDp =  0.00964

 Side 1  free  transition at x/c =  0.0925   39
 Side 2 forced transition at x/c =  1.0000   66

   3   rms: 0.8012E-04   max: 0.1442E-02   C at   39  1
       a = 10.500      CL =  1.2531
      Cm = -0.0020     CD =  0.01580   =>   CDf =  0.00616    CDp =  0.00964
 plradd ia,ip,cpol           32           0  1.84838939E-03

 Point added to stored polar  1
 Point written to save file  naca23012_Re600k.base.pol                       
 Dump file unspecified or not available
 Calculating wake trajectory ...
 Calculating source influence matrix ...

 Solving BL system ...

 Side 1  free  transition at x/c =  0.0925   39
 Side 2 forced transition at x/c =  1.0000   66

   1   rms: 0.3861E-01   max: -.1410E+00   D at   39  1
       a = 10.750      CL =  1.2762
      Cm = -0.0014     CD =  0.01615   =>   CDf =  0.00616    CDp =  0.01000

 Side 1  free  transition at x/c =  0.0848   39
 Side 2 forced transition at x/c =  1.0000   66

   2   rms: 0.3946E-02   max: 0.3718E-01   D at   40  1
       a = 10.750      CL =  1.2746
      Cm = -0.0013     CD =  0.01627   =>   CDf =  0.00618    CDp =  0.01009

 Side 1  free  transition at x/c =  0.0856   39
 Side 2 forced transition at x/c =  1.0000   66

   3   rms: 0.2388E-03   max: -.2719E-02   D at   40  1
       a = 10.750      CL =  1.2746
      Cm = -0.0013     CD =  0.01628   =>   CDf =  0.00616    CDp =  0.01012

 Side 1  free  transition at x/c =  0.0855   39
 Side 2 forced transition at x/c =  1.0000   66

   4   rms: 0.2090E-05   max: -.7857E-05   C at   66  2
       a = 10.750      CL =  1.2746
      Cm = -0.0013     CD =  0.01628   =>   CDf =  0.00616    CDp =  0.01012
 plradd ia,ip,cpol           33           0  1.84838939E-03

 Point added to stored polar  1
 Point written to save file  naca23012_Re600k.base.pol                       
 Dump file unspecified or not available
 Calculating wake trajectory ...
 Calculating source influence matrix ...

 Solving BL system ...

 Side 1  free  transition at x/c =  0.0855   39
 Side 2 forced transition at x/c =  1.0000   66

   1   rms: 0.4405E-01   max: -.3039E+00   D at   39  1
       a = 11.000      CL =  1.2944
      Cm = -0.0003     CD =  0.01693   =>   CDf =  0.00595    CDp =  0.01099

 Side 1  free  transition at x/c =  0.0792   39
 Side 2 forced transition at x/c =  1.0000   65

   2   rms: 0.7376E-02   max: -.9141E-01   D at   40  1
       a = 11.000      CL =  1.2957
      Cm = -0.0005     CD =  0.01677   =>   CDf =  0.00613    CDp =  0.01064

 Side 1  free  transition at x/c =  0.0789   39
 Side 2 forced transition at x/c =  1.0000   65

   3   rms: 0.5899E-03   max: -.6288E-02   D at    4  1
       a = 11.000      CL =  1.2956
      Cm = -0.0004     CD =  0.01678   =>   CDf =  0.00615    CDp =  0.01064

 Side 1  free  transition at x/c =  0.0788   39
 Side 2 forced transition at x/c =  1.0000   65

   4   rms: 0.7772E-06   max: -.2488E-05   T at   67  2
       a = 11.000      CL =  1.2956
      Cm = -0.0004     CD =  0.01678   =>   CDf =  0.00615    CDp =  0.01064
 plradd ia,ip,cpol           34           0  1.84838939E-03

 Point added to stored polar  1
 Point written to save file  naca23012_Re600k.base.pol                       
 Dump file unspecified or not available
 Calculating wake trajectory ...
 Calculating source influence matrix ...

 Solving BL system ...

 Side 1  free  transition at x/c =  0.0788   39
 Side 2 forced transition at x/c =  1.0000   65

   1   rms: 0.4139E-01   max: -.2178E+00   D at   39  1
       a = 11.250      CL =  1.3164
      Cm =  0.0004     CD =  0.01733   =>   CDf =  0.00615    CDp =  0.01119

 Side 1  free  transition at x/c =  0.0718   38
 Side 2 forced transition at x/c =  1.0000   65

   2   rms: 0.4319E-02   max: -.7255E-01   C at   38  1
       a = 11.250      CL =  1.3152
      Cm =  0.0005     CD =  0.01740   =>   CDf =  0.00616    CDp =  0.01123

 Side 1  free  transition at x/c =  0.0720   38
 Side 2 forced transition at x/c =  1.0000   65

   3   rms: 0.1060E-03   max: 0.1908E-02   C at   38  1
       a = 11.250      CL =  1.3152
      Cm =  0.0005     CD =  0.01740   =>   CDf =  0.00616    CDp =  0.01124

 Side 1  free  transition at x/c =  0.0720   38
 Side 2 forced transition at x/c =  1.0000   65

   4   rms: 0.6602E-06   max: -.4250E-05   D at   38  1
       a = 11.250      CL =  1.3152
      Cm =  0.0005     CD =  0.01740   =>   CDf =  0.00616    CDp =  0.01124
 plradd ia,ip,cpol           35           0  1.84838939E-03

 Point added to stored polar  1
 Point written to save file  naca23012_Re600k.base.pol                       
 Dump file unspecified or not available
 Calculating wake trajectory ...
 Calculating source influence matrix ...

 Solving BL system ...

 Side 1  free  transition at x/c =  0.0720   38
 Side 2 forced transition at x/c =  1.0000   65

   1   rms: 0.3867E-01   max: -.1543E+00   D at   38  1
       a = 11.500      CL =  1.3366
      Cm =  0.0013     CD =  0.01786   =>   CDf =  0.00616    CDp =  0.01170

 Side 1  free  transition at x/c =  0.0649   38
 Side 2 forced transition at x/c =  1.0000   65

   2   rms: 0.3767E-02   max: 0.3819E-01   D at   38  1
       a = 11.500      CL =  1.3344
      Cm =  0.0015     CD =  0.01802   =>   CDf =  0.00619    CDp =  0.01183

 Side 1  free  transition at x/c =  0.0656   38
 Side 2 forced transition at x/c =  1.0000   65

   3   rms: 0.3056E-03   max: -.3805E-02   D at   38  1
       a = 11.500      CL =  1.3344
      Cm =  0.0015     CD =  0.01802   =>   CDf =  0.00617    CDp =  0.01185

 Side 1  free  transition at x/c =  0.0655   38
 Side 2 forced transition at x/c =  1.0000   65

   4   rms: 0.3135E-05   max: -.1761E-04   D at   38  1
       a = 11.500      CL =  1.3344
      Cm =  0.0015     CD =  0.01802   =>   CDf =  0.00617    CDp =  0.01185
 plradd ia,ip,cpol           36           0  1.84838939E-03

 Point added to stored polar  1
 Point written to save file  naca23012_Re600k.base.pol                       
 Dump file unspecified or not available
 Calculating wake trajectory ...
 Calculating source influence matrix ...

 Solving BL system ...

 Side 1  free  transition at x/c =  0.0655   38
 Side 2 forced transition at x/c =  1.0000   65

   1   rms: 0.4481E-01   max: -.3101E+00   D at   38  1
       a = 11.750      CL =  1.3513
      Cm =  0.0028     CD =  0.01887   =>   CDf =  0.00617    CDp =  0.01270

 Side 1  free  transition at x/c =  0.0602   37
 Side 2 forced transition at x/c =  1.0000   65

   2   rms: 0.9125E-02   max: -.1114E+00   D at   38  1
       a = 11.750      CL =  1.3534
      Cm =  0.0025     CD =  0.01862   =>   CDf =  0.00613    CDp =  0.01249

 Side 1  free  transition at x/c =  0.0599   37
 Side 2 forced transition at x/c =  1.0000   65

   3   rms: 0.4761E-03   max: 0.5339E-02   C at   37  1
       a = 11.750      CL =  1.3532
      Cm =  0.0026     CD =  0.01865   =>   CDf =  0.00615    CDp =  0.01250

 Side 1  free  transition at x/c =  0.0599   37
 Side 2 forced transition at x/c =  1.0000   65

   4   rms: 0.1072E-04   max: -.1105E-03   D at    4  2
       a = 11.750      CL =  1.3532
      Cm =  0.0026     CD =  0.01865   =>   CDf =  0.00615    CDp =  0.01250
 plradd ia,ip,cpol           37           0  9.57455428E-04

 Point added to stored polar  1
 Point written to save file  naca23012_Re600k.base.pol                       
 Dump file unspecified or not available
 Calculating wake trajectory ...
 Calculating source influence matrix ...

 Solving BL system ...

 Side 1  free  transition at x/c =  0.0599   37
 Side 2 forced transition at x/c =  1.0000   65

   1   rms: 0.4547E-01   max: -.3259E+00   D at    3  2
       a = 12.000      CL =  1.3711
      Cm =  0.0037     CD =  0.01937   =>   CDf =  0.00588    CDp =  0.01348

 Side 1  free  transition at x/c =  0.0546   37
 Side 2 forced transition at x/c =  1.0000   64

   2   rms: 0.6101E-02   max: -.7147E-01   C at   37  1
       a = 12.000      CL =  1.3702
      Cm =  0.0038     CD =  0.01938   =>   CDf =  0.00614    CDp =  0.01324

 Side 1  free  transition at x/c =  0.0545   37
 Side 2 forced transition at x/c =  1.0000   64

   3   rms: 0.6095E-03   max: -.6627E-02   D at    4  1
       a = 12.000      CL =  1.3701
      Cm =  0.0038     CD =  0.01939   =>   CDf =  0.00614    CDp =  0.01325

 Side 1  free  transition at x/c =  0.0545   37
 Side 2 forced transition at x/c =  1.0000   64

   4   rms: 0.8083E-06   max: 0.2594E-05   D at   39  1
       a = 12.000      CL =  1.3701
      Cm =  0.0038     CD =  0.01939   =>   CDf =  0.00614    CDp =  0.01325
 plradd ia,ip,cpol           38           0  9.57455428E-04

 Point added to stored polar  1
 Point written to save file  naca23012_Re600k.base.pol                       
 Dump file unspecified or not available
 Calculating wake trajectory ...
 Calculating source influence matrix ...

 Solving BL system ...

 Side 1  free  transition at x/c =  0.0545   37
 Side 2 forced transition at x/c =  1.0000   64

   1   rms: 0.3805E-01   max: -.1457E+00   D at   37  1
       a = 12.250      CL =  1.3890
      Cm =  0.0048     CD =  0.01999   =>   CDf =  0.00614    CDp =  0.01385

 Side 1  free  transition at x/c =  0.0492   37
 Side 2 forced transition at x/c =  1.0000   64

   2   rms: 0.3973E-02   max: 0.2501E-01   D at   37  1
       a = 12.250      CL =  1.3862
      Cm =  0.0052     CD =  0.02015   =>   CDf =  0.00614    CDp =  0.01401

 Side 1  free  transition at x/c =  0.0497   37
 Side 2 forced transition at x/c =  1.0000   64

   3   rms: 0.1869E-03   max: -.1705E-02   D at   38  1
       a = 12.250      CL =  1.3862
      Cm =  0.0052     CD =  0.02016   =>   CDf =  0.00613    CDp =  0.01402

 Side 1  free  transition at x/c =  0.0496   37
 Side 2 forced transition at x/c =  1.0000   64

   4   rms: 0.1981E-05   max: -.5454E-05   C at   64  2
       a = 12.250      CL =  1.3862
      Cm =  0.0052     CD =  0.02016   =>   CDf =  0.00613    CDp =  0.01402
 plradd ia,ip,cpol           39           0  9.57455428E-04

 Point added to stored polar  1
 Point written to save file  naca23012_Re600k.base.pol                       
 Dump file unspecified or not available
 Calculating wake trajectory ...
 Calculating source influence matrix ...

 Solving BL system ...

 Side 1  free  transition at x/c =  0.0496   37
 Side 2 forced transition at x/c =  1.0000   64

   1   rms: 0.4345E-01   max: -.2843E+00   D at   37  1
       a = 12.500      CL =  1.3999
      Cm =  0.0067     CD =  0.02115   =>   CDf =  0.00613    CDp =  0.01501

 Side 1  free  transition at x/c =  0.0458   36
 Side 2 forced transition at x/c =  1.0000   64

   2   rms: 0.1149E-01   max: -.1300E+00   D at   36  1
       a = 12.500      CL =  1.4020
      Cm =  0.0065     CD =  0.02087   =>   CDf =  0.00607    CDp =  0.01481

 Side 1  free  transition at x/c =  0.0456   36
 Side 2 forced transition at x/c =  1.0000   64

   3   rms: 0.7088E-03   max: 0.7234E-02   C at   36  1
       a = 12.500      CL =  1.4015
      Cm =  0.0066     CD =  0.02092   =>   CDf =  0.00609    CDp =  0.01483

 Side 1  free  transition at x/c =  0.0455   36
 Side 2 forced transition at x/c =  1.0000   64

   4   rms: 0.4154E-05   max: -.2128E-04   D at   37  1
       a = 12.500      CL =  1.4015
      Cm =  0.0066     CD =  0.02092   =>   CDf =  0.00609    CDp =  0.01483
 plradd ia,ip,cpol           40           0  9.57455428E-04

 Point added to stored polar  1
 Point written to save file  naca23012_Re600k.base.pol                       
 Dump file unspecified or not available
 Calculating wake trajectory ...
 Calculating source influence matrix ...

 Solving BL system ...

 Side 1  free  transition at x/c =  0.0455   36
 Side 2 forced transition at x/c =  1.0000   64

   1   rms: 0.3915E-01   max: -.1824E+00   D at   36  1
       a = 12.750      CL =  1.4164
      Cm =  0.0080     CD =  0.02174   =>   CDf =  0.00609    CDp =  0.01565

 Side 1  free  transition at x/c =  0.0415   35
 Side 2 forced transition at x/c =  1.0000   64

   2   rms: 0.5933E-02   max: -.3024E-01   C at   64  2
       a = 12.750      CL =  1.4109
      Cm =  0.0088     CD =  0.02191   =>   CDf =  0.00610    CDp =  0.01582

 Side 1  free  transition at x/c =  0.0415   35
 Side 2 forced transition at x/c =  1.0000   64

   3   rms: 0.4670E-02   max: -.7816E-01   C at   35  1
       a = 12.750      CL =  1.4107
      Cm =  0.0089     CD =  0.02191   =>   CDf =  0.00610    CDp =  0.01581

 Side 1  free  transition at x/c =  0.0415   35
 Side 2 forced transition at x/c =  1.0000   64

   4   rms: 0.4582E-02   max: -.7732E-01   C at   35  1
       a = 12.750      CL =  1.4107
      Cm =  0.0089     CD =  0.02191   =>   CDf =  0.00610    CDp =  0.01581

 Side 1  free  transition at x/c =  0.0415   35
 Side 2 forced transition at x/c =  1.0000   64

   5   rms: 0.4587E-02   max: -.7738E-01   C at   35  1
       a = 12.750      CL =  1.4107
      Cm =  0.0089     CD =  0.02191   =>   CDf =  0.00610    CDp =  0.01581

 Side 1  free  transition at x/c =  0.0415   35
 Side 2 forced transition at x/c =  1.0000   64

   6   rms: 0.4587E-02   max: -.7737E-01   C at   35  1
       a = 12.750      CL =  1.4107
      Cm =  0.0089     CD =  0.02191   =>   CDf =  0.00610    CDp =  0.01581

 Side 1  free  transition at x/c =  0.0415   35
 Side 2 forced transition at x/c =  1.0000   64

   7   rms: 0.4587E-02   max: -.7737E-01   C at   35  1
       a = 12.750      CL =  1.4107
      Cm =  0.0089     CD =  0.02191   =>   CDf =  0.00610    CDp =  0.01581

 Side 1  free  transition at x/c =  0.0415   35
 Side 2 forced transition at x/c =  1.0000   64

   8   rms: 0.4587E-02   max: -.7737E-01   C at   35  1
       a = 12.750      CL =  1.4107
      Cm =  0.0089     CD =  0.02191   =>   CDf =  0.00610    CDp =  0.01581

 Side 1  free  transition at x/c =  0.0415   35
 Side 2 forced transition at x/c =  1.0000   64

   9   rms: 0.4587E-02   max: -.7737E-01   C at   35  1
       a = 12.750      CL =  1.4107
      Cm =  0.0089     CD =  0.02191   =>   CDf =  0.00610    CDp =  0.01581

 Side 1  free  transition at x/c =  0.0415   35
 Side 2 forced transition at x/c =  1.0000   64

  10   rms: 0.4587E-02   max: -.7737E-01   C at   35  1
       a = 12.750      CL =  1.4107
      Cm =  0.0089     CD =  0.02191   =>   CDf =  0.00610    CDp =  0.01581

 Side 1  free  transition at x/c =  0.0415   35
 Side 2 forced transition at x/c =  1.0000   64

  11   rms: 0.4587E-02   max: -.7737E-01   C at   35  1
       a = 12.750      CL =  1.4107
      Cm =  0.0089     CD =  0.02191   =>   CDf =  0.00610    CDp =  0.01581

 Side 1  free  transition at x/c =  0.0415   35
 Side 2 forced transition at x/c =  1.0000   64

  12   rms: 0.4587E-02   max: -.7737E-01   C at   35  1
       a = 12.750      CL =  1.4107
      Cm =  0.0089     CD =  0.02191   =>   CDf =  0.00610    CDp =  0.01581

 Side 1  free  transition at x/c =  0.0415   35
 Side 2 forced transition at x/c =  1.0000   64

  13   rms: 0.4587E-02   max: -.7738E-01   C at   35  1
       a = 12.750      CL =  1.4107
      Cm =  0.0089     CD =  0.02191   =>   CDf =  0.00610    CDp =  0.01581

 Side 1  free  transition at x/c =  0.0415   35
 Side 2 forced transition at x/c =  1.0000   64

  14   rms: 0.4587E-02   max: -.7737E-01   C at   35  1
       a = 12.750      CL =  1.4107
      Cm =  0.0089     CD =  0.02191   =>   CDf =  0.00610    CDp =  0.01581

 Side 1  free  transition at x/c =  0.0415   35
 Side 2 forced transition at x/c =  1.0000   64

  15   rms: 0.4587E-02   max: -.7738E-01   C at   35  1
       a = 12.750      CL =  1.4107
      Cm =  0.0089     CD =  0.02191   =>   CDf =  0.00610    CDp =  0.01581

 Side 1  free  transition at x/c =  0.0415   35
 Side 2 forced transition at x/c =  1.0000   64

  16   rms: 0.4587E-02   max: -.7738E-01   C at   35  1
       a = 12.750      CL =  1.4107
      Cm =  0.0089     CD =  0.02191   =>   CDf =  0.00610    CDp =  0.01581

 Side 1  free  transition at x/c =  0.0415   35
 Side 2 forced transition at x/c =  1.0000   64

  17   rms: 0.4587E-02   max: -.7737E-01   C at   35  1
       a = 12.750      CL =  1.4107
      Cm =  0.0089     CD =  0.02191   =>   CDf =  0.00610    CDp =  0.01581

 Side 1  free  transition at x/c =  0.0415   35
 Side 2 forced transition at x/c =  1.0000   64

  18   rms: 0.4587E-02   max: -.7738E-01   C at   35  1
       a = 12.750      CL =  1.4107
      Cm =  0.0089     CD =  0.02191   =>   CDf =  0.00610    CDp =  0.01581

 Side 1  free  transition at x/c =  0.0415   35
 Side 2 forced transition at x/c =  1.0000   64

  19   rms: 0.4587E-02   max: -.7737E-01   C at   35  1
       a = 12.750      CL =  1.4107
      Cm =  0.0089     CD =  0.02191   =>   CDf =  0.00610    CDp =  0.01581

 Side 1  free  transition at x/c =  0.0415   35
 Side 2 forced transition at x/c =  1.0000   64

  20   rms: 0.4587E-02   max: -.7737E-01   C at   35  1
       a = 12.750      CL =  1.4107
      Cm =  0.0089     CD =  0.02191   =>   CDf =  0.00610    CDp =  0.01581

 Side 1  free  transition at x/c =  0.0415   35
 Side 2 forced transition at x/c =  1.0000   64

  21   rms: 0.4587E-02   max: -.7737E-01   C at   35  1
       a = 12.750      CL =  1.4107
      Cm =  0.0089     CD =  0.02191   =>   CDf =  0.00610    CDp =  0.01581

 Side 1  free  transition at x/c =  0.0415   35
 Side 2 forced transition at x/c =  1.0000   64

  22   rms: 0.4587E-02   max: -.7738E-01   C at   35  1
       a = 12.750      CL =  1.4107
      Cm =  0.0089     CD =  0.02191   =>   CDf =  0.00610    CDp =  0.01581

 Side 1  free  transition at x/c =  0.0415   35
 Side 2 forced transition at x/c =  1.0000   64

  23   rms: 0.4586E-02   max: -.7736E-01   C at   35  1
       a = 12.750      CL =  1.4107
      Cm =  0.0089     CD =  0.02191   =>   CDf =  0.00610    CDp =  0.01581

 Side 1  free  transition at x/c =  0.0415   35
 Side 2 forced transition at x/c =  1.0000   64

  24   rms: 0.4587E-02   max: -.7737E-01   C at   35  1
       a = 12.750      CL =  1.4107
      Cm =  0.0089     CD =  0.02191   =>   CDf =  0.00610    CDp =  0.01581

 Side 1  free  transition at x/c =  0.0415   35
 Side 2 forced transition at x/c =  1.0000   64

  25   rms: 0.4587E-02   max: -.7737E-01   C at   35  1
       a = 12.750      CL =  1.4107
      Cm =  0.0089     CD =  0.02191   =>   CDf =  0.00610    CDp =  0.01581

 Side 1  free  transition at x/c =  0.0415   35
 Side 2 forced transition at x/c =  1.0000   64

  26   rms: 0.4587E-02   max: -.7737E-01   C at   35  1
       a = 12.750      CL =  1.4107
      Cm =  0.0089     CD =  0.02191   =>   CDf =  0.00610    CDp =  0.01581

 Side 1  free  transition at x/c =  0.0415   35
 Side 2 forced transition at x/c =  1.0000   64

  27   rms: 0.4587E-02   max: -.7737E-01   C at   35  1
       a = 12.750      CL =  1.4107
      Cm =  0.0089     CD =  0.02191   =>   CDf =  0.00610    CDp =  0.01581

 Side 1  free  transition at x/c =  0.0415   35
 Side 2 forced transition at x/c =  1.0000   64

  28   rms: 0.4587E-02   max: -.7737E-01   C at   35  1
       a = 12.750      CL =  1.4107
      Cm =  0.0089     CD =  0.02191   =>   CDf =  0.00610    CDp =  0.01581

 Side 1  free  transition at x/c =  0.0415   35
 Side 2 forced transition at x/c =  1.0000   64

  29   rms: 0.4587E-02   max: -.7737E-01   C at   35  1
       a = 12.750      CL =  1.4107
      Cm =  0.0089     CD =  0.02191   =>   CDf =  0.00610    CDp =  0.01581

 Side 1  free  transition at x/c =  0.0415   35
 Side 2 forced transition at x/c =  1.0000   64

  30   rms: 0.4587E-02   max: -.7738E-01   C at   35  1
       a = 12.750      CL =  1.4107
      Cm =  0.0089     CD =  0.02191   =>   CDf =  0.00610    CDp =  0.01581

 Side 1  free  transition at x/c =  0.0415   35
 Side 2 forced transition at x/c =  1.0000   64

  31   rms: 0.4587E-02   max: -.7737E-01   C at   35  1
       a = 12.750      CL =  1.4107
      Cm =  0.0089     CD =  0.02191   =>   CDf =  0.00610    CDp =  0.01581

 Side 1  free  transition at x/c =  0.0415   35
 Side 2 forced transition at x/c =  1.0000   64

  32   rms: 0.4587E-02   max: -.7737E-01   C at   35  1
       a = 12.750      CL =  1.4107
      Cm =  0.0089     CD =  0.02191   =>   CDf =  0.00610    CDp =  0.01581

 Side 1  free  transition at x/c =  0.0415   35
 Side 2 forced transition at x/c =  1.0000   64

  33   rms: 0.4587E-02   max: -.7737E-01   C at   35  1
       a = 12.750      CL =  1.4107
      Cm =  0.0089     CD =  0.02191   =>   CDf =  0.00610    CDp =  0.01581

 Side 1  free  transition at x/c =  0.0415   35
 Side 2 forced transition at x/c =  1.0000   64

  34   rms: 0.4587E-02   max: -.7737E-01   C at   35  1
       a = 12.750      CL =  1.4107
      Cm =  0.0089     CD =  0.02191   =>   CDf =  0.00610    CDp =  0.01581

 Side 1  free  transition at x/c =  0.0415   35
 Side 2 forced transition at x/c =  1.0000   64

  35   rms: 0.4587E-02   max: -.7737E-01   C at   35  1
       a = 12.750      CL =  1.4107
[...]
       a = 12.750      CL =  1.4107
      Cm =  0.0089     CD =  0.02191   =>   CDf =  0.00610    CDp =  0.01581

 Side 1  free  transition at x/c =  0.0415   35
 Side 2 forced transition at x/c =  1.0000   64

 152   rms: 0.4587E-02   max: -.7738E-01   C at   35  1
       a = 12.750      CL =  1.4107
      Cm =  0.0089     CD =  0.02191   =>   CDf =  0.00610    CDp =  0.01581

 Side 1  free  transition at x/c =  0.0415   35
 Side 2 forced transition at x/c =  1.0000   64

 153   rms: 0.4587E-02   max: -.7737E-01   C at   35  1
       a = 12.750      CL =  1.4107
      Cm =  0.0089     CD =  0.02191   =>   CDf =  0.00610    CDp =  0.01581

 Side 1  free  transition at x/c =  0.0415   35
 Side 2 forced transition at x/c =  1.0000   64

 154   rms: 0.4587E-02   max: -.7737E-01   C at   35  1
       a = 12.750      CL =  1.4107
      Cm =  0.0089     CD =  0.02191   =>   CDf =  0.00610    CDp =  0.01581

 Side 1  free  transition at x/c =  0.0415   35
 Side 2 forced transition at x/c =  1.0000   64

 155   rms: 0.4587E-02   max: -.7737E-01   C at   35  1
       a = 12.750      CL =  1.4107
      Cm =  0.0089     CD =  0.02191   =>   CDf =  0.00610    CDp =  0.01581
 VISCAL:  Convergence failed
 Calculating wake trajectory ...
 Calculating source influence matrix ...

 Solving BL system ...

 Side 1  free  transition at x/c =  0.0415   35
 Side 2 forced transition at x/c =  1.0000   64

   1   rms: 0.3826E-01   max: -.3771E+00   C at   35  1
       a = 13.000      CL =  1.4278
      Cm =  0.0102     CD =  0.02242   =>   CDf =  0.00577    CDp =  0.01665

 Side 1  free  transition at x/c =  0.0387   36
 Side 2 forced transition at x/c =  1.0000   63

   2   rms: 0.5225E-02   max: 0.2485E-01   D at   97  1
       a = 13.000      CL =  1.4234
      Cm =  0.0107     CD =  0.02266   =>   CDf =  0.00602    CDp =  0.01664

 Side 1  free  transition at x/c =  0.0388   36
 Side 2 forced transition at x/c =  1.0000   63

   3   rms: 0.6081E-03   max: -.7194E-02   D at    4  1
       a = 13.000      CL =  1.4234
      Cm =  0.0106     CD =  0.02266   =>   CDf =  0.00602    CDp =  0.01665

 Side 1  free  transition at x/c =  0.0388   36
 Side 2 forced transition at x/c =  1.0000   63

   4   rms: 0.1537E-05   max: 0.1401E-04   D at   96  1
       a = 13.000      CL =  1.4234
      Cm =  0.0106     CD =  0.02266   =>   CDf =  0.00602    CDp =  0.01665
 plradd ia,ip,cpol           41           0  9.57455428E-04

 Point added to stored polar  1
 Point written to save file  naca23012_Re600k.base.pol                       
 Dump file unspecified or not available
 Calculating wake trajectory ...
 Calculating source influence matrix ...

 Solving BL system ...

 Side 1  free  transition at x/c =  0.0388   36
 Side 2 forced transition at x/c =  1.0000   63

   1   rms: 0.3802E-01   max: -.1699E+00   D at   36  1
       a = 13.250      CL =  1.4338
      Cm =  0.0126     CD =  0.02365   =>   CDf =  0.00602    CDp =  0.01763

 Side 1  free  transition at x/c =  0.0359   36
 Side 2 forced transition at x/c =  1.0000   63

   2   rms: 0.4495E-02   max: 0.2662E-01   D at   95  1
       a = 13.250      CL =  1.4300
      Cm =  0.0129     CD =  0.02383   =>   CDf =  0.00600    CDp =  0.01783

 Side 1  free  transition at x/c =  0.0360   36
 Side 2 forced transition at x/c =  1.0000   63

   3   rms: 0.1048E-03   max: 0.1879E-02   D at   95  1
       a = 13.250      CL =  1.4300
      Cm =  0.0129     CD =  0.02383   =>   CDf =  0.00600    CDp =  0.01783

 Side 1  free  transition at x/c =  0.0360   36
 Side 2 forced transition at x/c =  1.0000   63

   4   rms: 0.1973E-05   max: 0.1080E-04   D at   36  1
       a = 13.250      CL =  1.4300
      Cm =  0.0129     CD =  0.02383   =>   CDf =  0.00600    CDp =  0.01783
 plradd ia,ip,cpol           42           0  9.57455428E-04

 Point added to stored polar  1
 Point written to save file  naca23012_Re600k.base.pol                       
 Dump file unspecified or not available
 Calculating wake trajectory ...
 Calculating source influence matrix ...

 Solving BL system ...

 Side 1  free  transition at x/c =  0.0360   36
 Side 2 forced transition at x/c =  1.0000   63

   1   rms: 0.4369E-01   max: -.1665E+00   D at   36  1
       a = 13.500      CL =  1.4330
      Cm =  0.0153     CD =  0.02539   =>   CDf =  0.00600    CDp =  0.01940

 Side 1  free  transition at x/c =  0.0337   35
 Side 2 forced transition at x/c =  1.0000   63

   2   rms: 0.2355E-01   max: -.2421E+00   D at   35  1
       a = 13.500      CL =  1.4410
      Cm =  0.0145     CD =  0.02467   =>   CDf =  0.00587    CDp =  0.01880

 Side 1  free  transition at x/c =  0.0339   35
 Side 2 forced transition at x/c =  1.0000   63

   3   rms: 0.2405E-02   max: 0.2602E-01   C at   35  1
       a = 13.500      CL =  1.4400
      Cm =  0.0146     CD =  0.02482   =>   CDf =  0.00591    CDp =  0.01890

 Side 1  free  transition at x/c =  0.0337   35
 Side 2 forced transition at x/c =  1.0000   63

   4   rms: 0.6413E-04   max: 0.3716E-03   D at   93  1
       a = 13.500      CL =  1.4400
      Cm =  0.0146     CD =  0.02481   =>   CDf =  0.00591    CDp =  0.01890
 plradd ia,ip,cpol           43           0  9.57455428E-04

 Point added to stored polar  1
 Point written to save file  naca23012_Re600k.base.pol                       
 Dump file unspecified or not available
 Calculating wake trajectory ...
 Calculating source influence matrix ...

 Solving BL system ...

 Side 1  free  transition at x/c =  0.0337   35
 Side 2 forced transition at x/c =  1.0000   63

   1   rms: 0.3712E-01   max: 0.1338E+00   T at   35  1
       a = 13.750      CL =  1.4494
      Cm =  0.0162     CD =  0.02598   =>   CDf =  0.00591    CDp =  0.02006

 Side 1  free  transition at x/c =  0.0315   35
 Side 2 forced transition at x/c =  1.0000   63

   2   rms: 0.4735E-02   max: 0.2764E-01   D at   92  1
       a = 13.750      CL =  1.4461
      Cm =  0.0164     CD =  0.02613   =>   CDf =  0.00587    CDp =  0.02026

 Side 1  free  transition at x/c =  0.0317   35
 Side 2 forced transition at x/c =  1.0000   63

   3   rms: 0.1090E-03   max: 0.1933E-02   D at   92  1
       a = 13.750      CL =  1.4461
      Cm =  0.0164     CD =  0.02613   =>   CDf =  0.00586    CDp =  0.02027

 Side 1  free  transition at x/c =  0.0317   35
 Side 2 forced transition at x/c =  1.0000   63

   4   rms: 0.2190E-05   max: 0.8202E-05   D at   35  1
       a = 13.750      CL =  1.4461
      Cm =  0.0164     CD =  0.02613   =>   CDf =  0.00586    CDp =  0.02027
 plradd ia,ip,cpol           44           0  9.57455428E-04

 Point added to stored polar  1
 Point written to save file  naca23012_Re600k.base.pol                       
 Dump file unspecified or not available
 Calculating wake trajectory ...
 Calculating source influence matrix ...

 Solving BL system ...

 Side 1  free  transition at x/c =  0.0317   35
 Side 2 forced transition at x/c =  1.0000   63

   1   rms: 0.4130E-01   max: -.1729E+00   D at   35  1
       a = 14.000      CL =  1.4505
      Cm =  0.0180     CD =  0.02778   =>   CDf =  0.00586    CDp =  0.02192

 Side 1  free  transition at x/c =  0.0301   34
 Side 2 forced transition at x/c =  1.0000   63

   2   rms: 0.6718E-02   max: -.6407E-01   D at   35  1
       a = 14.000      CL =  1.4495
      Cm =  0.0180     CD =  0.02771   =>   CDf =  0.00578    CDp =  0.02193

 Side 1  free  transition at x/c =  0.0300   34
 Side 2 forced transition at x/c =  1.0000   63

   3   rms: 0.2101E-03   max: 0.2346E-02   D at   90  1
       a = 14.000      CL =  1.4494
      Cm =  0.0180     CD =  0.02774   =>   CDf =  0.00579    CDp =  0.02195

 Side 1  free  transition at x/c =  0.0300   34
 Side 2 forced transition at x/c =  1.0000   63

   4   rms: 0.3881E-05   max: 0.1527E-04   D at   90  1
       a = 14.000      CL =  1.4494
      Cm =  0.0180     CD =  0.02774   =>   CDf =  0.00579    CDp =  0.02195
 plradd ia,ip,cpol           45           0  9.57455428E-04

 Point added to stored polar  1
 Point written to save file  naca23012_Re600k.base.pol                       
 Dump file unspecified or not available
 Calculating wake trajectory ...
 Calculating source influence matrix ...

 Solving BL system ...

 Side 1  free  transition at x/c =  0.0300   34
 Side 2 forced transition at x/c =  1.0000   63

   1   rms: 0.3598E-01   max: 0.1380E+00   T at   34  1
       a = 14.250      CL =  1.4590
      Cm =  0.0190     CD =  0.02907   =>   CDf =  0.00540    CDp =  0.02367

 Side 1  free  transition at x/c =  0.0283   35
 Side 2 forced transition at x/c =  1.0000   62
 idif Ue xi dudx           1  7.72855431E-02  6.86883926E-03   11.251616    
 Uenew xinew           2  1.75709938E-04  1.56164169E-05

   2   rms: 0.5136E+00   max: -.9119E+01   T at    2  1   RLX: 0.055
       a = 14.250      CL =  1.4598
      Cm =  0.0183     CD =  0.02910   =>   CDf =  0.00606    CDp =  0.02304

 Side 1  free  transition at x/c =  0.0283   34
 Side 2 forced transition at x/c =  1.0000   63

   3   rms: 0.3522E-01   max: -.6122E+00   D at    2  2   RLX: 0.817
       a = 14.250      CL =  1.4564
      Cm =  0.0190     CD =  0.02921   =>   CDf =  0.00569    CDp =  0.02352

 Side 1  free  transition at x/c =  0.0285   34
 Side 2 forced transition at x/c =  1.0000   63

   4   rms: 0.1482E-02   max: -.1370E-01   D at    4  2
       a = 14.250      CL =  1.4557
      Cm =  0.0191     CD =  0.02923   =>   CDf =  0.00569    CDp =  0.02354

 Side 1  free  transition at x/c =  0.0285   34
 Side 2 forced transition at x/c =  1.0000   63

   5   rms: 0.1617E-04   max: -.9152E-04   D at   75  2
       a = 14.250      CL =  1.4557
      Cm =  0.0191     CD =  0.02923   =>   CDf =  0.00569    CDp =  0.02354
 plradd ia,ip,cpol           46           0  9.57455428E-04

 Point added to stored polar  1
 Point written to save file  naca23012_Re600k.base.pol                       
 Dump file unspecified or not available
 Calculating wake trajectory ...
 Calculating source influence matrix ...

 Solving BL system ...

 Side 1  free  transition at x/c =  0.0285   34
 Side 2 forced transition at x/c =  1.0000   63

   1   rms: 0.3858E-01   max: 0.1220E+00   T at   34  1
       a = 14.500      CL =  1.4614
      Cm =  0.0200     CD =  0.03103   =>   CDf =  0.00530    CDp =  0.02574

 Side 1  free  transition at x/c =  0.0271   35
 Side 2 forced transition at x/c =  1.0000   62

   2   rms: 0.6167E-02   max: 0.4480E-01   D at   88  1
       a = 14.500      CL =  1.4576
      Cm =  0.0201     CD =  0.03122   =>   CDf =  0.00562    CDp =  0.02561

 Side 1  free  transition at x/c =  0.0272   35
 Side 2 forced transition at x/c =  1.0000   62

   3   rms: 0.6284E-03   max: -.7143E-02   D at    4  1
       a = 14.500      CL =  1.4575
      Cm =  0.0201     CD =  0.03122   =>   CDf =  0.00561    CDp =  0.02561

 Side 1  free  transition at x/c =  0.0272   35
 Side 2 forced transition at x/c =  1.0000   62

   4   rms: 0.3379E-05   max: -.2500E-04   C at   62  2
       a = 14.500      CL =  1.4575
      Cm =  0.0201     CD =  0.03122   =>   CDf =  0.00561    CDp =  0.02561
 plradd ia,ip,cpol           47           0  9.57455428E-04

 Point added to stored polar  1
 Point written to save file  naca23012_Re600k.base.pol                       
 Dump file unspecified or not available
 Calculating wake trajectory ...
 Calculating source influence matrix ...

 Solving BL system ...

 Side 1  free  transition at x/c =  0.0272   35
 Side 2 forced transition at x/c =  1.0000   62

   1   rms: 0.4301E-01   max: 0.1424E+00   D at   84  1
       a = 14.750      CL =  1.4588
      Cm =  0.0206     CD =  0.03368   =>   CDf =  0.00561    CDp =  0.02806

 Side 1  free  transition at x/c =  0.0261   35
 Side 2 forced transition at x/c =  1.0000   62

   2   rms: 0.1018E-01   max: 0.6904E-01   D at   86  1
       a = 14.750      CL =  1.4525
      Cm =  0.0206     CD =  0.03412   =>   CDf =  0.00553    CDp =  0.02859

 Side 1  free  transition at x/c =  0.0261   35
 Side 2 forced transition at x/c =  1.0000   62

   3   rms: 0.4787E-03   max: 0.8287E-02   D at   84  1
       a = 14.750      CL =  1.4524
      Cm =  0.0206     CD =  0.03409   =>   CDf =  0.00552    CDp =  0.02856

 Side 1  free  transition at x/c =  0.0261   35
 Side 2 forced transition at x/c =  1.0000   62

   4   rms: 0.7506E-05   max: 0.1235E-03   D at   84  1
       a = 14.750      CL =  1.4524
      Cm =  0.0206     CD =  0.03408   =>   CDf =  0.00552    CDp =  0.02856
 plradd ia,ip,cpol           48           0  9.57455428E-04

 Point added to stored polar  1
 Point written to save file  naca23012_Re600k.base.pol                       
 Dump file unspecified or not available
 Calculating wake trajectory ...
 Calculating source influence matrix ...

 Solving BL system ...

 Side 1  free  transition at x/c =  0.0261   35
 Side 2 forced transition at x/c =  1.0000   62

   1   rms: 0.5450E-01   max: 0.2034E+00   D at   81  1
       a = 15.000      CL =  1.4446
      Cm =  0.0204     CD =  0.03792   =>   CDf =  0.00553    CDp =  0.03239

 Side 1  free  transition at x/c =  0.0253   34
 Side 2 forced transition at x/c =  1.0000   62

   2   rms: 0.1982E-01   max: -.1650E+00   D at   34  1
       a = 15.000      CL =  1.4524
      Cm =  0.0206     CD =  0.03652   =>   CDf =  0.00537    CDp =  0.03115

 Side 1  free  transition at x/c =  0.0254   34
 Side 2 forced transition at x/c =  1.0000   62

   3   rms: 0.1728E-02   max: 0.8973E-02   T at   34  1
       a = 15.000      CL =  1.4535
      Cm =  0.0205     CD =  0.03657   =>   CDf =  0.00540    CDp =  0.03117

 Side 1  free  transition at x/c =  0.0253   34
 Side 2 forced transition at x/c =  1.0000   62

   4   rms: 0.2432E-04   max: -.1848E-03   D at   72  2
       a = 15.000      CL =  1.4536
      Cm =  0.0205     CD =  0.03658   =>   CDf =  0.00540    CDp =  0.03118
 plradd ia,ip,cpol           49           0  9.57455428E-04

 Point added to stored polar  1
 Point written to save file  naca23012_Re600k.base.pol                       
 Dump file unspecified or not available
 Calculating wake trajectory ...
 Calculating source influence matrix ...

 Solving BL system ...

 Side 1  free  transition at x/c =  0.0253   34
 Side 2 forced transition at x/c =  1.0000   62

   1   rms: 0.3988E-01   max: 0.1359E+00   D at   80  1   RLX: 0.995
       a = 15.250      CL =  1.4570
      Cm =  0.0201     CD =  0.03936   =>   CDf =  0.00540    CDp =  0.03396

 Side 1  free  transition at x/c =  0.0243   34
 Side 2 forced transition at x/c =  1.0000   62

   2   rms: 0.7359E-02   max: 0.5251E-01   D at   80  1
       a = 15.250      CL =  1.4526
      Cm =  0.0200     CD =  0.03958   =>   CDf =  0.00529    CDp =  0.03430

 Side 1  free  transition at x/c =  0.0245   34
 Side 2 forced transition at x/c =  1.0000   62

   3   rms: 0.5111E-03   max: 0.6269E-02   D at   79  1
       a = 15.250      CL =  1.4523
      Cm =  0.0200     CD =  0.03955   =>   CDf =  0.00527    CDp =  0.03427

 Side 1  free  transition at x/c =  0.0245   34
 Side 2 forced transition at x/c =  1.0000   62

   4   rms: 0.2295E-04   max: 0.1278E-03   D at   79  1
       a = 15.250      CL =  1.4523
      Cm =  0.0200     CD =  0.03954   =>   CDf =  0.00527    CDp =  0.03427
 plradd ia,ip,cpol           50           0  9.57455428E-04

 Point added to stored polar  1
 Point written to save file  naca23012_Re600k.base.pol                       
 Dump file unspecified or not available
 Calculating wake trajectory ...
 Calculating source influence matrix ...

 Solving BL system ...

 Side 1  free  transition at x/c =  0.0245   34
 Side 2 forced transition at x/c =  1.0000   62

   1   rms: 0.4271E-01   max: 0.1567E+00   D at   78  1   RLX: 0.933
       a = 15.500      CL =  1.4529
      Cm =  0.0191     CD =  0.04277   =>   CDf =  0.00528    CDp =  0.03749

 Side 1  free  transition at x/c =  0.0237   34
 Side 2 forced transition at x/c =  1.0000   62

   2   rms: 0.9246E-02   max: 0.6808E-01   D at   78  1
       a = 15.500      CL =  1.4483
      Cm =  0.0189     CD =  0.04319   =>   CDf =  0.00517    CDp =  0.03802

 Side 1  free  transition at x/c =  0.0238   34
 Side 2 forced transition at x/c =  1.0000   62

   3   rms: 0.7520E-03   max: 0.6426E-02   D at   77  1
       a = 15.500      CL =  1.4478
      Cm =  0.0190     CD =  0.04313   =>   CDf =  0.00515    CDp =  0.03798

 Side 1  free  transition at x/c =  0.0238   34
 Side 2 forced transition at x/c =  1.0000   62

   4   rms: 0.3364E-04   max: 0.1796E-03   D at   74  2
       a = 15.500      CL =  1.4478
      Cm =  0.0190     CD =  0.04313   =>   CDf =  0.00515    CDp =  0.03797
 plradd ia,ip,cpol           51           0  9.57455428E-04

 Point added to stored polar  1
 Point written to save file  naca23012_Re600k.base.pol                       
 Dump file unspecified or not available
 Calculating wake trajectory ...
 Calculating source influence matrix ...

 Solving BL system ...

 Side 1  free  transition at x/c =  0.0238   34
 Side 2 forced transition at x/c =  1.0000   62

   1   rms: 0.4638E-01   max: 0.1806E+00   D at   75  1   RLX: 0.874
       a = 15.750      CL =  1.4458
      Cm =  0.0175     CD =  0.04687   =>   CDf =  0.00515    CDp =  0.04171

 Side 1  free  transition at x/c =  0.0232   34
 Side 2 forced transition at x/c =  1.0000   62

   2   rms: 0.1308E-01   max: 0.8618E-01   D at   75  1
       a = 15.750      CL =  1.4399
      Cm =  0.0172     CD =  0.04763   =>   CDf =  0.00507    CDp =  0.04257

 Side 1  free  transition at x/c =  0.0233   34
 Side 2 forced transition at x/c =  1.0000   62

   3   rms: 0.1610E-02   max: 0.1334E-01   D at   74  1
       a = 15.750      CL =  1.4389
      Cm =  0.0173     CD =  0.04754   =>   CDf =  0.00503    CDp =  0.04251

 Side 1  free  transition at x/c =  0.0233   34
 Side 2 forced transition at x/c =  1.0000   62

   4   rms: 0.9620E-04   max: 0.8011E-03   D at   74  2
       a = 15.750      CL =  1.4388
      Cm =  0.0173     CD =  0.04753   =>   CDf =  0.00503    CDp =  0.04250
 plradd ia,ip,cpol           52           0  2.71322351E-04

 Point added to stored polar  1
 Point written to save file  naca23012_Re600k.base.pol                       
 Dump file unspecified or not available
 Calculating wake trajectory ...
 Calculating source influence matrix ...

 Solving BL system ...

 Side 1  free  transition at x/c =  0.0233   34
 Side 2 forced transition at x/c =  1.0000   62

   1   rms: 0.5059E-01   max: 0.2074E+00   D at   72  1   RLX: 0.815
       a = 16.000      CL =  1.4340
      Cm =  0.0153     CD =  0.05182   =>   CDf =  0.00503    CDp =  0.04679

 Side 1  free  transition at x/c =  0.0228   34
 Side 2 forced transition at x/c =  1.0000   62

   2   rms: 0.1737E-01   max: 0.1056E+00   D at   72  1
       a = 16.000      CL =  1.4267
      Cm =  0.0149     CD =  0.05301   =>   CDf =  0.00495    CDp =  0.04806

 Side 1  free  transition at x/c =  0.0228   34
 Side 2 forced transition at x/c =  1.0000   62

   3   rms: 0.2277E-02   max: 0.1645E-01   D at   71  1
       a = 16.000      CL =  1.4251
      Cm =  0.0150     CD =  0.05286   =>   CDf =  0.00491    CDp =  0.04795

 Side 1  free  transition at x/c =  0.0229   34
 Side 2 forced transition at x/c =  1.0000   62

   4   rms: 0.1277E-03   max: 0.6936E-03   D at   75  2
       a = 16.000      CL =  1.4250
      Cm =  0.0150     CD =  0.05284   =>   CDf =  0.00490    CDp =  0.04794

 Side 1  free  transition at x/c =  0.0229   34
 Side 2 forced transition at x/c =  1.0000   62

   5   rms: 0.3841E-05   max: 0.1617E-04   D at   75  2
       a = 16.000      CL =  1.4250
      Cm =  0.0150     CD =  0.05284   =>   CDf =  0.00490    CDp =  0.04794
 plradd ia,ip,cpol           53           0  2.71322351E-04

 Point added to stored polar  1
 Point written to save file  naca23012_Re600k.base.pol                       
 Dump file unspecified or not available

.OPERva   c>  
 Polar accumulation disabled

.OPERv   c>  
 XFOIL   c>  
 XFOIL   c>  