
 ===================================================
  XFOIL Version 6.99
  Copyright (C) 2000   Mark Drela, Harold Youngren

  This software comes with ABSOLUTELY NO WARRANTY,
    subject to the GNU General Public License.

  Caveat computor
 ===================================================

 File  xfoil.def  not found

   QUIT    Exit program

  .OPER    Direct operating point(s)
  .MDES    Complex mapping design routine
  .QDES    Surface speed design routine
  .GDES    Geometry design routine

   SAVE f  Write airfoil to labeled coordinate file
   PSAV f  Write airfoil to plain coordinate file
   ISAV f  Write airfoil to ISES coordinate file
   MSAV f  Write airfoil to MSES coordinate file
   REVE    Reverse written-airfoil node ordering

   LOAD f  Read buffer airfoil from coordinate file
   NACA i  Set NACA 4,5-digit airfoil and buffer airfoil
   INTE    Set buffer airfoil by interpolating two airfoils
   NORM    Buffer airfoil normalization toggle
   XYCM rr Change CM reference location, currently  0.25000 0.00000

   BEND    Display structural properties of current airfoil

   PCOP    Set current-airfoil panel nodes directly from buffer airfoil points
   PANE    Set current-airfoil panel nodes ( 160 ) based on curvature
  .PPAR    Show/change paneling

  .PLOP    Plotting options

   WDEF f  Write  current-settings file
   RDEF f  Reread current-settings file
   NAME s  Specify new airfoil name
   NINC    Increment name version number

   Z       Zoom    | (available in all menus)
   U       Unzoom  | 

 XFOIL   c>  
 Labeled airfoil file.  Name:  NACA 65-410                                     

 Number of input coordinate points:  51
 Counterclockwise ordering
 Max thickness =     0.099943  at x =   0.401
 Max camber    =     0.021545  at x =   0.500

  LE  x,y  =  -0.00009   0.00103  |   Chord =   1.00010
  TE  x,y  =   1.00000   0.00000  |

 Current airfoil nodes set from buffer airfoil nodes (  51 )

 WARNING: Poor input coordinate distribution
          Excessive panel angle   66.9  at i =  26
          Repaneling with PANE and/or PPAR suggested
           (doing GDES,CADD before repaneling _may_
            improve excessively coarse LE spacing

 XFOIL   c>  
 XFOIL   c>  
 Sharp trailing edge

 Paneling parameters used...
   Number of panel nodes       160
   Panel bunching parameter    1.000
   TE/LE panel density ratio   0.150
   Refined-area/LE panel density ratio    0.200
   Top    side refined area x/c limits  1.000 1.000
   Bottom side refined area x/c limits  1.000 1.000

 XFOIL   c>  
.OPERi   c>  
 Xtr/c     =  1.0000    top    side
 Xtr/c     =  1.0000    bottom side
 Ncrit     =    9.00   ( 0.070 % turb. level )
 Vacc      =  0.0100

 Klag  =  5.6000     Uxwt  =    1.00
 A     =  6.7000     B     =  0.7500       KCt = 0.01485
 CtiniK=  1.8000     CtiniX=  3.3000

..VPAR   c>  
..VPAR   c>  
.OPERi   c>  
 M  =    0.0000
 Re =    600000

.OPERv   c>  
.OPERv   c>  
.OPERv   c>  
 Polar  1 newly created for accumulation
 Airfoil archived with polar: NACA 65-410                                     

Enter  polar save filename  OR  <return> for no file   s>  
 New polar save file available

Enter  polar dump filename  OR  <return> for no file   s>  
 Polar dump file will NOT be written

 Polar accumulation enabled

.OPERva   c>   Calculating unit vorticity distributions ...
 Calculating wake trajectory ...
 Calculating source influence matrix ...

 Solving BL system ...

 Initializing BL ...
    side            1  ...
 MRCHUE: Inverse mode at  56     Hk =   4.231
 MRCHUE: Inverse mode at  57     Hk =   4.847
 MRCHUE: Inverse mode at  58     Hk =   5.452
 MRCHUE: Inverse mode at  59     Hk =   6.051
 MRCHUE: Inverse mode at  60     Hk =   6.643
 MRCHUE: Inverse mode at  61     Hk =   7.231
 MRCHUE: Inverse mode at  62     Hk =   7.815
 MRCHUE: Inverse mode at  63     Hk =   8.397
 MRCHUE: Inverse mode at  64     Hk =   7.515
 MRCHUE: Inverse mode at  65     Hk =   5.189
 MRCHUE: Inverse mode at  66     Hk =   3.712
 MRCHUE: Inverse mode at  67     Hk =   2.647
    side            2  ...
 MRCHUE: Inverse mode at  13     Hk =   4.405
 MRCHUE: Inverse mode at  14     Hk =   5.997
 MRCHUE: Inverse mode at  15     Hk =   7.962
 MRCHUE: Inverse mode at  16     Hk =  10.153
 MRCHUE: Inverse mode at  17     Hk =   2.500
 MRCHUE: Inverse mode at  18     Hk =   2.500

 Side 1  free  transition at x/c =  0.8321   64
 Side 2  free  transition at x/c =  0.0336   17

   1   rms: 0.6021E+00   max: 0.4195E+01   D at   17  2   RLX: 0.358
       a = -4.000      CL = -0.0953
      Cm = -0.0861     CD =  0.01322   =>   CDf =  0.00623    CDp =  0.00700

 Side 1  free  transition at x/c =  0.8467   65
 Side 2  free  transition at x/c =  0.0302   16

   2   rms: 0.1100E+00   max: -.5964E+00   T at   65  1   RLX: 0.838
       a = -4.000      CL = -0.0885
      Cm = -0.0829     CD =  0.01122   =>   CDf =  0.00602    CDp =  0.00521

 Side 1  free  transition at x/c =  0.8738   67
 Side 2  free  transition at x/c =  0.0289   16

   3   rms: 0.2307E-01   max: 0.2218E+00   D at   67  1
       a = -4.000      CL = -0.0881
      Cm = -0.0824     CD =  0.01074   =>   CDf =  0.00601    CDp =  0.00473

 Side 1  free  transition at x/c =  0.8804   67
 Side 2  free  transition at x/c =  0.0285   16

   4   rms: 0.8065E-02   max: -.1462E+00   D at   68  1
       a = -4.000      CL = -0.0873
      Cm = -0.0825     CD =  0.01074   =>   CDf =  0.00602    CDp =  0.00472

 Side 1  free  transition at x/c =  0.8839   68
 Side 2  free  transition at x/c =  0.0285   16

   5   rms: 0.3648E-02   max: 0.6342E-01   D at   68  1
       a = -4.000      CL = -0.0878
      Cm = -0.0825     CD =  0.01073   =>   CDf =  0.00598    CDp =  0.00475

 Side 1  free  transition at x/c =  0.8826   68
 Side 2  free  transition at x/c =  0.0285   16

   6   rms: 0.3396E-03   max: 0.4440E-02   C at   68  1
       a = -4.000      CL = -0.0878
      Cm = -0.0825     CD =  0.01073   =>   CDf =  0.00599    CDp =  0.00475

 Side 1  free  transition at x/c =  0.8825   68
 Side 2  free  transition at x/c =  0.0285   16

   7   rms: 0.1997E-05   max: -.2651E-04   D at   70  1
       a = -4.000      CL = -0.0878
      Cm = -0.0825     CD =  0.01073   =>   CDf =  0.00599    CDp =  0.00474
 plradd ia,ip,cpol            1           0  1.67335791E-03

 Point added to stored polar  1
 Point written to save file  naca65410_Re600k.base.pol                       
 Dump file unspecified or not available
 Calculating wake trajectory ...
 Calculating source influence matrix ...

 Solving BL system ...

 Side 1  free  transition at x/c =  0.8825   68
 Side 2  free  transition at x/c =  0.0285   16

   1   rms: 0.1080E+00   max: -.3381E+00   T at   16  2
       a = -3.500      CL = -0.0348
      Cm = -0.0821     CD =  0.00975   =>   CDf =  0.00605    CDp =  0.00369

 Side 1  free  transition at x/c =  0.8705   68
 Side 2  free  transition at x/c =  0.0318   15

   2   rms: 0.2205E-01   max: -.1799E+00   D at   68  1
       a = -3.500      CL = -0.0353
      Cm = -0.0820     CD =  0.00981   =>   CDf =  0.00610    CDp =  0.00370

 Side 1  free  transition at x/c =  0.8681   68
 Side 2  free  transition at x/c =  0.0313   15

   3   rms: 0.1659E-02   max: 0.1453E-01   D at   15  2
       a = -3.500      CL = -0.0351
      Cm = -0.0821     CD =  0.00984   =>   CDf =  0.00614    CDp =  0.00370

 Side 1  free  transition at x/c =  0.8683   68
 Side 2  free  transition at x/c =  0.0313   15

   4   rms: 0.1713E-04   max: -.1683E-03   D at   69  1
       a = -3.500      CL = -0.0351
      Cm = -0.0821     CD =  0.00984   =>   CDf =  0.00613    CDp =  0.00371
 plradd ia,ip,cpol            2           0  3.13520012E-03

 Point added to stored polar  1
 Point written to save file  naca65410_Re600k.base.pol                       
 Dump file unspecified or not available
 Calculating wake trajectory ...
 Calculating source influence matrix ...

 Solving BL system ...

 Side 1  free  transition at x/c =  0.8683   68
 Side 2  free  transition at x/c =  0.0313   15

   1   rms: 0.1042E+00   max: -.3915E+00   T at   15  2
       a = -3.000      CL =  0.0188
      Cm = -0.0819     CD =  0.00915   =>   CDf =  0.00613    CDp =  0.00302

 Side 1  free  transition at x/c =  0.8573   67
 Side 2  free  transition at x/c =  0.0361   16

   2   rms: 0.1830E-01   max: -.1490E+00   D at   67  1
       a = -3.000      CL =  0.0185
      Cm = -0.0819     CD =  0.00902   =>   CDf =  0.00629    CDp =  0.00273

 Side 1  free  transition at x/c =  0.8542   67
 Side 2  free  transition at x/c =  0.0359   16

   3   rms: 0.1343E-02   max: -.1631E-01   C at   67  1
       a = -3.000      CL =  0.0185
      Cm = -0.0819     CD =  0.00904   =>   CDf =  0.00629    CDp =  0.00275

 Side 1  free  transition at x/c =  0.8546   67
 Side 2  free  transition at x/c =  0.0358   16

   4   rms: 0.2208E-04   max: -.3971E-03   D at   68  1
       a = -3.000      CL =  0.0185
      Cm = -0.0819     CD =  0.00904   =>   CDf =  0.00628    CDp =  0.00275
 plradd ia,ip,cpol            3           0  3.13520012E-03

 Point added to stored polar  1
 Point written to save file  naca65410_Re600k.base.pol                       
 Dump file unspecified or not available
 Calculating wake trajectory ...
 Calculating source influence matrix ...

 Solving BL system ...

 Side 1  free  transition at x/c =  0.8546   67
 Side 2  free  transition at x/c =  0.0358   16

   1   rms: 0.1441E+00   max: -.5474E+00   T at   16  2   RLX: 0.913
       a = -2.500      CL =  0.0680
      Cm = -0.0819     CD =  0.00818   =>   CDf =  0.00633    CDp =  0.00185

 Side 1  free  transition at x/c =  0.8441   67
 Side 2  free  transition at x/c =  0.0485   16

   2   rms: 0.2167E-01   max: -.1531E+00   D at   16  2
       a = -2.500      CL =  0.0734
      Cm = -0.0819     CD =  0.00854   =>   CDf =  0.00637    CDp =  0.00217

 Side 1  free  transition at x/c =  0.8407   67
 Side 2  free  transition at x/c =  0.0452   15

   3   rms: 0.1135E-01   max: -.1330E+00   D at   15  2
       a = -2.500      CL =  0.0734
      Cm = -0.0819     CD =  0.00850   =>   CDf =  0.00639    CDp =  0.00211

 Side 1  free  transition at x/c =  0.8411   67
 Side 2  free  transition at x/c =  0.0451   15

   4   rms: 0.6595E-03   max: 0.1016E-01   D at   15  2
       a = -2.500      CL =  0.0734
      Cm = -0.0819     CD =  0.00851   =>   CDf =  0.00639    CDp =  0.00211

 Side 1  free  transition at x/c =  0.8411   67
 Side 2  free  transition at x/c =  0.0451   15

   5   rms: 0.1583E-05   max: 0.8105E-05   T at   15  2
       a = -2.500      CL =  0.0734
      Cm = -0.0819     CD =  0.00851   =>   CDf =  0.00639    CDp =  0.00211
 plradd ia,ip,cpol            4           0  5.15573705E-03

 Point added to stored polar  1
 Point written to save file  naca65410_Re600k.base.pol                       
 Dump file unspecified or not available
 Calculating wake trajectory ...
 Calculating source influence matrix ...

 Solving BL system ...

 Side 1  free  transition at x/c =  0.8411   67
 Side 2  free  transition at x/c =  0.0451   15

   1   rms: 0.1019E+00   max: -.6386E+00   T at   15  2   RLX: 0.783
       a = -2.000      CL =  0.1168
      Cm = -0.0820     CD =  0.00829   =>   CDf =  0.00640    CDp =  0.00190

 Side 1  free  transition at x/c =  0.8322   66
 Side 2  free  transition at x/c =  0.0657   17

   2   rms: 0.1949E+00   max: -.3462E+01   C at   17  2   RLX: 0.144
       a = -2.000      CL =  0.1189
      Cm = -0.0820     CD =  0.00816   =>   CDf =  0.00641    CDp =  0.00175

 Side 1  free  transition at x/c =  0.8315   66
 Side 2  free  transition at x/c =  0.0727   18

   3   rms: 0.2678E+00   max: -.3926E+01   C at   18  2   RLX: 0.127
       a = -2.000      CL =  0.1208
      Cm = -0.0819     CD =  0.00809   =>   CDf =  0.00637    CDp =  0.00172

 Side 1  free  transition at x/c =  0.8310   66
 Side 2  free  transition at x/c =  0.3321   35

   4   rms: 0.7893E+00   max: -.1631E+02   C at   35  2   RLX: 0.031
       a = -2.000      CL =  0.1199
      Cm = -0.0820     CD =  0.00707   =>   CDf =  0.00549    CDp =  0.00158

 Side 1  free  transition at x/c =  0.8309   66
 Side 2  free  transition at x/c =  0.3588   37

   5   rms: 0.2677E+01   max: -.5296E+02   C at   37  2   RLX: 0.009
       a = -2.000      CL =  0.1194
      Cm = -0.0820     CD =  0.00695   =>   CDf =  0.00538    CDp =  0.00156

 Side 1  free  transition at x/c =  0.8309   66
 Side 2  free  transition at x/c =  0.3723   38

   6   rms: 0.2824E+01   max: -.5660E+02   C at   38  2   RLX: 0.009
       a = -2.000      CL =  0.1194
      Cm = -0.0820     CD =  0.00689   =>   CDf =  0.00534    CDp =  0.00155

 Side 1  free  transition at x/c =  0.8308   66
 Side 2  free  transition at x/c =  0.3877   39

   7   rms: 0.3190E+01   max: -.6376E+02   C at   39  2   RLX: 0.008
       a = -2.000      CL =  0.1193
      Cm = -0.0820     CD =  0.00684   =>   CDf =  0.00529    CDp =  0.00155

 Side 1  free  transition at x/c =  0.8308   66
 Side 2  free  transition at x/c =  0.4032   40

   8   rms: 0.3634E+01   max: -.7221E+02   C at   40  2   RLX: 0.007
       a = -2.000      CL =  0.1192
      Cm = -0.0820     CD =  0.00678   =>   CDf =  0.00524    CDp =  0.00154

 Side 1  free  transition at x/c =  0.8308   66
 Side 2  free  transition at x/c =  0.4121   41

   9   rms: 0.1878E+01   max: -.3826E+02   C at   41  2   RLX: 0.013
       a = -2.000      CL =  0.1193
      Cm = -0.0821     CD =  0.00673   =>   CDf =  0.00521    CDp =  0.00153

 Side 1  free  transition at x/c =  0.8307   66
 Side 2  free  transition at x/c =  0.4088   41

  10   rms: 0.8210E+00   max: -.1692E+02   C at   41  2   RLX: 0.030
       a = -2.000      CL =  0.1197
      Cm = -0.0822     CD =  0.00674   =>   CDf =  0.00522    CDp =  0.00152

 Side 1  free  transition at x/c =  0.8306   66
 Side 2  free  transition at x/c =  0.4205   42

  11   rms: 0.8048E+00   max: -.1664E+02   C at   42  2   RLX: 0.030
       a = -2.000      CL =  0.1199
      Cm = -0.0823     CD =  0.00669   =>   CDf =  0.00518    CDp =  0.00151

 Side 1  free  transition at x/c =  0.8305   66
 Side 2  free  transition at x/c =  0.4303   42

  12   rms: 0.9382E+00   max: -.1872E+02   C at   42  2   RLX: 0.027
       a = -2.000      CL =  0.1201
      Cm = -0.0823     CD =  0.00666   =>   CDf =  0.00514    CDp =  0.00152

 Side 1  free  transition at x/c =  0.8304   66
 Side 2  free  transition at x/c =  0.4433   43

  13   rms: 0.7706E+00   max: -.1536E+02   C at   43  2   RLX: 0.033
       a = -2.000      CL =  0.1202
      Cm = -0.0824     CD =  0.00661   =>   CDf =  0.00509    CDp =  0.00151

 Side 1  free  transition at x/c =  0.8303   66
 Side 2  free  transition at x/c =  0.4663   45

  14   rms: 0.5284E+00   max: -.1072E+02   C at   45  2   RLX: 0.047
       a = -2.000      CL =  0.1201
      Cm = -0.0824     CD =  0.00652   =>   CDf =  0.00501    CDp =  0.00151

 Side 1  free  transition at x/c =  0.8302   66
 Side 2  free  transition at x/c =  0.4744   45

  15   rms: 0.4071E+00   max: -.8045E+01   C at   45  2   RLX: 0.062
       a = -2.000      CL =  0.1207
      Cm = -0.0825     CD =  0.00650   =>   CDf =  0.00499    CDp =  0.00151

 Side 1  free  transition at x/c =  0.8300   66
 Side 2  free  transition at x/c =  0.4939   47

  16   rms: 0.3433E+00   max: -.6918E+01   C at   47  2   RLX: 0.072
       a = -2.000      CL =  0.1206
      Cm = -0.0825     CD =  0.00642   =>   CDf =  0.00492    CDp =  0.00150

 Side 1  free  transition at x/c =  0.8299   66
 Side 2  free  transition at x/c =  0.5058   48

  17   rms: 0.2274E+00   max: -.4464E+01   C at   48  2   RLX: 0.112
       a = -2.000      CL =  0.1213
      Cm = -0.0827     CD =  0.00637   =>   CDf =  0.00488    CDp =  0.00149

 Side 1  free  transition at x/c =  0.8296   66
 Side 2  free  transition at x/c =  0.5174   48

  18   rms: 0.1348E+00   max: -.2669E+01   C at   48  2   RLX: 0.187
       a = -2.000      CL =  0.1223
      Cm = -0.0828     CD =  0.00634   =>   CDf =  0.00484    CDp =  0.00150

 Side 1  free  transition at x/c =  0.8292   66
 Side 2  free  transition at x/c =  0.5329   49

  19   rms: 0.4921E-01   max: -.9386E+00   C at   49  2   RLX: 0.533
       a = -2.000      CL =  0.1239
      Cm = -0.0830     CD =  0.00629   =>   CDf =  0.00479    CDp =  0.00150

 Side 1  free  transition at x/c =  0.8284   66
 Side 2  free  transition at x/c =  0.5607   51

  20   rms: 0.1014E-01   max: -.1224E+00   C at   51  2
       a = -2.000      CL =  0.1252
      Cm = -0.0831     CD =  0.00624   =>   CDf =  0.00470    CDp =  0.00154

 Side 1  free  transition at x/c =  0.8277   66
 Side 2  free  transition at x/c =  0.5703   52

  21   rms: 0.4593E-02   max: 0.8516E-01   C at   52  2
       a = -2.000      CL =  0.1252
      Cm = -0.0831     CD =  0.00623   =>   CDf =  0.00466    CDp =  0.00156

 Side 1  free  transition at x/c =  0.8277   66
 Side 2  free  transition at x/c =  0.5679   52

  22   rms: 0.1966E-03   max: -.3780E-02   C at   52  2
       a = -2.000      CL =  0.1252
      Cm = -0.0831     CD =  0.00623   =>   CDf =  0.00468    CDp =  0.00155

 Side 1  free  transition at x/c =  0.8277   66
 Side 2  free  transition at x/c =  0.5680   52

  23   rms: 0.1260E-05   max: 0.1075E-04   D at   67  1
       a = -2.000      CL =  0.1252
      Cm = -0.0831     CD =  0.00623   =>   CDf =  0.00468    CDp =  0.00155
 plradd ia,ip,cpol            5           0  7.78765138E-03

 Point added to stored polar  1
 Point written to save file  naca65410_Re600k.base.pol                       
 Dump file unspecified or not available
 Calculating wake trajectory ...
 Calculating source influence matrix ...

 Solving BL system ...

 Side 1  free  transition at x/c =  0.8277   66
 Side 2  free  transition at x/c =  0.5680   52

   1   rms: 0.3713E+00   max: -.6677E+01   C at   52  2   RLX: 0.075
       a = -1.500      CL =  0.1291
      Cm = -0.0830     CD =  0.00617   =>   CDf =  0.00468    CDp =  0.00149

 Side 1  free  transition at x/c =  0.8268   66
 Side 2  free  transition at x/c =  0.5843   53

   2   rms: 0.2111E+00   max: -.3275E+01   C at   53  2   RLX: 0.153
       a = -1.500      CL =  0.1372
      Cm = -0.0831     CD =  0.00614   =>   CDf =  0.00463    CDp =  0.00151

 Side 1  free  transition at x/c =  0.8252   66
 Side 2  free  transition at x/c =  0.6070   55

   3   rms: 0.1589E+00   max: -.2089E+01   C at   55  2   RLX: 0.239
       a = -1.500      CL =  0.1475
      Cm = -0.0832     CD =  0.00607   =>   CDf =  0.00464    CDp =  0.00143

 Side 1  free  transition at x/c =  0.8232   67
 Side 2  free  transition at x/c =  0.6200   54

   4   rms: 0.1039E+00   max: -.1280E+01   T at    2  1   RLX: 0.391
       a = -1.500      CL =  0.1619
      Cm = -0.0836     CD =  0.00624   =>   CDf =  0.00466    CDp =  0.00158

 Side 1  free  transition at x/c =  0.8209   66
 Side 2  free  transition at x/c =  0.6455   56

   5   rms: 0.6357E-01   max: -.9319E+00   C at   56  2   RLX: 0.537
       a = -1.500      CL =  0.1706
      Cm = -0.0829     CD =  0.00602   =>   CDf =  0.00452    CDp =  0.00150

 Side 1  free  transition at x/c =  0.8174   66
 Side 2  free  transition at x/c =  0.6583   57

   6   rms: 0.2764E-01   max: -.3027E+00   C at   57  2
       a = -1.500      CL =  0.1801
      Cm = -0.0829     CD =  0.00603   =>   CDf =  0.00452    CDp =  0.00151

 Side 1  free  transition at x/c =  0.8149   66
 Side 2  free  transition at x/c =  0.6759   58

   7   rms: 0.2694E-02   max: -.3922E-01   C at   58  2
       a = -1.500      CL =  0.1801
      Cm = -0.0829     CD =  0.00603   =>   CDf =  0.00447    CDp =  0.00156

 Side 1  free  transition at x/c =  0.8151   66
 Side 2  free  transition at x/c =  0.6778   58

   8   rms: 0.2085E-03   max: -.3240E-02   C at   58  2
       a = -1.500      CL =  0.1801
      Cm = -0.0829     CD =  0.00603   =>   CDf =  0.00447    CDp =  0.00157

 Side 1  free  transition at x/c =  0.8151   66
 Side 2  free  transition at x/c =  0.6779   58

   9   rms: 0.6200E-06   max: -.5639E-05   D at   60  2
       a = -1.500      CL =  0.1801
      Cm = -0.0829     CD =  0.00603   =>   CDf =  0.00447    CDp =  0.00157
 plradd ia,ip,cpol            6           0  7.78765138E-03

 Point added to stored polar  1
 Point written to save file  naca65410_Re600k.base.pol                       
 Dump file unspecified or not available
 Calculating wake trajectory ...
 Calculating source influence matrix ...

 Solving BL system ...

 Side 1  free  transition at x/c =  0.8151   66
 Side 2  free  transition at x/c =  0.6779   58

   1   rms: 0.1321E+00   max: 0.6397E+00   D at   59  2   RLX: 0.948
       a = -1.000      CL =  0.2332
      Cm = -0.0829     CD =  0.00611   =>   CDf =  0.00447    CDp =  0.00165

 MRCHDU: Convergence failed at  62  side 2    Res =  0.2735E+02
 MRCHDU: Convergence failed at  63  side 2    Res =  0.1772E+01
 MRCHDU: Convergence failed at  64  side 2    Res =  0.3190E+01
 MRCHDU: Convergence failed at  65  side 2    Res =  0.6868E+01
 MRCHDU: Convergence failed at  66  side 2    Res =  0.1321E+02
 MRCHDU: Convergence failed at  67  side 2    Res =  0.2255E+02
 MRCHDU: Convergence failed at  68  side 2    Res =  0.2900E+02
 MRCHDU: Convergence failed at  69  side 2    Res =  0.2815E+02
 MRCHDU: Convergence failed at  70  side 2    Res =  0.2400E+02
 MRCHDU: Convergence failed at  71  side 2    Res =  0.2001E+02
 MRCHDU: Convergence failed at  72  side 2    Res =  0.1701E+02
 MRCHDU: Convergence failed at  73  side 2    Res =  0.1479E+02
 MRCHDU: Convergence failed at  74  side 2    Res =  0.1262E+02
 MRCHDU: Convergence failed at  75  side 2    Res =  0.1153E+02
 MRCHDU: Convergence failed at  76  side 2    Res =  0.1063E+02
 MRCHDU: Convergence failed at  77  side 2    Res =  0.9901E+01
 MRCHDU: Convergence failed at  78  side 2    Res =  0.9316E+01
 MRCHDU: Convergence failed at  79  side 2    Res =  0.8745E+01
 MRCHDU: Convergence failed at  80  side 2    Res =  0.8067E+01
 MRCHDU: Convergence failed at  81  side 2    Res =  0.7164E+01
 MRCHDU: Convergence failed at  82  side 2    Res =  0.6176E+01
 Side 1  free  transition at x/c =  0.8037   65
 Side 2  free  transition at x/c =  0.7324   62

   2   rms: 0.1569E+00   max: 0.7559E+00   T at   81  2   RLX: 0.899
       a = -1.000      CL =  0.2055
      Cm = -0.0737     CD =  0.00559   =>   CDf =  0.00368    CDp =  0.00190

 Side 1  free  transition at x/c =  0.8014   65
 Side 2  free  transition at x/c =  0.7380   62

   3   rms: 0.3318E-01   max: -.8349E-01   D at   82  2
       a = -1.000      CL =  0.2347
      Cm = -0.0825     CD =  0.00608   =>   CDf =  0.00444    CDp =  0.00165

 Side 1  free  transition at x/c =  0.8026   65
 Side 2  free  transition at x/c =  0.7407   63

   4   rms: 0.3016E-02   max: -.5059E-01   D at   62  2
       a = -1.000      CL =  0.2345
      Cm = -0.0825     CD =  0.00606   =>   CDf =  0.00439    CDp =  0.00167

 Side 1  free  transition at x/c =  0.8026   65
 Side 2  free  transition at x/c =  0.7406   63

   5   rms: 0.2475E-03   max: 0.3060E-02   C at   63  2
       a = -1.000      CL =  0.2345
      Cm = -0.0825     CD =  0.00606   =>   CDf =  0.00437    CDp =  0.00168

 Side 1  free  transition at x/c =  0.8026   65
 Side 2  free  transition at x/c =  0.7406   63

   6   rms: 0.1418E-05   max: -.1544E-04   D at   65  2
       a = -1.000      CL =  0.2345
      Cm = -0.0825     CD =  0.00606   =>   CDf =  0.00438    CDp =  0.00168
 plradd ia,ip,cpol            7           0  0.46592394    

 Point added to stored polar  1
 Point written to save file  naca65410_Re600k.base.pol                       
 Dump file unspecified or not available
 Calculating wake trajectory ...
 Calculating source influence matrix ...

 Solving BL system ...

 Side 1  free  transition at x/c =  0.8026   65
 Side 2  free  transition at x/c =  0.7406   63

   1   rms: 0.1025E+00   max: 0.5735E+00   D at   64  2
       a = -0.500      CL =  0.2883
      Cm = -0.0819     CD =  0.00602   =>   CDf =  0.00438    CDp =  0.00164

 Side 1  free  transition at x/c =  0.7899   65
 Side 2  free  transition at x/c =  0.7637   63

   2   rms: 0.1875E-01   max: -.1513E+00   T at   63  2
       a = -0.500      CL =  0.2898
      Cm = -0.0822     CD =  0.00613   =>   CDf =  0.00446    CDp =  0.00168

 Side 1  free  transition at x/c =  0.7907   65
 Side 2  free  transition at x/c =  0.7717   64

   3   rms: 0.3294E-02   max: 0.5944E-01   D at   64  2
       a = -0.500      CL =  0.2894
      Cm = -0.0821     CD =  0.00612   =>   CDf =  0.00438    CDp =  0.00175

 Side 1  free  transition at x/c =  0.7905   65
 Side 2  free  transition at x/c =  0.7711   64

   4   rms: 0.3438E-03   max: 0.4662E-02   D at   64  2
       a = -0.500      CL =  0.2894
      Cm = -0.0821     CD =  0.00612   =>   CDf =  0.00437    CDp =  0.00175

 Side 1  free  transition at x/c =  0.7905   65
 Side 2  free  transition at x/c =  0.7710   64

   5   rms: 0.9762E-06   max: 0.7433E-05   C at   64  2
       a = -0.500      CL =  0.2894
      Cm = -0.0821     CD =  0.00612   =>   CDf =  0.00438    CDp =  0.00175
 plradd ia,ip,cpol            8           0  0.45167410    

 Point added to stored polar  1
 Point written to save file  naca65410_Re600k.base.pol                       
 Dump file unspecified or not available
 Calculating wake trajectory ...
 Calculating source influence matrix ...

 Solving BL system ...

 Side 1  free  transition at x/c =  0.7905   65
 Side 2  free  transition at x/c =  0.7710   64

   1   rms: 0.9283E-01   max: -.4115E+00   T at   64  2
       a =  0.000      CL =  0.3438
      Cm = -0.0818     CD =  0.00612   =>   CDf =  0.00437    CDp =  0.00175

 Side 1  free  transition at x/c =  0.7771   65
 Side 2  free  transition at x/c =  0.7739   63

   2   rms: 0.5480E-01   max: -.5661E+00   D at   63  2   RLX: 0.883
       a =  0.000      CL =  0.3474
      Cm = -0.0829     CD =  0.00639   =>   CDf =  0.00453    CDp =  0.00186

 MRCHDU: Convergence failed at  64  side 2    Res =  0.1602E+02
 MRCHDU: Convergence failed at  65  side 2    Res =  0.3629E+01
 MRCHDU: Convergence failed at  66  side 2    Res =  0.1920E+01
 MRCHDU: Convergence failed at  67  side 2    Res =  0.3284E+01
 MRCHDU: Convergence failed at  68  side 2    Res =  0.5210E+01
 MRCHDU: Convergence failed at  69  side 2    Res =  0.7871E+01
 MRCHDU: Convergence failed at  70  side 2    Res =  0.1009E+02
 MRCHDU: Convergence failed at  71  side 2    Res =  0.1180E+02
 MRCHDU: Convergence failed at  72  side 2    Res =  0.1304E+02
 MRCHDU: Convergence failed at  73  side 2    Res =  0.1371E+02
 MRCHDU: Convergence failed at  74  side 2    Res =  0.1351E+02
 MRCHDU: Convergence failed at  75  side 2    Res =  0.1241E+02
 MRCHDU: Convergence failed at  76  side 2    Res =  0.1052E+02
 MRCHDU: Convergence failed at  77  side 2    Res =  0.8817E+01
 MRCHDU: Convergence failed at  78  side 2    Res =  0.7016E+01
 MRCHDU: Convergence failed at  79  side 2    Res =  0.5253E+01
 MRCHDU: Convergence failed at  80  side 2    Res =  0.4441E+01
 Side 1  free  transition at x/c =  0.7786   65
 Side 2  free  transition at x/c =  0.7909   64

   3   rms: 0.1498E+00   max: -.7427E+00   D at   80  2   RLX: 0.673
       a =  0.000      CL =  0.3143
      Cm = -0.0702     CD =  0.00556   =>   CDf =  0.00388    CDp =  0.00168

 Side 1  free  transition at x/c =  0.7777   65
 Side 2  free  transition at x/c =  0.7889   64

   4   rms: 0.4081E-01   max: -.3561E+00   D at   65  2
       a =  0.000      CL =  0.3456
      Cm = -0.0823     CD =  0.00616   =>   CDf =  0.00450    CDp =  0.00166

 Side 1  free  transition at x/c =  0.7786   65
 Side 2  free  transition at x/c =  0.7856   64

   5   rms: 0.2787E-02   max: -.4523E-01   D at   65  2
       a =  0.000      CL =  0.3454
      Cm = -0.0822     CD =  0.00617   =>   CDf =  0.00442    CDp =  0.00175

 Side 1  free  transition at x/c =  0.7786   65
 Side 2  free  transition at x/c =  0.7853   64

   6   rms: 0.4490E-04   max: -.6931E-03   D at   65  2
       a =  0.000      CL =  0.3454
      Cm = -0.0822     CD =  0.00617   =>   CDf =  0.00442    CDp =  0.00175
 plradd ia,ip,cpol            9           0  0.43740210    

 Point added to stored polar  1
 Point written to save file  naca65410_Re600k.base.pol                       
 Dump file unspecified or not available
 Calculating wake trajectory ...
 Calculating source influence matrix ...

 Solving BL system ...

 Side 1  free  transition at x/c =  0.7786   65
 Side 2  free  transition at x/c =  0.7853   64

   1   rms: 0.8685E-01   max: -.2646E+00   T at   64  2
       a =  0.500      CL =  0.4006
      Cm = -0.0822     CD =  0.00614   =>   CDf =  0.00442    CDp =  0.00172

 Side 1  free  transition at x/c =  0.7643   64
 Side 2  free  transition at x/c =  0.7959   64

   2   rms: 0.2289E-01   max: -.2707E+00   D at   65  2
       a =  0.500      CL =  0.4023
      Cm = -0.0826     CD =  0.00629   =>   CDf =  0.00453    CDp =  0.00176

 Side 1  free  transition at x/c =  0.7668   65
 Side 2  free  transition at x/c =  0.8017   65

   3   rms: 0.9606E-02   max: 0.1395E+00   D at   65  2
       a =  0.500      CL =  0.4014
      Cm = -0.0824     CD =  0.00622   =>   CDf =  0.00443    CDp =  0.00178

 Side 1  free  transition at x/c =  0.7667   65
 Side 2  free  transition at x/c =  0.7994   65

   4   rms: 0.1208E-02   max: -.1419E-01   D at   67  2
       a =  0.500      CL =  0.4014
      Cm = -0.0824     CD =  0.00622   =>   CDf =  0.00443    CDp =  0.00179

 Side 1  free  transition at x/c =  0.7666   65
 Side 2  free  transition at x/c =  0.7991   65

   5   rms: 0.1615E-04   max: -.3163E-03   D at   67  2
       a =  0.500      CL =  0.4014
      Cm = -0.0824     CD =  0.00622   =>   CDf =  0.00443    CDp =  0.00179
 plradd ia,ip,cpol           10           0  0.40885010    

 Point added to stored polar  1
 Point written to save file  naca65410_Re600k.base.pol                       
 Dump file unspecified or not available
 Calculating wake trajectory ...
 Calculating source influence matrix ...

 Solving BL system ...

 Side 1  free  transition at x/c =  0.7666   65
 Side 2  free  transition at x/c =  0.7991   65

   1   rms: 0.8861E-01   max: -.2646E+00   T at   65  2
       a =  1.000      CL =  0.4567
      Cm = -0.0823     CD =  0.00633   =>   CDf =  0.00440    CDp =  0.00193

 Side 1  free  transition at x/c =  0.7567   65
 Side 2  free  transition at x/c =  0.8097   64

   2   rms: 0.2359E-01   max: -.2712E+00   D at   65  2
       a =  1.000      CL =  0.4580
      Cm = -0.0827     CD =  0.00629   =>   CDf =  0.00444    CDp =  0.00185

 Side 1  free  transition at x/c =  0.7544   65
 Side 2  free  transition at x/c =  0.8155   65

   3   rms: 0.7694E-02   max: 0.1214E+00   D at   65  2
       a =  1.000      CL =  0.4572
      Cm = -0.0825     CD =  0.00627   =>   CDf =  0.00439    CDp =  0.00188

 Side 1  free  transition at x/c =  0.7546   65
 Side 2  free  transition at x/c =  0.8134   65

   4   rms: 0.8398E-03   max: -.1025E-01   D at   67  2
       a =  1.000      CL =  0.4571
      Cm = -0.0825     CD =  0.00627   =>   CDf =  0.00440    CDp =  0.00187

 Side 1  free  transition at x/c =  0.7545   65
 Side 2  free  transition at x/c =  0.8131   65

   5   rms: 0.9626E-05   max: -.1823E-03   D at   67  2
       a =  1.000      CL =  0.4571
      Cm = -0.0825     CD =  0.00627   =>   CDf =  0.00440    CDp =  0.00187
 plradd ia,ip,cpol           11           0  0.40885010    

 Point added to stored polar  1
 Point written to save file  naca65410_Re600k.base.pol                       
 Dump file unspecified or not available
 Calculating wake trajectory ...
 Calculating source influence matrix ...

 Solving BL system ...

 Side 1  free  transition at x/c =  0.7545   65
 Side 2  free  transition at x/c =  0.8131   65

   1   rms: 0.8780E-01   max: -.2630E+00   T at   65  2
       a =  1.500      CL =  0.5119
      Cm = -0.0823     CD =  0.00633   =>   CDf =  0.00440    CDp =  0.00193

 Side 1  free  transition at x/c =  0.7357   63
 Side 2  free  transition at x/c =  0.8244   65

   2   rms: 0.3454E-01   max: -.4232E+00   D at   64  1
       a =  1.500      CL =  0.5132
      Cm = -0.0826     CD =  0.00641   =>   CDf =  0.00447    CDp =  0.00194

 Side 1  free  transition at x/c =  0.7404   64
 Side 2  free  transition at x/c =  0.8299   66

   3   rms: 0.9013E-02   max: 0.1139E+00   D at   66  2
       a =  1.500      CL =  0.5121
      Cm = -0.0823     CD =  0.00633   =>   CDf =  0.00436    CDp =  0.00197

 Side 1  free  transition at x/c =  0.7390   64
 Side 2  free  transition at x/c =  0.8278   66

   4   rms: 0.9228E-03   max: -.9117E-02   D at   68  2
       a =  1.500      CL =  0.5121
      Cm = -0.0823     CD =  0.00633   =>   CDf =  0.00438    CDp =  0.00195

 Side 1  free  transition at x/c =  0.7389   64
 Side 2  free  transition at x/c =  0.8276   66

   5   rms: 0.7747E-05   max: -.1415E-03   D at   68  2
       a =  1.500      CL =  0.5121
      Cm = -0.0823     CD =  0.00633   =>   CDf =  0.00439    CDp =  0.00194
 plradd ia,ip,cpol           12           0  1.11627271E-02

 Point added to stored polar  1
 Point written to save file  naca65410_Re600k.base.pol                       
 Dump file unspecified or not available
 Calculating wake trajectory ...
 Calculating source influence matrix ...

 Solving BL system ...

 Side 1  free  transition at x/c =  0.7389   64
 Side 2  free  transition at x/c =  0.8276   66

   1   rms: 0.9947E-01   max: -.2668E+00   T at   66  2   RLX: 0.968
       a =  2.000      CL =  0.5632
      Cm = -0.0815     CD =  0.00644   =>   CDf =  0.00432    CDp =  0.00212

 Side 1  free  transition at x/c =  0.7218   63
 Side 2  free  transition at x/c =  0.8383   65

   2   rms: 0.3424E-01   max: -.3113E+00   D at   64  1
       a =  2.000      CL =  0.5671
      Cm = -0.0822     CD =  0.00631   =>   CDf =  0.00437    CDp =  0.00194

 Side 1  free  transition at x/c =  0.7185   63
 Side 2  free  transition at x/c =  0.8451   66

   3   rms: 0.9313E-02   max: 0.1207E+00   D at   66  2
       a =  2.000      CL =  0.5659
      Cm = -0.0819     CD =  0.00637   =>   CDf =  0.00431    CDp =  0.00205

 Side 1  free  transition at x/c =  0.7168   63
 Side 2  free  transition at x/c =  0.8428   66

   4   rms: 0.1008E-02   max: -.1384E-01   D at   68  2
       a =  2.000      CL =  0.5658
      Cm = -0.0819     CD =  0.00637   =>   CDf =  0.00434    CDp =  0.00203

 Side 1  free  transition at x/c =  0.7168   63
 Side 2  free  transition at x/c =  0.8424   66

   5   rms: 0.1393E-04   max: -.2751E-03   D at   68  2
       a =  2.000      CL =  0.5658
      Cm = -0.0819     CD =  0.00637   =>   CDf =  0.00434    CDp =  0.00203
 plradd ia,ip,cpol           13           0  4.95832087E-03

 Point added to stored polar  1
 Point written to save file  naca65410_Re600k.base.pol                       
 Dump file unspecified or not available
 Calculating wake trajectory ...
 Calculating source influence matrix ...

 Solving BL system ...

 Side 1  free  transition at x/c =  0.7168   63
 Side 2  free  transition at x/c =  0.8424   66

   1   rms: 0.8905E-01   max: -.2655E+00   T at   66  2
       a =  2.500      CL =  0.6187
      Cm = -0.0812     CD =  0.00636   =>   CDf =  0.00426    CDp =  0.00210

 Side 1  free  transition at x/c =  0.6697   61
 Side 2  free  transition at x/c =  0.8543   66

   2   rms: 0.4615E-01   max: 0.3652E+00   D at   63  1
       a =  2.500      CL =  0.6173
      Cm = -0.0808     CD =  0.00629   =>   CDf =  0.00460    CDp =  0.00169

 Side 1  free  transition at x/c =  0.6890   62
 Side 2  free  transition at x/c =  0.8599   66

   3   rms: 0.1924E-01   max: 0.3308E+00   C at   62  1
       a =  2.500      CL =  0.6175
      Cm = -0.0809     CD =  0.00643   =>   CDf =  0.00427    CDp =  0.00216

 Side 1  free  transition at x/c =  0.6834   62
 Side 2  free  transition at x/c =  0.8581   66

   4   rms: 0.2042E-02   max: -.3434E-01   D at   64  1
       a =  2.500      CL =  0.6177
      Cm = -0.0809     CD =  0.00644   =>   CDf =  0.00435    CDp =  0.00210

 Side 1  free  transition at x/c =  0.6828   62
 Side 2  free  transition at x/c =  0.8582   66

   5   rms: 0.3289E-04   max: -.5803E-03   D at   64  1
       a =  2.500      CL =  0.6177
      Cm = -0.0809     CD =  0.00644   =>   CDf =  0.00435    CDp =  0.00209
 plradd ia,ip,cpol           14           0  4.95832087E-03

 Point added to stored polar  1
 Point written to save file  naca65410_Re600k.base.pol                       
 Dump file unspecified or not available
 Calculating wake trajectory ...
 Calculating source influence matrix ...

 Solving BL system ...

 Side 1  free  transition at x/c =  0.6828   62
 Side 2  free  transition at x/c =  0.8582   66

   1   rms: 0.1341E+00   max: -.9176E+00   D at   63  1   RLX: 0.545
       a =  3.000      CL =  0.6437
      Cm = -0.0799     CD =  0.00657   =>   CDf =  0.00435    CDp =  0.00222

 Side 1  free  transition at x/c =  0.6616   60
 Side 2  free  transition at x/c =  0.8657   66

   2   rms: 0.5411E-01   max: -.3726E+00   D at   62  1
       a =  3.000      CL =  0.6699
      Cm = -0.0802     CD =  0.00655   =>   CDf =  0.00437    CDp =  0.00219

 Side 1  free  transition at x/c =  0.6316   58
 Side 2  free  transition at x/c =  0.8769   67

   3   rms: 0.1260E-01   max: -.1490E+00   C at   58  1
       a =  3.000      CL =  0.6680
      Cm = -0.0797     CD =  0.00662   =>   CDf =  0.00443    CDp =  0.00218

 Side 1  free  transition at x/c =  0.6364   58
 Side 2  free  transition at x/c =  0.8750   67

   4   rms: 0.1099E-02   max: -.1314E-01   D at   69  2
       a =  3.000      CL =  0.6679
      Cm = -0.0797     CD =  0.00662   =>   CDf =  0.00441    CDp =  0.00221

 Side 1  free  transition at x/c =  0.6362   58
 Side 2  free  transition at x/c =  0.8746   67

   5   rms: 0.1318E-04   max: -.2386E-03   D at   69  2
       a =  3.000      CL =  0.6679
      Cm = -0.0797     CD =  0.00662   =>   CDf =  0.00441    CDp =  0.00221
 plradd ia,ip,cpol           15           0  4.95832087E-03

 Point added to stored polar  1
 Point written to save file  naca65410_Re600k.base.pol                       
 Dump file unspecified or not available
 Calculating wake trajectory ...
 Calculating source influence matrix ...

 Solving BL system ...

 Side 1  free  transition at x/c =  0.6362   58
 Side 2  free  transition at x/c =  0.8746   67

   1   rms: 0.9979E-01   max: -.2502E+00   T at   67  2
       a =  3.500      CL =  0.7198
      Cm = -0.0789     CD =  0.00665   =>   CDf =  0.00430    CDp =  0.00235

 Side 1  free  transition at x/c =  0.5287   52
 Side 2  free  transition at x/c =  0.8906   67

   2   rms: 0.2950E-01   max: -.3978E+00   C at   52  1
       a =  3.500      CL =  0.7135
      Cm = -0.0776     CD =  0.00707   =>   CDf =  0.00473    CDp =  0.00234

 Side 1  free  transition at x/c =  0.5451   53
 Side 2  free  transition at x/c =  0.8931   67

   3   rms: 0.7257E-02   max: 0.1339E+00   C at   53  1
       a =  3.500      CL =  0.7137
      Cm = -0.0777     CD =  0.00708   =>   CDf =  0.00462    CDp =  0.00246

 Side 1  free  transition at x/c =  0.5411   53
 Side 2  free  transition at x/c =  0.8932   67

   4   rms: 0.6016E-03   max: -.1175E-01   C at   53  1
       a =  3.500      CL =  0.7136
      Cm = -0.0776     CD =  0.00709   =>   CDf =  0.00465    CDp =  0.00244

 Side 1  free  transition at x/c =  0.5414   53
 Side 2  free  transition at x/c =  0.8932   67

   5   rms: 0.2383E-05   max: -.3958E-04   C at   53  1
       a =  3.500      CL =  0.7136
      Cm = -0.0776     CD =  0.00709   =>   CDf =  0.00465    CDp =  0.00244
 plradd ia,ip,cpol           16           0  4.95832087E-03

 Point added to stored polar  1
 Point written to save file  naca65410_Re600k.base.pol                       
 Dump file unspecified or not available
 Calculating wake trajectory ...
 Calculating source influence matrix ...

 Solving BL system ...

 Side 1  free  transition at x/c =  0.5414   53
 Side 2  free  transition at x/c =  0.8932   67

   1   rms: 0.2910E+00   max: 0.5335E+01   C at   53  1   RLX: 0.281
       a =  4.000      CL =  0.7239
      Cm = -0.0767     CD =  0.00744   =>   CDf =  0.00465    CDp =  0.00279

 Side 1  free  transition at x/c =  0.4415   46
 Side 2  free  transition at x/c =  0.8987   68

   2   rms: 0.3859E+00   max: 0.7800E+01   C at   46  1   RLX: 0.192
       a =  4.000      CL =  0.7252
      Cm = -0.0756     CD =  0.00812   =>   CDf =  0.00510    CDp =  0.00302

 Side 1  free  transition at x/c =  0.3832   42
 Side 2  free  transition at x/c =  0.9015   68

   3   rms: 0.3703E+00   max: 0.7629E+01   C at   42  1   RLX: 0.197
       a =  4.000      CL =  0.7259
      Cm = -0.0747     CD =  0.00855   =>   CDf =  0.00536    CDp =  0.00319

 Side 1  free  transition at x/c =  0.3382   39
 Side 2  free  transition at x/c =  0.9042   68

   4   rms: 0.2923E+00   max: 0.6033E+01   C at   39  1   RLX: 0.249
       a =  4.000      CL =  0.7271
      Cm = -0.0739     CD =  0.00895   =>   CDf =  0.00556    CDp =  0.00338

 Side 1  free  transition at x/c =  0.2939   35
 Side 2  free  transition at x/c =  0.9072   68

   5   rms: 0.2532E+00   max: 0.5374E+01   C at   35  1   RLX: 0.279
       a =  4.000      CL =  0.7293
      Cm = -0.0735     CD =  0.00916   =>   CDf =  0.00577    CDp =  0.00340

 Side 1  free  transition at x/c =  0.2495   32
 Side 2  free  transition at x/c =  0.9099   68

   6   rms: 0.1856E+00   max: 0.4048E+01   C at   32  1   RLX: 0.371
       a =  4.000      CL =  0.7312
      Cm = -0.0730     CD =  0.00952   =>   CDf =  0.00597    CDp =  0.00355

 Side 1  free  transition at x/c =  0.2098   30
 Side 2  free  transition at x/c =  0.9123   69

   7   rms: 0.8387E-01   max: 0.1742E+01   C at   30  1   RLX: 0.861
       a =  4.000      CL =  0.7321
      Cm = -0.0719     CD =  0.00995   =>   CDf =  0.00616    CDp =  0.00379

 Side 1  free  transition at x/c =  0.1689   27
 Side 2  free  transition at x/c =  0.9165   69

   8   rms: 0.1593E-01   max: 0.2857E+00   C at   27  1
       a =  4.000      CL =  0.7326
      Cm = -0.0717     CD =  0.00999   =>   CDf =  0.00633    CDp =  0.00366

 Side 1  free  transition at x/c =  0.1612   26
 Side 2  free  transition at x/c =  0.9175   69

   9   rms: 0.8770E-03   max: 0.1798E-01   C at   26  1
       a =  4.000      CL =  0.7326
      Cm = -0.0717     CD =  0.00998   =>   CDf =  0.00636    CDp =  0.00362

 Side 1  free  transition at x/c =  0.1610   26
 Side 2  free  transition at x/c =  0.9175   69

  10   rms: 0.2134E-05   max: -.2723E-04   D at   27  1
       a =  4.000      CL =  0.7326
      Cm = -0.0717     CD =  0.00998   =>   CDf =  0.00636    CDp =  0.00362
 plradd ia,ip,cpol           17           0  3.03042191E-03

 Point added to stored polar  1
 Point written to save file  naca65410_Re600k.base.pol                       
 Dump file unspecified or not available
 Calculating wake trajectory ...
 Calculating source influence matrix ...

 Solving BL system ...

 Side 1  free  transition at x/c =  0.1610   26
 Side 2  free  transition at x/c =  0.9175   69

   1   rms: 0.8136E+00   max: 0.1879E+02   C at   26  1   RLX: 0.080
       a =  4.500      CL =  0.7341
      Cm = -0.0712     CD =  0.01022   =>   CDf =  0.00636    CDp =  0.00386

 Side 1  free  transition at x/c =  0.1327   24
 Side 2  free  transition at x/c =  0.9196   69

   2   rms: 0.7059E+00   max: 0.1661E+02   C at   24  1   RLX: 0.090
       a =  4.500      CL =  0.7358
      Cm = -0.0709     CD =  0.01046   =>   CDf =  0.00649    CDp =  0.00396

 Side 1  free  transition at x/c =  0.1047   22
 Side 2  free  transition at x/c =  0.9219   69

   3   rms: 0.6097E+00   max: 0.1440E+02   C at   22  1   RLX: 0.104
       a =  4.500      CL =  0.7378
      Cm = -0.0705     CD =  0.01072   =>   CDf =  0.00662    CDp =  0.00410

 Side 1  free  transition at x/c =  0.0812   20
 Side 2  free  transition at x/c =  0.9243   69

   4   rms: 0.4723E+00   max: 0.1149E+02   C at   20  1   RLX: 0.131
       a =  4.500      CL =  0.7410
      Cm = -0.0702     CD =  0.01091   =>   CDf =  0.00674    CDp =  0.00417

 Side 1  free  transition at x/c =  0.0619   19
 Side 2  free  transition at x/c =  0.9266   70

   5   rms: 0.2171E+00   max: 0.4125E+01   C at   19  1   RLX: 0.283
       a =  4.500      CL =  0.7455
      Cm = -0.0692     CD =  0.01126   =>   CDf =  0.00684    CDp =  0.00442

 Side 1  free  transition at x/c =  0.0505   18
 Side 2  free  transition at x/c =  0.9313   70

   6   rms: 0.9567E-01   max: 0.1393E+01   C at   18  1   RLX: 0.666
       a =  4.500      CL =  0.7571
      Cm = -0.0679     CD =  0.01148   =>   CDf =  0.00689    CDp =  0.00459

 Side 1  free  transition at x/c =  0.0418   17
 Side 2  free  transition at x/c =  0.9397   70

   7   rms: 0.2739E-01   max: -.4382E+00   D at   17  1
       a =  4.500      CL =  0.7679
      Cm = -0.0682     CD =  0.01140   =>   CDf =  0.00686    CDp =  0.00454

 Side 1  free  transition at x/c =  0.0393   17
 Side 2  free  transition at x/c =  0.9468   71

   8   rms: 0.5191E-02   max: -.5684E-01   D at   70  2
       a =  4.500      CL =  0.7645
      Cm = -0.0674     CD =  0.01143   =>   CDf =  0.00689    CDp =  0.00454

 Side 1  free  transition at x/c =  0.0388   17
 Side 2  free  transition at x/c =  0.9471   71

   9   rms: 0.1357E-03   max: 0.1289E-02   C at   71  2
       a =  4.500      CL =  0.7645
      Cm = -0.0674     CD =  0.01143   =>   CDf =  0.00689    CDp =  0.00453

 Side 1  free  transition at x/c =  0.0388   17
 Side 2  free  transition at x/c =  0.9470   71

  10   rms: 0.1571E-05   max: -.1023E-04   C at   71  2
       a =  4.500      CL =  0.7645
      Cm = -0.0674     CD =  0.01143   =>   CDf =  0.00689    CDp =  0.00453
 plradd ia,ip,cpol           18           0  3.03042191E-03

 Point added to stored polar  1
 Point written to save file  naca65410_Re600k.base.pol                       
 Dump file unspecified or not available
 Calculating wake trajectory ...
 Calculating source influence matrix ...

 Solving BL system ...

 Side 1  free  transition at x/c =  0.0388   17
 Side 2  free  transition at x/c =  0.9470   71

   1   rms: 0.1185E+00   max: -.8649E+00   C at   71  2   RLX: 0.578
       a =  5.000      CL =  0.7847
      Cm = -0.0649     CD =  0.01188   =>   CDf =  0.00677    CDp =  0.00511

 Side 1  free  transition at x/c =  0.0332   17
 Side 2  free  transition at x/c =  0.9656   72

   2   rms: 0.1322E+00   max: 0.1771E+01   D at    2  1   RLX: 0.427
       a =  5.000      CL =  0.7939
      Cm = -0.0651     CD =  0.01200   =>   CDf =  0.00675    CDp =  0.00525

 Side 1  free  transition at x/c =  0.0322   17
 Side 2  free  transition at x/c =  0.9755   72

   3   rms: 0.4542E-01   max: -.6491E+00   C at   72  2   RLX: 0.770
       a =  5.000      CL =  0.8058
      Cm = -0.0654     CD =  0.01205   =>   CDf =  0.00674    CDp =  0.00531

 Side 1  free  transition at x/c =  0.0305   17
 Side 2 forced transition at x/c =  1.0000   75

   4   rms: 0.1551E-01   max: -.1941E+00   D at   73  2
       a =  5.000      CL =  0.8151
      Cm = -0.0668     CD =  0.01219   =>   CDf =  0.00674    CDp =  0.00545

 Side 1  free  transition at x/c =  0.0294   17
 Side 2 forced transition at x/c =  1.0000   75

   5   rms: 0.1520E-02   max: -.1747E-01   D at   73  2
       a =  5.000      CL =  0.8142
      Cm = -0.0666     CD =  0.01219   =>   CDf =  0.00675    CDp =  0.00543

 Side 1  free  transition at x/c =  0.0294   17
 Side 2 forced transition at x/c =  1.0000   75

   6   rms: 0.9534E-05   max: -.1400E-03   D at   73  2
       a =  5.000      CL =  0.8142
      Cm = -0.0666     CD =  0.01219   =>   CDf =  0.00675    CDp =  0.00543
 plradd ia,ip,cpol           19           0  3.03042191E-03

 Point added to stored polar  1
 Point written to save file  naca65410_Re600k.base.pol                       
 Dump file unspecified or not available
 Calculating wake trajectory ...
 Calculating source influence matrix ...

 Solving BL system ...

 Side 1  free  transition at x/c =  0.0294   17
 Side 2 forced transition at x/c =  1.0000   75

   1   rms: 0.1066E+00   max: 0.5813E+00   T at   17  1
       a =  5.500      CL =  0.8664
      Cm = -0.0667     CD =  0.01326   =>   CDf =  0.00676    CDp =  0.00650

 MRCHDU: Convergence failed at  17  side 1    Res =  0.1150E+01
 MRCHDU: Convergence failed at  18  side 1    Res =  0.8201E+01
 MRCHDU: Convergence failed at  19  side 1    Res =  0.3532E+01
 MRCHDU: Convergence failed at  20  side 1    Res =  0.3531E+01
 MRCHDU: Convergence failed at  21  side 1    Res =  0.3760E+01
 MRCHDU: Convergence failed at  22  side 1    Res =  0.4961E+01
 MRCHDU: Convergence failed at  23  side 1    Res =  0.7628E+01
 MRCHDU: Convergence failed at  24  side 1    Res =  0.1095E+02
 MRCHDU: Convergence failed at  25  side 1    Res =  0.1656E+02
 MRCHDU: Convergence failed at  26  side 1    Res =  0.2776E+02
 MRCHDU: Convergence failed at  27  side 1    Res =  0.7423E+02
 MRCHDU: Convergence failed at  28  side 1    Res =  0.8299E+01
 MRCHDU: Convergence failed at  29  side 1    Res =  0.4831E+02
 MRCHDU: Convergence failed at  30  side 1    Res =  0.3711E+02
 MRCHDU: Convergence failed at  31  side 1    Res =  0.3377E+02
 MRCHDU: Convergence failed at  32  side 1    Res =  0.3138E+02
 MRCHDU: Convergence failed at  33  side 1    Res =  0.2954E+02
 MRCHDU: Convergence failed at  34  side 1    Res =  0.2810E+02
 MRCHDU: Convergence failed at  35  side 1    Res =  0.2696E+02
 MRCHDU: Convergence failed at  36  side 1    Res =  0.2617E+02
 MRCHDU: Convergence failed at  37  side 1    Res =  0.2546E+02
 MRCHDU: Convergence failed at  38  side 1    Res =  0.2491E+02
 MRCHDU: Convergence failed at  39  side 1    Res =  0.2446E+02
 MRCHDU: Convergence failed at  40  side 1    Res =  0.2410E+02
 MRCHDU: Convergence failed at  41  side 1    Res =  0.2382E+02
 MRCHDU: Convergence failed at  42  side 1    Res =  0.2360E+02
 MRCHDU: Convergence failed at  43  side 1    Res =  0.2746E+02
 MRCHDU: Convergence failed at  44  side 1    Res =  0.2824E+02
 MRCHDU: Convergence failed at  45  side 1    Res =  0.2880E+02
 MRCHDU: Convergence failed at  46  side 1    Res =  0.2906E+02
 MRCHDU: Convergence failed at  47  side 1    Res =  0.2936E+02
 MRCHDU: Convergence failed at  48  side 1    Res =  0.2941E+02
 MRCHDU: Convergence failed at  49  side 1    Res =  0.2920E+02
 MRCHDU: Convergence failed at  50  side 1    Res =  0.2856E+02
 MRCHDU: Convergence failed at  51  side 1    Res =  0.2717E+02
 MRCHDU: Convergence failed at  52  side 1    Res =  0.2540E+02
 MRCHDU: Convergence failed at  53  side 1    Res =  0.4500E+02
 MRCHDU: Convergence failed at  54  side 1    Res =  0.1203E+03
 MRCHDU: Convergence failed at  55  side 1    Res =  0.5496E+02
 MRCHDU: Convergence failed at  56  side 1    Res =  0.6745E+02
 MRCHDU: Convergence failed at  57  side 1    Res =  0.5361E+02
 MRCHDU: Convergence failed at  58  side 1    Res =  0.5089E+02
 MRCHDU: Convergence failed at  59  side 1    Res =  0.9472E+02
 MRCHDU: Convergence failed at  60  side 1    Res =  0.4828E+03
 MRCHDU: Convergence failed at  61  side 1    Res =  0.4105E+02
 MRCHDU: Convergence failed at  62  side 1    Res =  0.3621E+02
 MRCHDU: Convergence failed at  63  side 1    Res =  0.2623E+02
 MRCHDU: Convergence failed at  64  side 1    Res =  0.2896E+02
 MRCHDU: Convergence failed at  65  side 1    Res =  0.3491E+02
 MRCHDU: Convergence failed at  66  side 1    Res =  0.1078E+03
 MRCHDU: Convergence failed at  67  side 1    Res =  0.8611E+02
 MRCHDU: Convergence failed at  68  side 1    Res =  0.8783E+02
 MRCHDU: Convergence failed at  69  side 1    Res =  0.7199E+02
 MRCHDU: Convergence failed at  70  side 1    Res =  0.4326E+02
 MRCHDU: Convergence failed at  71  side 1    Res =  0.1469E+03
 MRCHDU: Convergence failed at  72  side 1    Res =  0.2192E+03
 MRCHDU: Convergence failed at  73  side 1    Res =  0.5059E+03
 MRCHDU: Convergence failed at  74  side 1    Res =  0.1402E+03
 MRCHDU: Convergence failed at  75  side 1    Res =  0.9840E+02
 MRCHDU: Convergence failed at  76  side 1    Res =  0.2677E+03
 MRCHDU: Convergence failed at  77  side 1    Res =  0.4314E+03
 MRCHDU: Convergence failed at  78  side 1    Res =  0.4969E+02
 MRCHDU: Convergence failed at  79  side 1    Res =  0.7458E+02
 MRCHDU: Convergence failed at  80  side 1    Res =  0.5847E+02
 MRCHDU: Convergence failed at  81  side 1    Res =  0.5514E+02
 MRCHDU: Convergence failed at  82  side 1    Res =  0.3738E+02
 MRCHDU: Convergence failed at  83  side 1    Res =  0.3681E+02
 MRCHDU: Convergence failed at  84  side 1    Res =  0.2911E+02
 MRCHDU: Convergence failed at  85  side 1    Res =  0.4630E+02
 MRCHDU: Convergence failed at  86  side 1    Res =  0.5886E+02
 MRCHDU: Convergence failed at  87  side 1    Res =  0.4119E+03
 Side 1  free  transition at x/c =  0.0240   16
 Side 2 forced transition at x/c =  1.0000   75

   2   rms: 0.1690E+01   max: 0.1060E+02   D at   77  2   RLX: 0.131
       a =  5.500      CL =  2.1810
      Cm = -0.5079     CD =  0.00309   =>   CDf =  0.00122    CDp =  0.00188

 MRCHDU: Convergence failed at  21  side 1    Res =  0.5464E+00
 MRCHDU: Convergence failed at  22  side 1    Res =  0.5436E+00
 MRCHDU: Convergence failed at  23  side 1    Res =  0.5403E+00
 MRCHDU: Convergence failed at  24  side 1    Res =  0.5350E+00
 MRCHDU: Convergence failed at  25  side 1    Res =  0.5257E+00
 MRCHDU: Convergence failed at  26  side 1    Res =  0.5179E+00
 MRCHDU: Convergence failed at  27  side 1    Res =  0.5080E+00
 MRCHDU: Convergence failed at  28  side 1    Res =  0.4994E+00
 MRCHDU: Convergence failed at  29  side 1    Res =  0.4879E+00
 MRCHDU: Convergence failed at  30  side 1    Res =  0.4771E+00
 MRCHDU: Convergence failed at  31  side 1    Res =  0.4606E+00
 MRCHDU: Convergence failed at  32  side 1    Res =  0.4472E+00
 MRCHDU: Convergence failed at  33  side 1    Res =  0.4266E+00
 MRCHDU: Convergence failed at  34  side 1    Res =  0.4023E+00
 MRCHDU: Convergence failed at  35  side 1    Res =  0.3687E+00
 MRCHDU: Convergence failed at  36  side 1    Res =  0.3247E+00
 MRCHDU: Convergence failed at  37  side 1    Res =  0.2305E+00
 MRCHDU: Convergence failed at  38  side 1    Res =  0.8934E-01
 MRCHDU: Convergence failed at  78  side 2    Res =  0.2858E+01
 MRCHDU: Convergence failed at  79  side 2    Res =  0.9553E+00
 Side 1  free  transition at x/c =  0.0244   17
 Side 2 forced transition at x/c =  1.0000   75

   3   rms: 0.5696E+00   max: 0.2031E+01   C at   75  2   RLX: 0.333
       a =  5.500      CL =  1.2622
      Cm = -0.2563     CD =  0.04048   =>   CDf =  0.00215    CDp =  0.03833

 MRCHDU: Convergence failed at  38  side 1    Res =  0.4767E+00
 MRCHDU: Convergence failed at  39  side 1    Res =  0.8532E+00
 MRCHDU: Convergence failed at  40  side 1    Res =  0.5315E+00
 MRCHDU: Convergence failed at  41  side 1    Res =  0.4968E+00
 MRCHDU: Convergence failed at  42  side 1    Res =  0.4588E+00
 MRCHDU: Convergence failed at  43  side 1    Res =  0.4184E+00
 MRCHDU: Convergence failed at  44  side 1    Res =  0.3758E+00
 MRCHDU: Convergence failed at  45  side 1    Res =  0.3313E+00
 MRCHDU: Convergence failed at  46  side 1    Res =  0.2842E+00
 MRCHDU: Convergence failed at  47  side 1    Res =  0.2339E+00
 MRCHDU: Convergence failed at  48  side 1    Res =  0.1780E+00
 MRCHDU: Convergence failed at  49  side 1    Res =  0.1092E+00
 Side 1  free  transition at x/c =  0.0259   17
 Side 2 forced transition at x/c =  1.0000   75

   4   rms: 0.4386E+00   max: -.2197E+01   T at   17  1   RLX: 0.228
       a =  5.500      CL =  0.7698
      Cm = -0.0976     CD =  0.04985   =>   CDf =  0.00222    CDp =  0.04763

 Side 1  free  transition at x/c =  0.0291   17
 Side 2 forced transition at x/c =  1.0000   75

   5   rms: 0.5332E+00   max: -.3206E+01   T at   17  1   RLX: 0.156
       a =  5.500      CL =  0.6668
      Cm = -0.0575     CD =  0.05658   =>   CDf =  0.00234    CDp =  0.05424

 Side 1  free  transition at x/c =  0.0330   17
 Side 2 forced transition at x/c =  1.0000   75

   6   rms: 0.1177E+01   max: 0.6657E+01   T at   17  1   RLX: 0.079
       a =  5.500      CL =  0.6043
      Cm = -0.0203     CD =  0.04746   =>   CDf =  0.00312    CDp =  0.04434

 Side 1  free  transition at x/c =  0.0288   17
 Side 2 forced transition at x/c =  1.0000   75

   7   rms: 0.1307E+01   max: -.5302E+01   D at   46  1   RLX: 0.094
       a =  5.500      CL =  0.6608
      Cm = -0.0250     CD =  0.03870   =>   CDf =  0.00283    CDp =  0.03587

 Side 1  free  transition at x/c =  0.0272   17
 Side 2 forced transition at x/c =  1.0000   75

   8   rms: 0.9052E+00   max: -.4196E+01   D at   49  1   RLX: 0.119
       a =  5.500      CL =  0.6823
      Cm = -0.0232     CD =  0.03521   =>   CDf =  0.00313    CDp =  0.03208

 Side 1  free  transition at x/c =  0.0268   17
 Side 2 forced transition at x/c =  1.0000   75

   9   rms: 0.7884E+00   max: -.3497E+01   D at   49  1   RLX: 0.143
       a =  5.500      CL =  0.6984
      Cm = -0.0232     CD =  0.03248   =>   CDf =  0.00345    CDp =  0.02903

 Side 1  free  transition at x/c =  0.0269   17
 Side 2 forced transition at x/c =  1.0000   75

  10   rms: 0.1146E+01   max: -.5456E+01   D at   34  1   RLX: 0.092
       a =  5.500      CL =  0.7071
      Cm = -0.0216     CD =  0.03122   =>   CDf =  0.00389    CDp =  0.02732

 MRCHDU: Convergence failed at  32  side 1    Res =  0.3595E+00
 Side 1  free  transition at x/c =  0.0268   17
 Side 2 forced transition at x/c =  1.0000   75

  11   rms: 0.4716E+00   max: -.1993E+01   D at   49  1   RLX: 0.251
       a =  5.500      CL =  0.7309
      Cm = -0.0229     CD =  0.02722   =>   CDf =  0.00481    CDp =  0.02241

 MRCHDU: Convergence failed at  33  side 1    Res =  0.4108E-01
 Side 1  free  transition at x/c =  0.0282   17
 Side 2 forced transition at x/c =  1.0000   75

  12   rms: 0.7541E+00   max: -.3355E+01   D at   54  1   RLX: 0.149
       a =  5.500      CL =  0.7464
      Cm = -0.0170     CD =  0.02404   =>   CDf =  0.00473    CDp =  0.01930

 Side 1  free  transition at x/c =  0.0271   17
 Side 2 forced transition at x/c =  1.0000   75

  13   rms: 0.8077E+00   max: -.3708E+01   D at   58  1   RLX: 0.135
       a =  5.500      CL =  0.7713
      Cm = -0.0162     CD =  0.02077   =>   CDf =  0.00502    CDp =  0.01575

 Side 1  free  transition at x/c =  0.0258   17
 Side 2 forced transition at x/c =  1.0000   75

  14   rms: 0.7405E+00   max: -.3331E+01   D at   62  1   RLX: 0.150
       a =  5.500      CL =  0.8019
      Cm = -0.0210     CD =  0.01772   =>   CDf =  0.00525    CDp =  0.01247

 Side 1  free  transition at x/c =  0.0246   17
 Side 2 forced transition at x/c =  1.0000   75

  15   rms: 0.6359E+00   max: -.2809E+01   D at   66  1   RLX: 0.178
       a =  5.500      CL =  0.8292
      Cm = -0.0269     CD =  0.01529   =>   CDf =  0.00549    CDp =  0.00980

 Side 1  free  transition at x/c =  0.0240   16
 Side 2 forced transition at x/c =  1.0000   75

  16   rms: 0.5041E+00   max: -.2175E+01   D at   70  1   RLX: 0.230
       a =  5.500      CL =  0.8523
      Cm = -0.0346     CD =  0.01337   =>   CDf =  0.00576    CDp =  0.00761

 Side 1  free  transition at x/c =  0.0239   16
 Side 2 forced transition at x/c =  1.0000   75

  17   rms: 0.2848E+00   max: -.1364E+01   D at   74  1   RLX: 0.367
       a =  5.500      CL =  0.8653
      Cm = -0.0446     CD =  0.01274   =>   CDf =  0.00603    CDp =  0.00671

 Side 1  free  transition at x/c =  0.0238   16
 Side 2 forced transition at x/c =  1.0000   75

  18   rms: 0.1651E+00   max: -.8218E+00   D at   76  1   RLX: 0.608
       a =  5.500      CL =  0.8694
      Cm = -0.0566     CD =  0.01321   =>   CDf =  0.00627    CDp =  0.00694

 Side 1  free  transition at x/c =  0.0237   16
 Side 2 forced transition at x/c =  1.0000   75

  19   rms: 0.7094E-01   max: -.4308E+00   D at   81  1
       a =  5.500      CL =  0.8691
      Cm = -0.0666     CD =  0.01391   =>   CDf =  0.00648    CDp =  0.00743

 Side 1  free  transition at x/c =  0.0236   16
 Side 2 forced transition at x/c =  1.0000   75

  20   rms: 0.2456E-01   max: -.1920E+00   C at   75  2
       a =  5.500      CL =  0.8605
      Cm = -0.0656     CD =  0.01381   =>   CDf =  0.00663    CDp =  0.00719

 Side 1  free  transition at x/c =  0.0237   16
 Side 2 forced transition at x/c =  1.0000   75

  21   rms: 0.1241E-02   max: -.9142E-02   D at   81  1
       a =  5.500      CL =  0.8595
      Cm = -0.0654     CD =  0.01381   =>   CDf =  0.00665    CDp =  0.00716

 Side 1  free  transition at x/c =  0.0237   16
 Side 2 forced transition at x/c =  1.0000   75

  22   rms: 0.5970E-05   max: -.5907E-04   D at   81  1
       a =  5.500      CL =  0.8595
      Cm = -0.0654     CD =  0.01381   =>   CDf =  0.00665    CDp =  0.00716
 plradd ia,ip,cpol           20           0  3.03042191E-03

 Point added to stored polar  1
 Point written to save file  naca65410_Re600k.base.pol                       
 Dump file unspecified or not available
 Calculating wake trajectory ...
 Calculating source influence matrix ...

 Solving BL system ...

 Side 1  free  transition at x/c =  0.0237   16
 Side 2 forced transition at x/c =  1.0000   75

   1   rms: 0.9003E-01   max: 0.4002E+00   T at   16  1
       a =  6.000      CL =  0.9099
      Cm = -0.0650     CD =  0.01478   =>   CDf =  0.00650    CDp =  0.00828

 Side 1  free  transition at x/c =  0.0221   17
 Side 2 forced transition at x/c =  1.0000   74

   2   rms: 0.1094E-01   max: 0.1017E+00   D at   17  1
       a =  6.000      CL =  0.9065
      Cm = -0.0644     CD =  0.01505   =>   CDf =  0.00656    CDp =  0.00849

 Side 1  free  transition at x/c =  0.0220   17
 Side 2 forced transition at x/c =  1.0000   74

   3   rms: 0.1339E-02   max: -.1418E-01   D at    4  1
       a =  6.000      CL =  0.9065
      Cm = -0.0644     CD =  0.01503   =>   CDf =  0.00654    CDp =  0.00849

 Side 1  free  transition at x/c =  0.0220   17
 Side 2 forced transition at x/c =  1.0000   74

   4   rms: 0.4808E-05   max: -.2224E-04   D at    9  1
       a =  6.000      CL =  0.9065
      Cm = -0.0644     CD =  0.01503   =>   CDf =  0.00654    CDp =  0.00849
 plradd ia,ip,cpol           21           0  1.62329304E-03

 Point added to stored polar  1
 Point written to save file  naca65410_Re600k.base.pol                       
 Dump file unspecified or not available
 Calculating wake trajectory ...
 Calculating source influence matrix ...

 Solving BL system ...

 Side 1  free  transition at x/c =  0.0220   17
 Side 2 forced transition at x/c =  1.0000   74

   1   rms: 0.9372E-01   max: -.2155E+00   C at   74  2
       a =  6.500      CL =  0.9517
      Cm = -0.0630     CD =  0.01652   =>   CDf =  0.00654    CDp =  0.00998

 Side 1  free  transition at x/c =  0.0207   17
 Side 2 forced transition at x/c =  1.0000   74

   2   rms: 0.4172E-02   max: -.1568E-01   D at   18  1
       a =  6.500      CL =  0.9505
      Cm = -0.0628     CD =  0.01662   =>   CDf =  0.00644    CDp =  0.01018

 Side 1  free  transition at x/c =  0.0205   17
 Side 2 forced transition at x/c =  1.0000   74

   3   rms: 0.1874E-03   max: 0.1414E-02   T at   17  1
       a =  6.500      CL =  0.9505
      Cm = -0.0628     CD =  0.01662   =>   CDf =  0.00643    CDp =  0.01019

 Side 1  free  transition at x/c =  0.0205   17
 Side 2 forced transition at x/c =  1.0000   74

   4   rms: 0.2276E-05   max: -.7082E-05   C at   86  2
       a =  6.500      CL =  0.9505
      Cm = -0.0628     CD =  0.01662   =>   CDf =  0.00643    CDp =  0.01019
 plradd ia,ip,cpol           22           0  6.69231871E-04

 Point added to stored polar  1
 Point written to save file  naca65410_Re600k.base.pol                       
 Dump file unspecified or not available
 Calculating wake trajectory ...
 Calculating source influence matrix ...

 Solving BL system ...

 Side 1  free  transition at x/c =  0.0205   17
 Side 2 forced transition at x/c =  1.0000   74

   1   rms: 0.9369E-01   max: -.1814E+00   C at   74  2
       a =  7.000      CL =  0.9949
      Cm = -0.0613     CD =  0.01839   =>   CDf =  0.00644    CDp =  0.01195

 Side 1  free  transition at x/c =  0.0192   17
 Side 2 forced transition at x/c =  1.0000   74

   2   rms: 0.1393E-01   max: -.7424E-01   D at   18  1
       a =  7.000      CL =  0.9946
      Cm = -0.0612     CD =  0.01837   =>   CDf =  0.00632    CDp =  0.01206

 Side 1  free  transition at x/c =  0.0190   17
 Side 2 forced transition at x/c =  1.0000   74

   3   rms: 0.4167E-03   max: 0.2034E-02   T at   17  1
       a =  7.000      CL =  0.9949
      Cm = -0.0613     CD =  0.01839   =>   CDf =  0.00633    CDp =  0.01206

 Side 1  free  transition at x/c =  0.0190   17
 Side 2 forced transition at x/c =  1.0000   74

   4   rms: 0.4189E-05   max: 0.1241E-04   C at   87  2
       a =  7.000      CL =  0.9949
      Cm = -0.0613     CD =  0.01839   =>   CDf =  0.00633    CDp =  0.01206
 plradd ia,ip,cpol           23           0  6.69231871E-04

 Point added to stored polar  1
 Point written to save file  naca65410_Re600k.base.pol                       
 Dump file unspecified or not available
 Calculating wake trajectory ...
 Calculating source influence matrix ...

 Solving BL system ...

 Side 1  free  transition at x/c =  0.0190   17
 Side 2 forced transition at x/c =  1.0000   74

   1   rms: 0.8749E-01   max: 0.3660E+00   T at   17  1
       a =  7.500      CL =  1.0411
      Cm = -0.0603     CD =  0.01996   =>   CDf =  0.00612    CDp =  0.01384

 Side 1  free  transition at x/c =  0.0174   18
 Side 2 forced transition at x/c =  1.0000   73

   2   rms: 0.1200E-01   max: -.1044E+00   D at    3  1
       a =  7.500      CL =  1.0396
      Cm = -0.0601     CD =  0.02067   =>   CDf =  0.00624    CDp =  0.01443

 Side 1  free  transition at x/c =  0.0174   18
 Side 2 forced transition at x/c =  1.0000   73

   3   rms: 0.9960E-03   max: -.9110E-02   D at    4  1
       a =  7.500      CL =  1.0397
      Cm = -0.0601     CD =  0.02069   =>   CDf =  0.00625    CDp =  0.01444

 Side 1  free  transition at x/c =  0.0174   18
 Side 2 forced transition at x/c =  1.0000   73

   4   rms: 0.9677E-05   max: -.3574E-04   C at   73  2
       a =  7.500      CL =  1.0396
      Cm = -0.0601     CD =  0.02069   =>   CDf =  0.00625    CDp =  0.01444
 plradd ia,ip,cpol           24           0  1.05254170E-04

 Point added to stored polar  1
 Point written to save file  naca65410_Re600k.base.pol                       
 Dump file unspecified or not available
 Calculating wake trajectory ...
 Calculating source influence matrix ...

 Solving BL system ...

 Side 1  free  transition at x/c =  0.0174   18
 Side 2 forced transition at x/c =  1.0000   73

   1   rms: 0.1312E+00   max: 0.3512E+00   D at   21  1
       a =  8.000      CL =  1.0881
      Cm = -0.0596     CD =  0.02467   =>   CDf =  0.00625    CDp =  0.01841

 Side 1  free  transition at x/c =  0.0166   18
 Side 2 forced transition at x/c =  1.0000   73

   2   rms: 0.2303E-01   max: -.4070E-01   D at   20  1
       a =  8.000      CL =  1.0885
      Cm = -0.0597     CD =  0.02822   =>   CDf =  0.00578    CDp =  0.02245

 Side 1  free  transition at x/c =  0.0164   17
 Side 2 forced transition at x/c =  1.0000   73

   3   rms: 0.4462E-01   max: 0.2684E+00   T at   17  1
       a =  8.000      CL =  1.0865
      Cm = -0.0593     CD =  0.02529   =>   CDf =  0.00583    CDp =  0.01945

 Side 1  free  transition at x/c =  0.0163   17
 Side 2 forced transition at x/c =  1.0000   73

   4   rms: 0.5511E-01   max: 0.2184E+00   D at   20  1
       a =  8.000      CL =  1.0897
      Cm = -0.0598     CD =  0.02655   =>   CDf =  0.00601    CDp =  0.02055

 Side 1  free  transition at x/c =  0.0163   17
 Side 2 forced transition at x/c =  1.0000   73

   5   rms: 0.8490E-02   max: 0.2785E-01   D at   18  1
       a =  8.000      CL =  1.0883
      Cm = -0.0596     CD =  0.02670   =>   CDf =  0.00586    CDp =  0.02084

 Side 1  free  transition at x/c =  0.0163   17
 Side 2 forced transition at x/c =  1.0000   73

   6   rms: 0.4225E-03   max: -.2066E-02   T at   17  1
       a =  8.000      CL =  1.0882
      Cm = -0.0596     CD =  0.02671   =>   CDf =  0.00585    CDp =  0.02086

 Side 1  free  transition at x/c =  0.0163   17
 Side 2 forced transition at x/c =  1.0000   73

   7   rms: 0.1414E-04   max: -.6518E-04   T at   17  1
       a =  8.000      CL =  1.0882
      Cm = -0.0596     CD =  0.02671   =>   CDf =  0.00585    CDp =  0.02086
 plradd ia,ip,cpol           25           0  1.05254170E-04

 Point added to stored polar  1
 Point written to save file  naca65410_Re600k.base.pol                       
 Dump file unspecified or not available
 Calculating wake trajectory ...
 Calculating source influence matrix ...

 Solving BL system ...

 Side 1  free  transition at x/c =  0.0163   17
 Side 2 forced transition at x/c =  1.0000   73

   1   rms: 0.1146E+00   max: 0.8437E+00   T at   17  1   RLX: 0.894
       a =  8.500      CL =  1.1235
      Cm = -0.0574     CD =  0.02436   =>   CDf =  0.00585    CDp =  0.01851

 Side 1  free  transition at x/c =  0.0155   17
 Side 2 forced transition at x/c =  1.0000   73

   2   rms: 0.2930E-01   max: 0.3271E+00   D at   17  1
       a =  8.500      CL =  1.1317
      Cm = -0.0579     CD =  0.02805   =>   CDf =  0.00571    CDp =  0.02234

 Side 1  free  transition at x/c =  0.0151   17
 Side 2 forced transition at x/c =  1.0000   73

   3   rms: 0.3286E-02   max: -.4462E-01   D at   18  1
       a =  8.500      CL =  1.1311
      Cm = -0.0579     CD =  0.02772   =>   CDf =  0.00560    CDp =  0.02212

 Side 1  free  transition at x/c =  0.0151   17
 Side 2 forced transition at x/c =  1.0000   73

   4   rms: 0.2390E-03   max: 0.8771E-03   D at   18  1
       a =  8.500      CL =  1.1311
      Cm = -0.0579     CD =  0.02771   =>   CDf =  0.00557    CDp =  0.02214

 Side 1  free  transition at x/c =  0.0151   17
 Side 2 forced transition at x/c =  1.0000   73

   5   rms: 0.6944E-05   max: -.3086E-04   C at   73  2
       a =  8.500      CL =  1.1311
      Cm = -0.0579     CD =  0.02771   =>   CDf =  0.00557    CDp =  0.02214
 plradd ia,ip,cpol           26           0  1.05254170E-04

 Point added to stored polar  1
 Point written to save file  naca65410_Re600k.base.pol                       
 Dump file unspecified or not available
 Calculating wake trajectory ...
 Calculating source influence matrix ...

 Solving BL system ...

 Side 1  free  transition at x/c =  0.0151   17
 Side 2 forced transition at x/c =  1.0000   73

   1   rms: 0.9593E-01   max: 0.3085E+00   T at   17  1
       a =  9.000      CL =  1.1744
      Cm = -0.0563     CD =  0.03132   =>   CDf =  0.00531    CDp =  0.02602

 Side 1  free  transition at x/c =  0.0141   18
 Side 2 forced transition at x/c =  1.0000   72

   2   rms: 0.1590E-01   max: -.8760E-01   D at    3  1
       a =  9.000      CL =  1.1685
      Cm = -0.0555     CD =  0.03194   =>   CDf =  0.00500    CDp =  0.02695

 Side 1  free  transition at x/c =  0.0140   18
 Side 2 forced transition at x/c =  1.0000   72

   3   rms: 0.1336E-02   max: -.1161E-01   D at    4  1
       a =  9.000      CL =  1.1684
      Cm = -0.0555     CD =  0.03195   =>   CDf =  0.00507    CDp =  0.02688

 Side 1  free  transition at x/c =  0.0140   18
 Side 2 forced transition at x/c =  1.0000   72

   4   rms: 0.1882E-04   max: 0.7713E-04   C at   72  2
       a =  9.000      CL =  1.1684
      Cm = -0.0555     CD =  0.03195   =>   CDf =  0.00507    CDp =  0.02688
 plradd ia,ip,cpol           27           0  1.05254170E-04

 Point added to stored polar  1
 Point written to save file  naca65410_Re600k.base.pol                       
 Dump file unspecified or not available
 Calculating wake trajectory ...
 Calculating source influence matrix ...

 Solving BL system ...

 Side 1  free  transition at x/c =  0.0140   18
 Side 2 forced transition at x/c =  1.0000   72

   1   rms: 0.1034E+00   max: 0.2780E+00   T at   18  1
       a =  9.500      CL =  1.2024
      Cm = -0.0528     CD =  0.03701   =>   CDf =  0.00507    CDp =  0.03194

 Side 1  free  transition at x/c =  0.0131   18
 Side 2 forced transition at x/c =  1.0000   72

   2   rms: 0.5573E-01   max: -.1840E+00   D at   24  1
       a =  9.500      CL =  1.1992
      Cm = -0.0526     CD =  0.03529   =>   CDf =  0.00435    CDp =  0.03094

 Side 1  free  transition at x/c =  0.0129   18
 Side 2 forced transition at x/c =  1.0000   72

   3   rms: 0.4494E-02   max: 0.2355E-01   D at   21  1
       a =  9.500      CL =  1.1981
      Cm = -0.0525     CD =  0.03580   =>   CDf =  0.00468    CDp =  0.03112

 Side 1  free  transition at x/c =  0.0129   18
 Side 2 forced transition at x/c =  1.0000   72

   4   rms: 0.1702E-03   max: 0.5319E-03   D at   23  1
       a =  9.500      CL =  1.1980
      Cm = -0.0525     CD =  0.03580   =>   CDf =  0.00467    CDp =  0.03112

 Side 1  free  transition at x/c =  0.0129   18
 Side 2 forced transition at x/c =  1.0000   72

   5   rms: 0.6631E-05   max: -.2192E-04   C at   72  2
       a =  9.500      CL =  1.1980
      Cm = -0.0525     CD =  0.03580   =>   CDf =  0.00467    CDp =  0.03112
 plradd ia,ip,cpol           28           0  1.05254170E-04

 Point added to stored polar  1
 Point written to save file  naca65410_Re600k.base.pol                       
 Dump file unspecified or not available
 Calculating wake trajectory ...
 Calculating source influence matrix ...

 Solving BL system ...

 Side 1  free  transition at x/c =  0.0129   18
 Side 2 forced transition at x/c =  1.0000   72

   1   rms: 0.7994E-01   max: 0.3997E+00   T at   18  1
       a = 10.000      CL =  1.2300
      Cm = -0.0505     CD =  0.03655   =>   CDf =  0.00467    CDp =  0.03187

 Side 1  free  transition at x/c =  0.0116   18
 Side 2 forced transition at x/c =  1.0000   72

   2   rms: 0.9757E-01   max: -.2799E+00   D at   24  1
       a = 10.000      CL =  1.2287
      Cm = -0.0501     CD =  0.03712   =>   CDf =  0.00403    CDp =  0.03309

 Side 1  free  transition at x/c =  0.0116   18
 Side 2 forced transition at x/c =  1.0000   72

   3   rms: 0.8239E-02   max: -.4066E-01   D at   82  1
       a = 10.000      CL =  1.2252
      Cm = -0.0501     CD =  0.03749   =>   CDf =  0.00457    CDp =  0.03292

 Side 1  free  transition at x/c =  0.0117   18
 Side 2 forced transition at x/c =  1.0000   72

   4   rms: 0.1696E-02   max: 0.6993E-02   D at   19  1
       a = 10.000      CL =  1.2249
      Cm = -0.0501     CD =  0.03759   =>   CDf =  0.00460    CDp =  0.03299

 Side 1  free  transition at x/c =  0.0117   18
 Side 2 forced transition at x/c =  1.0000   72

   5   rms: 0.5949E-04   max: -.2860E-03   T at   18  1
       a = 10.000      CL =  1.2249
      Cm = -0.0501     CD =  0.03758   =>   CDf =  0.00460    CDp =  0.03299
 plradd ia,ip,cpol           29           0 -9.45238353E-05

 Point added to stored polar  1
 Point written to save file  naca65410_Re600k.base.pol                       
 Dump file unspecified or not available

.OPERva   c>  
 Solving BL system ...

 Side 1  free  transition at x/c =  0.0117   18
 Side 2 forced transition at x/c =  1.0000   72

   1   rms: 0.1068E-05   max: 0.7638E-05   T at   18  1
       a = 10.000      CL =  1.2249
      Cm = -0.0501     CD =  0.03758   =>   CDf =  0.00460    CDp =  0.03299
 plradd ia,ip,cpol           30         182 -9.45238353E-05

 Point added to stored polar  1
 Point written to save file  naca65410_Re600k.base.pol                       
 Dump file unspecified or not available
 Calculating wake trajectory ...
 Calculating source influence matrix ...

 Solving BL system ...

 Side 1  free  transition at x/c =  0.0117   18
 Side 2 forced transition at x/c =  1.0000   72

   1   rms: 0.7235E-01   max: 0.2500E+00   T at   18  1
       a = 10.250      CL =  1.2251
      Cm = -0.0475     CD =  0.04226   =>   CDf =  0.00460    CDp =  0.03766

 Side 1  free  transition at x/c =  0.0112   17
 Side 2 forced transition at x/c =  1.0000   72

   2   rms: 0.1851E+01   max: 0.8932E+01   T at   17  1   RLX: 0.082
       a = 10.250      CL =  1.2817
      Cm = -0.0540     CD =  0.03470   =>   CDf =  0.00347    CDp =  0.03124

 MRCHDU: Convergence failed at  74  side 1    Res =  0.3102E+01
 MRCHDU: Convergence failed at  75  side 1    Res =  0.4339E+01
 MRCHDU: Convergence failed at  76  side 1    Res =  0.2424E+02
 MRCHDU: Convergence failed at  77  side 1    Res =  0.7059E+01
 MRCHDU: Convergence failed at  78  side 1    Res =  0.4318E+01
 MRCHDU: Convergence failed at  79  side 1    Res =  0.3220E+01
 MRCHDU: Convergence failed at  80  side 1    Res =  0.2571E+01
 MRCHDU: Convergence failed at  81  side 1    Res =  0.2267E+01
 MRCHDU: Convergence failed at  82  side 1    Res =  0.2069E+01
 MRCHDU: Convergence failed at  83  side 1    Res =  0.1953E+01
 MRCHDU: Convergence failed at  84  side 1    Res =  0.1849E+01
 MRCHDU: Convergence failed at  85  side 1    Res =  0.1726E+01
 MRCHDU: Convergence failed at  86  side 1    Res =  0.1669E+01
 MRCHDU: Convergence failed at  87  side 1    Res =  0.1627E+01
 MRCHDU: Convergence failed at  88  side 1    Res =  0.1595E+01
 MRCHDU: Convergence failed at  89  side 1    Res =  0.1566E+01
 MRCHDU: Convergence failed at  90  side 1    Res =  0.1564E+01
 Side 1  free  transition at x/c =  0.0112   17
 Side 2 forced transition at x/c =  1.0000   72

   3   rms: 0.2472E+00   max: -.6585E+00   D at   66  1   RLX: 0.759
       a = 10.250      CL =  1.2268
      Cm = -0.0480     CD =  0.04247   =>   CDf =  0.00255    CDp =  0.03993

 Side 1  free  transition at x/c =  0.0112   17
 Side 2 forced transition at x/c =  1.0000   72

   4   rms: 0.1406E+00   max: 0.6893E+00   D at   90  1
       a = 10.250      CL =  1.2670
      Cm = -0.0554     CD =  0.04290   =>   CDf =  0.00448    CDp =  0.03842

 Side 1  free  transition at x/c =  0.0107   17
 Side 2 forced transition at x/c =  1.0000   72

   5   rms: 0.7029E-01   max: 0.2318E+00   D at   82  2
       a = 10.250      CL =  1.2165
      Cm = -0.0465     CD =  0.04235   =>   CDf =  0.00367    CDp =  0.03868

 Side 1  free  transition at x/c =  0.0111   17
 Side 2 forced transition at x/c =  1.0000   72

   6   rms: 0.7526E-01   max: 0.2150E+00   D at   21  1
       a = 10.250      CL =  1.2073
      Cm = -0.0454     CD =  0.04536   =>   CDf =  0.00440    CDp =  0.04096

 Side 1  free  transition at x/c =  0.0112   17
 Side 2 forced transition at x/c =  1.0000   72

   7   rms: 0.6071E-01   max: -.3059E+00   T at   17  1
       a = 10.250      CL =  1.1883
      Cm = -0.0441     CD =  0.04906   =>   CDf =  0.00398    CDp =  0.04508

 Side 1  free  transition at x/c =  0.0111   17
 Side 2 forced transition at x/c =  1.0000   72

   8   rms: 0.2407E+00   max: 0.7385E+00   D at   20  1
       a = 10.250      CL =  1.2801
      Cm = -0.0556     CD =  0.03868   =>   CDf =  0.00544    CDp =  0.03324

 Side 1  free  transition at x/c =  0.0108   17
 Side 2 forced transition at x/c =  1.0000   72

   9   rms: 0.1249E+00   max: 0.3808E+00   D at   84  2
       a = 10.250      CL =  1.2127
      Cm = -0.0463     CD =  0.04349   =>   CDf =  0.00406    CDp =  0.03943

 Side 1  free  transition at x/c =  0.0111   17
 Side 2 forced transition at x/c =  1.0000   72

  10   rms: 0.6518E-01   max: 0.2268E+00   D at   86  1
       a = 10.250      CL =  1.2081
      Cm = -0.0454     CD =  0.04530   =>   CDf =  0.00443    CDp =  0.04087

 Side 1  free  transition at x/c =  0.0112   17
 Side 2 forced transition at x/c =  1.0000   72

  11   rms: 0.6019E-01   max: -.3156E+00   T at   17  1
       a = 10.250      CL =  1.1877
      Cm = -0.0441     CD =  0.04907   =>   CDf =  0.00395    CDp =  0.04512

 Side 1  free  transition at x/c =  0.0111   17
 Side 2 forced transition at x/c =  1.0000   72

  12   rms: 0.2431E+00   max: 0.7447E+00   D at   20  1
       a = 10.250      CL =  1.2810
      Cm = -0.0557     CD =  0.03859   =>   CDf =  0.00545    CDp =  0.03315

[...]
 MRCHDU: Convergence failed at  86  side 2    Res =  0.6232E-01
 MRCHDU: Convergence failed at  87  side 2    Res =  0.7467E-01
 MRCHDU: Convergence failed at  89  side 2    Res =  0.1107E-04
 MRCHDU: Convergence failed at  90  side 2    Res =  0.2059E-03
 Side 1  free  transition at x/c =  0.0188   17
 Side 2 forced transition at x/c =  1.0000   74

 123   rms: 0.1739E+06   max: 0.1388E+07   C at   89  2   RLX: 0.000
       a = 13.000      CL =  0.6264
      Cm = -0.0295     CD = 90.80838   =>   CDf =  0.00187    CDp = 90.80651

 MRCHDU: Convergence failed at  85  side 2    Res =  0.3768E-01
 MRCHDU: Convergence failed at  86  side 2    Res =  0.6204E-01
 MRCHDU: Convergence failed at  87  side 2    Res =  0.7816E-01
 MRCHDU: Convergence failed at  89  side 2    Res =  0.1111E-04
 MRCHDU: Convergence failed at  90  side 2    Res =  0.2058E-03
 Side 1  free  transition at x/c =  0.0188   17
 Side 2 forced transition at x/c =  1.0000   74

 124   rms: 0.1949E+06   max: -.1549E+07   C at   89  2   RLX: 0.000
       a = 13.000      CL =  0.6266
      Cm = -0.0295     CD = 89.45727   =>   CDf =  0.00187    CDp = 89.45540

 MRCHDU: Convergence failed at  85  side 2    Res =  0.3768E-01
 MRCHDU: Convergence failed at  86  side 2    Res =  0.6227E-01
 MRCHDU: Convergence failed at  87  side 2    Res =  0.7541E-01
 MRCHDU: Convergence failed at  89  side 2    Res =  0.1108E-04
 MRCHDU: Convergence failed at  90  side 2    Res =  0.2059E-03
 Side 1  free  transition at x/c =  0.0188   17
 Side 2 forced transition at x/c =  1.0000   74

 125   rms: 0.6304E+06   max: 0.5041E+07   C at   89  2   RLX: 0.000
       a = 13.000      CL =  0.6265
      Cm = -0.0295     CD = 90.51778   =>   CDf =  0.00187    CDp = 90.51591

 MRCHDU: Convergence failed at  85  side 2    Res =  0.3768E-01
 MRCHDU: Convergence failed at  86  side 2    Res =  0.6219E-01
 MRCHDU: Convergence failed at  87  side 2    Res =  0.7640E-01
 MRCHDU: Convergence failed at  89  side 2    Res =  0.1109E-04
 MRCHDU: Convergence failed at  90  side 2    Res =  0.2059E-03
 Side 1  free  transition at x/c =  0.0188   17
 Side 2 forced transition at x/c =  1.0000   74

 126   rms: 0.4340E+08   max: 0.3477E+09   C at   89  2   RLX: 0.000
       a = 13.000      CL =  0.6265
      Cm = -0.0295     CD = 90.15510   =>   CDf =  0.00187    CDp = 90.15323

 MRCHDU: Convergence failed at  85  side 2    Res =  0.3767E-01
 MRCHDU: Convergence failed at  86  side 2    Res =  0.6219E-01
 MRCHDU: Convergence failed at  87  side 2    Res =  0.7642E-01
 MRCHDU: Convergence failed at  89  side 2    Res =  0.1109E-04
 MRCHDU: Convergence failed at  90  side 2    Res =  0.2059E-03
 Side 1  free  transition at x/c =  0.0188   17
 Side 2 forced transition at x/c =  1.0000   74

 127   rms: 0.1523E+06   max: 0.1205E+07   C at   89  2   RLX: 0.000
       a = 13.000      CL =  0.6263
      Cm = -0.0295     CD = 90.26054   =>   CDf =  0.00187    CDp = 90.25867

 MRCHDU: Convergence failed at  85  side 2    Res =  0.3769E-01
 MRCHDU: Convergence failed at  86  side 2    Res =  0.6193E-01
 MRCHDU: Convergence failed at  87  side 2    Res =  0.7964E-01
 MRCHDU: Convergence failed at  89  side 2    Res =  0.1113E-04
 MRCHDU: Convergence failed at  90  side 2    Res =  0.2058E-03
 Side 1  free  transition at x/c =  0.0188   17
 Side 2 forced transition at x/c =  1.0000   74

 128   rms: 0.2303E+06   max: -.1834E+07   C at   89  2   RLX: 0.000
       a = 13.000      CL =  0.6265
      Cm = -0.0295     CD = 89.02604   =>   CDf =  0.00187    CDp = 89.02417

 MRCHDU: Convergence failed at  85  side 2    Res =  0.3768E-01
 MRCHDU: Convergence failed at  86  side 2    Res =  0.6214E-01
 MRCHDU: Convergence failed at  87  side 2    Res =  0.7716E-01
 MRCHDU: Convergence failed at  89  side 2    Res =  0.1110E-04
 MRCHDU: Convergence failed at  90  side 2    Res =  0.2059E-03
 Side 1  free  transition at x/c =  0.0188   17
 Side 2 forced transition at x/c =  1.0000   74

 129   rms: 0.1019E+06   max: 0.8053E+06   C at   89  2   RLX: 0.000
       a = 13.000      CL =  0.6262
      Cm = -0.0295     CD = 90.08305   =>   CDf =  0.00187    CDp = 90.08118

 MRCHDU: Convergence failed at  85  side 2    Res =  0.3769E-01
 MRCHDU: Convergence failed at  86  side 2    Res =  0.6177E-01
 MRCHDU: Convergence failed at  87  side 2    Res =  0.8184E-01
 MRCHDU: Convergence failed at  89  side 2    Res =  0.1115E-04
 MRCHDU: Convergence failed at  90  side 2    Res =  0.2057E-03
 Side 1  free  transition at x/c =  0.0188   17
 Side 2 forced transition at x/c =  1.0000   74

 130   rms: 0.1933E+06   max: -.1532E+07   C at   89  2   RLX: 0.000
       a = 13.000      CL =  0.6264
      Cm = -0.0295     CD = 88.36580   =>   CDf =  0.00187    CDp = 88.36393

 MRCHDU: Convergence failed at  85  side 2    Res =  0.3769E-01
 MRCHDU: Convergence failed at  86  side 2    Res =  0.6199E-01
 MRCHDU: Convergence failed at  87  side 2    Res =  0.7921E-01
 MRCHDU: Convergence failed at  89  side 2    Res =  0.1112E-04
 MRCHDU: Convergence failed at  90  side 2    Res =  0.2058E-03
 Side 1  free  transition at x/c =  0.0188   17
 Side 2 forced transition at x/c =  1.0000   74

 131   rms: 0.2329E+06   max: -.1858E+07   C at   89  2   RLX: 0.000
       a = 13.000      CL =  0.6265
      Cm = -0.0295     CD = 89.21632   =>   CDf =  0.00187    CDp = 89.21445

 MRCHDU: Convergence failed at  85  side 2    Res =  0.3768E-01
 MRCHDU: Convergence failed at  86  side 2    Res =  0.6220E-01
 MRCHDU: Convergence failed at  87  side 2    Res =  0.7674E-01
 MRCHDU: Convergence failed at  89  side 2    Res =  0.1109E-04
 MRCHDU: Convergence failed at  90  side 2    Res =  0.2059E-03
 Side 1  free  transition at x/c =  0.0188   17
 Side 2 forced transition at x/c =  1.0000   74

 132   rms: 0.2111E+06   max: -.1696E+07   C at   89  2   RLX: 0.000
       a = 13.000      CL =  0.6266
      Cm = -0.0295     CD = 90.00462   =>   CDf =  0.00187    CDp = 90.00275

 MRCHDU: Convergence failed at  85  side 2    Res =  0.3766E-01
 MRCHDU: Convergence failed at  86  side 2    Res =  0.6248E-01
 MRCHDU: Convergence failed at  87  side 2    Res =  0.7340E-01
 MRCHDU: Convergence failed at  89  side 2    Res =  0.1105E-04
 MRCHDU: Convergence failed at  90  side 2    Res =  0.2060E-03
 Side 1  free  transition at x/c =  0.0188   17
 Side 2 forced transition at x/c =  1.0000   74

 133   rms: 0.1087E+06   max: 0.8665E+06   C at   89  2   RLX: 0.000
       a = 13.000      CL =  0.6264
      Cm = -0.0295     CD = 91.42801   =>   CDf =  0.00187    CDp = 91.42614

 MRCHDU: Convergence failed at  85  side 2    Res =  0.3768E-01
 MRCHDU: Convergence failed at  86  side 2    Res =  0.6206E-01
 MRCHDU: Convergence failed at  87  side 2    Res =  0.7883E-01
 MRCHDU: Convergence failed at  89  side 2    Res =  0.1111E-04
 MRCHDU: Convergence failed at  90  side 2    Res =  0.2058E-03
 Side 1  free  transition at x/c =  0.0188   17
 Side 2 forced transition at x/c =  1.0000   74

 134   rms: 0.2315E+06   max: -.1850E+07   C at   89  2   RLX: 0.000
       a = 13.000      CL =  0.6265
      Cm = -0.0295     CD = 89.38008   =>   CDf =  0.00187    CDp = 89.37821

 MRCHDU: Convergence failed at  85  side 2    Res =  0.3768E-01
 MRCHDU: Convergence failed at  86  side 2    Res =  0.6229E-01
 MRCHDU: Convergence failed at  87  side 2    Res =  0.7610E-01
 MRCHDU: Convergence failed at  89  side 2    Res =  0.1108E-04
 MRCHDU: Convergence failed at  90  side 2    Res =  0.2059E-03
 Side 1  free  transition at x/c =  0.0188   17
 Side 2 forced transition at x/c =  1.0000   74

 135   rms: 0.5112E+05   max: 0.4012E+06   C at   89  2   RLX: 0.000
       a = 13.000      CL =  0.6260
      Cm = -0.0295     CD = 90.68137   =>   CDf =  0.00187    CDp = 90.67950

 MRCHDU: Convergence failed at  85  side 2    Res =  0.3770E-01
 MRCHDU: Convergence failed at  86  side 2    Res =  0.6164E-01
 MRCHDU: Convergence failed at  87  side 2    Res =  0.8461E-01
 MRCHDU: Convergence failed at  89  side 2    Res =  0.1118E-04
 MRCHDU: Convergence failed at  90  side 2    Res =  0.2057E-03
 Side 1  free  transition at x/c =  0.0188   17
 Side 2 forced transition at x/c =  1.0000   74

 136   rms: 0.5740E+05   max: -.4580E+06   C at   89  2   RLX: 0.000
       a = 13.000      CL =  0.6265
      Cm = -0.0295     CD = 87.41714   =>   CDf =  0.00187    CDp = 87.41528

 MRCHDU: Convergence failed at  85  side 2    Res =  0.3766E-01
 MRCHDU: Convergence failed at  86  side 2    Res =  0.6260E-01
 MRCHDU: Convergence failed at  87  side 2    Res =  0.7396E-01
 MRCHDU: Convergence failed at  89  side 2    Res =  0.1104E-04
 MRCHDU: Convergence failed at  90  side 2    Res =  0.2060E-03
 Side 1  free  transition at x/c =  0.0188   17
 Side 2 forced transition at x/c =  1.0000   74

 137   rms: 0.1168E+06   max: 0.9329E+06   C at   89  2   RLX: 0.000
       a = 13.000      CL =  0.6263
      Cm = -0.0295     CD = 91.53905   =>   CDf =  0.00187    CDp = 91.53718

 MRCHDU: Convergence failed at  85  side 2    Res =  0.3767E-01
 MRCHDU: Convergence failed at  86  side 2    Res =  0.6218E-01
 MRCHDU: Convergence failed at  87  side 2    Res =  0.7943E-01
 MRCHDU: Convergence failed at  89  side 2    Res =  0.1111E-04
 MRCHDU: Convergence failed at  90  side 2    Res =  0.2058E-03
 Side 1  free  transition at x/c =  0.0188   17
 Side 2 forced transition at x/c =  1.0000   74

 138   rms: 0.5123E+06   max: -.4068E+07   C at   89  2   RLX: 0.000
       a = 13.000      CL =  0.6263
      Cm = -0.0295     CD = 89.54697   =>   CDf =  0.00187    CDp = 89.54510

 MRCHDU: Convergence failed at  85  side 2    Res =  0.3767E-01
 MRCHDU: Convergence failed at  86  side 2    Res =  0.6226E-01
 MRCHDU: Convergence failed at  87  side 2    Res =  0.7837E-01
 MRCHDU: Convergence failed at  89  side 2    Res =  0.1110E-04
 MRCHDU: Convergence failed at  90  side 2    Res =  0.2058E-03
 Side 1  free  transition at x/c =  0.0188   17
 Side 2 forced transition at x/c =  1.0000   74

 139   rms: 0.5336E+06   max: -.4265E+07   C at   89  2   RLX: 0.000
       a = 13.000      CL =  0.6264
      Cm = -0.0295     CD = 89.89480   =>   CDf =  0.00187    CDp = 89.89293

 MRCHDU: Convergence failed at  85  side 2    Res =  0.3767E-01
 MRCHDU: Convergence failed at  86  side 2    Res =  0.6236E-01
 MRCHDU: Convergence failed at  87  side 2    Res =  0.7722E-01
 MRCHDU: Convergence failed at  89  side 2    Res =  0.1108E-04
 MRCHDU: Convergence failed at  90  side 2    Res =  0.2059E-03
 Side 1  free  transition at x/c =  0.0188   17
 Side 2 forced transition at x/c =  1.0000   74

 140   rms: 0.1549E+07   max: -.1243E+08   C at   89  2   RLX: 0.000
       a = 13.000      CL =  0.6264
      Cm = -0.0295     CD = 90.29267   =>   CDf =  0.00187    CDp = 90.29080

 MRCHDU: Convergence failed at  85  side 2    Res =  0.3767E-01
 MRCHDU: Convergence failed at  86  side 2    Res =  0.6240E-01
 MRCHDU: Convergence failed at  87  side 2    Res =  0.7675E-01
 MRCHDU: Convergence failed at  89  side 2    Res =  0.1108E-04
 MRCHDU: Convergence failed at  90  side 2    Res =  0.2059E-03
 Side 1  free  transition at x/c =  0.0188   17
 Side 2 forced transition at x/c =  1.0000   74

 141   rms: 0.7097E+07   max: 0.5665E+08   C at   89  2   RLX: 0.000
       a = 13.000      CL =  0.6264
      Cm = -0.0295     CD = 90.46383   =>   CDf =  0.00187    CDp = 90.46196

 MRCHDU: Convergence failed at  85  side 2    Res =  0.3767E-01
 MRCHDU: Convergence failed at  86  side 2    Res =  0.6239E-01
 MRCHDU: Convergence failed at  87  side 2    Res =  0.7684E-01
 MRCHDU: Convergence failed at  89  side 2    Res =  0.1108E-04
 MRCHDU: Convergence failed at  90  side 2    Res =  0.2059E-03
 Side 1  free  transition at x/c =  0.0188   17
 Side 2 forced transition at x/c =  1.0000   74

 142   rms: 0.5118E+07   max: -.4082E+08   C at   89  2   RLX: 0.000
       a = 13.000      CL =  0.6264
      Cm = -0.0295     CD = 90.42934   =>   CDf =  0.00187    CDp = 90.42747

 MRCHDU: Convergence failed at  85  side 2    Res =  0.3767E-01
 MRCHDU: Convergence failed at  86  side 2    Res =  0.6240E-01
 MRCHDU: Convergence failed at  87  side 2    Res =  0.7672E-01
 MRCHDU: Convergence failed at  89  side 2    Res =  0.1107E-04
 MRCHDU: Convergence failed at  90  side 2    Res =  0.2059E-03
 Side 1  free  transition at x/c =  0.0188   17
 Side 2 forced transition at x/c =  1.0000   74

 143   rms: 0.3790E+06   max: 0.2992E+07   C at   89  2   RLX: 0.000
       a = 13.000      CL =  0.6263
      Cm = -0.0295     CD = 90.51332   =>   CDf =  0.00187    CDp = 90.51145

 MRCHDU: Convergence failed at  85  side 2    Res =  0.3767E-01
 MRCHDU: Convergence failed at  86  side 2    Res =  0.6230E-01
 MRCHDU: Convergence failed at  87  side 2    Res =  0.7790E-01
 MRCHDU: Convergence failed at  89  side 2    Res =  0.1109E-04
 MRCHDU: Convergence failed at  90  side 2    Res =  0.2059E-03
 Side 1  free  transition at x/c =  0.0188   17
 Side 2 forced transition at x/c =  1.0000   74

 144   rms: 0.2604E+06   max: 0.2075E+07   C at   89  2   RLX: 0.000
       a = 13.000      CL =  0.6262
      Cm = -0.0295     CD = 90.15132   =>   CDf =  0.00187    CDp = 90.14945

 MRCHDU: Convergence failed at  85  side 2    Res =  0.3768E-01
 MRCHDU: Convergence failed at  86  side 2    Res =  0.6212E-01
 MRCHDU: Convergence failed at  87  side 2    Res =  0.8018E-01
 MRCHDU: Convergence failed at  89  side 2    Res =  0.1112E-04
 MRCHDU: Convergence failed at  90  side 2    Res =  0.2058E-03
 Side 1  free  transition at x/c =  0.0188   17
 Side 2 forced transition at x/c =  1.0000   74

 145   rms: 0.8990E+05   max: -.7225E+06   C at   89  2   RLX: 0.000
       a = 13.000      CL =  0.6266
      Cm = -0.0295     CD = 89.12216   =>   CDf =  0.00187    CDp = 89.12029

 MRCHDU: Convergence failed at  85  side 2    Res =  0.3765E-01
 MRCHDU: Convergence failed at  86  side 2    Res =  0.6281E-01
 MRCHDU: Convergence failed at  87  side 2    Res =  0.7243E-01
 MRCHDU: Convergence failed at  89  side 2    Res =  0.1102E-04
 MRCHDU: Convergence failed at  90  side 2    Res =  0.2060E-03
 Side 1  free  transition at x/c =  0.0188   17
 Side 2 forced transition at x/c =  1.0000   74

 146   rms: 0.7590E+05   max: 0.6077E+06   C at   89  2   RLX: 0.000
       a = 13.000      CL =  0.6262
      Cm = -0.0295     CD = 92.27703   =>   CDf =  0.00187    CDp = 92.27516

 MRCHDU: Convergence failed at  85  side 2    Res =  0.3768E-01
 MRCHDU: Convergence failed at  86  side 2    Res =  0.6212E-01
 MRCHDU: Convergence failed at  87  side 2    Res =  0.8167E-01
 MRCHDU: Convergence failed at  89  side 2    Res =  0.1112E-04
 MRCHDU: Convergence failed at  90  side 2    Res =  0.2058E-03
 Side 1  free  transition at x/c =  0.0188   17
 Side 2 forced transition at x/c =  1.0000   74

 147   rms: 0.1334E+06   max: -.1067E+07   C at   89  2   RLX: 0.000
       a = 13.000      CL =  0.6264
      Cm = -0.0295     CD = 88.92814   =>   CDf =  0.00187    CDp = 88.92627

 MRCHDU: Convergence failed at  85  side 2    Res =  0.3766E-01
 MRCHDU: Convergence failed at  86  side 2    Res =  0.6252E-01
 MRCHDU: Convergence failed at  87  side 2    Res =  0.7699E-01
 MRCHDU: Convergence failed at  89  side 2    Res =  0.1107E-04
 MRCHDU: Convergence failed at  90  side 2    Res =  0.2059E-03
 Side 1  free  transition at x/c =  0.0188   17
 Side 2 forced transition at x/c =  1.0000   74

 148   rms: 0.9819E+06   max: -.7869E+07   C at   89  2   RLX: 0.000
       a = 13.000      CL =  0.6264
      Cm = -0.0295     CD = 90.56721   =>   CDf =  0.00187    CDp = 90.56534

 MRCHDU: Convergence failed at  85  side 2    Res =  0.3766E-01
 MRCHDU: Convergence failed at  86  side 2    Res =  0.6258E-01
 MRCHDU: Convergence failed at  87  side 2    Res =  0.7630E-01
 MRCHDU: Convergence failed at  89  side 2    Res =  0.1106E-04
 MRCHDU: Convergence failed at  90  side 2    Res =  0.2059E-03
 Side 1  free  transition at x/c =  0.0188   17
 Side 2 forced transition at x/c =  1.0000   74

 149   rms: 0.8130E+06   max: 0.6519E+07   C at   89  2   RLX: 0.000
       a = 13.000      CL =  0.6264
      Cm = -0.0295     CD = 90.84464   =>   CDf =  0.00187    CDp = 90.84277

 MRCHDU: Convergence failed at  85  side 2    Res =  0.3766E-01
 MRCHDU: Convergence failed at  86  side 2    Res =  0.6251E-01
 MRCHDU: Convergence failed at  87  side 2    Res =  0.7719E-01
 MRCHDU: Convergence failed at  89  side 2    Res =  0.1107E-04
 MRCHDU: Convergence failed at  90  side 2    Res =  0.2059E-03
 Side 1  free  transition at x/c =  0.0188   17
 Side 2 forced transition at x/c =  1.0000   74

 150   rms: 0.1775E+06   max: 0.1413E+07   C at   89  2   RLX: 0.000
       a = 13.000      CL =  0.6262
      Cm = -0.0295     CD = 90.62908   =>   CDf =  0.00187    CDp = 90.62721

 MRCHDU: Convergence failed at  85  side 2    Res =  0.3767E-01
 MRCHDU: Convergence failed at  86  side 2    Res =  0.6224E-01
 MRCHDU: Convergence failed at  87  side 2    Res =  0.8051E-01
 MRCHDU: Convergence failed at  89  side 2    Res =  0.1111E-04
 MRCHDU: Convergence failed at  90  side 2    Res =  0.2058E-03
 Side 1  free  transition at x/c =  0.0188   17
 Side 2 forced transition at x/c =  1.0000   74

 151   rms: 0.1783E+06   max: -.1425E+07   C at   89  2   RLX: 0.000
       a = 13.000      CL =  0.6264
      Cm = -0.0295     CD = 89.35667   =>   CDf =  0.00187    CDp = 89.35480

 MRCHDU: Convergence failed at  85  side 2    Res =  0.3766E-01
 MRCHDU: Convergence failed at  86  side 2    Res =  0.6254E-01
 MRCHDU: Convergence failed at  87  side 2    Res =  0.7699E-01
 MRCHDU: Convergence failed at  89  side 2    Res =  0.1107E-04
 MRCHDU: Convergence failed at  90  side 2    Res =  0.2059E-03
 Side 1  free  transition at x/c =  0.0188   17
 Side 2 forced transition at x/c =  1.0000   74

 152   rms: 0.1352E+06   max: 0.1075E+07   C at   89  2   RLX: 0.000
       a = 13.000      CL =  0.6262
      Cm = -0.0295     CD = 90.75414   =>   CDf =  0.00187    CDp = 90.75227

 MRCHDU: Convergence failed at  85  side 2    Res =  0.3767E-01
 MRCHDU: Convergence failed at  86  side 2    Res =  0.6222E-01
 MRCHDU: Convergence failed at  87  side 2    Res =  0.8106E-01
 MRCHDU: Convergence failed at  89  side 2    Res =  0.1111E-04
 MRCHDU: Convergence failed at  90  side 2    Res =  0.2058E-03
 Side 1  free  transition at x/c =  0.0188   17
 Side 2 forced transition at x/c =  1.0000   74

 153   rms: 0.2804E+06   max: -.2241E+07   C at   89  2   RLX: 0.000
       a = 13.000      CL =  0.6263
      Cm = -0.0295     CD = 89.26463   =>   CDf =  0.00187    CDp = 89.26276

 MRCHDU: Convergence failed at  85  side 2    Res =  0.3767E-01
 MRCHDU: Convergence failed at  86  side 2    Res =  0.6241E-01
 MRCHDU: Convergence failed at  87  side 2    Res =  0.7880E-01
 MRCHDU: Convergence failed at  89  side 2    Res =  0.1109E-04
 MRCHDU: Convergence failed at  90  side 2    Res =  0.2058E-03
 Side 1  free  transition at x/c =  0.0188   17
 Side 2 forced transition at x/c =  1.0000   74

 154   rms: 0.1869E+06   max: -.1482E+07   C at   89  2   RLX: 0.000
       a = 13.000      CL =  0.6264
      Cm = -0.0295     CD = 89.96434   =>   CDf =  0.00187    CDp = 89.96247

 MRCHDU: Convergence failed at  85  side 2    Res =  0.3765E-01
 MRCHDU: Convergence failed at  86  side 2    Res =  0.6263E-01
 MRCHDU: Convergence failed at  87  side 2    Res =  0.7622E-01
 MRCHDU: Convergence failed at  89  side 2    Res =  0.1105E-04
 MRCHDU: Convergence failed at  90  side 2    Res =  0.2059E-03
 Side 1  free  transition at x/c =  0.0188   17
 Side 2 forced transition at x/c =  1.0000   74

 155   rms: 0.1557E+06   max: 0.1234E+07   C at   89  2   RLX: 0.000
       a = 13.000      CL =  0.6263
      Cm = -0.0295     CD = 91.02995   =>   CDf =  0.00187    CDp = 91.02808
 VISCAL:  Convergence failed

 Sequence halted since previous  4 points did not converge
 Last-converged  alpha =  12.000    CL =   1.07832

.OPERva   c>  
 Polar accumulation disabled

.OPERv   c>  
 XFOIL   c>  
 XFOIL   c>  