
 ===================================================
  XFOIL Version 6.99
  Copyright (C) 2000   Mark Drela, Harold Youngren

  This software comes with ABSOLUTELY NO WARRANTY,
    subject to the GNU General Public License.

  Caveat computor
 ===================================================

 File  xfoil.def  not found

   QUIT    Exit program

  .OPER    Direct operating point(s)
  .MDES    Complex mapping design routine
  .QDES    Surface speed design routine
  .GDES    Geometry design routine

   SAVE f  Write airfoil to labeled coordinate file
   PSAV f  Write airfoil to plain coordinate file
   ISAV f  Write airfoil to ISES coordinate file
   MSAV f  Write airfoil to MSES coordinate file
   REVE    Reverse written-airfoil node ordering

   LOAD f  Read buffer airfoil from coordinate file
   NACA i  Set NACA 4,5-digit airfoil and buffer airfoil
   INTE    Set buffer airfoil by interpolating two airfoils
   NORM    Buffer airfoil normalization toggle
   XYCM rr Change CM reference location, currently  0.25000 0.00000

   BEND    Display structural properties of current airfoil

   PCOP    Set current-airfoil panel nodes directly from buffer airfoil points
   PANE    Set current-airfoil panel nodes ( 160 ) based on curvature
  .PPAR    Show/change paneling

  .PLOP    Plotting options

   WDEF f  Write  current-settings file
   RDEF f  Reread current-settings file
   NAME s  Specify new airfoil name
   NINC    Increment name version number

   Z       Zoom    | (available in all menus)
   U       Unzoom  | 

 XFOIL   c>  
 Labeled airfoil file.  Name:  NACA 65(2)-415 a=0.5                            

 Number of input coordinate points:  51
 Counterclockwise ordering
 Max thickness =     0.149991  at x =   0.401
 Max camber    =     0.028234  at x =   0.450

  LE  x,y  =  -0.00038   0.00314  |   Chord =   1.00039
  TE  x,y  =   1.00000   0.00000  |

 Current airfoil nodes set from buffer airfoil nodes (  51 )

 WARNING: Poor input coordinate distribution
          Excessive panel angle   49.5  at i =  26
          Repaneling with PANE and/or PPAR suggested
           (doing GDES,CADD before repaneling _may_
            improve excessively coarse LE spacing

 XFOIL   c>  
 XFOIL   c>  
 Sharp trailing edge

 Paneling parameters used...
   Number of panel nodes       160
   Panel bunching parameter    1.000
   TE/LE panel density ratio   0.150
   Refined-area/LE panel density ratio    0.200
   Top    side refined area x/c limits  1.000 1.000
   Bottom side refined area x/c limits  1.000 1.000

 XFOIL   c>  
.OPERi   c>  
 Xtr/c     =  1.0000    top    side
 Xtr/c     =  1.0000    bottom side
 Ncrit     =    9.00   ( 0.070 % turb. level )
 Vacc      =  0.0100

 Klag  =  5.6000     Uxwt  =    1.00
 A     =  6.7000     B     =  0.7500       KCt = 0.01485
 CtiniK=  1.8000     CtiniX=  3.3000

..VPAR   c>  
..VPAR   c>  
.OPERi   c>  
 M  =    0.0000
 Re =    150000

.OPERv   c>  
.OPERv   c>  
.OPERv   c>  
 Polar  1 newly created for accumulation
 Airfoil archived with polar: NACA 65(2)-415 a=0.5                            

Enter  polar save filename  OR  <return> for no file   s>  
 New polar save file available

Enter  polar dump filename  OR  <return> for no file   s>  
 Polar dump file will NOT be written

 Polar accumulation enabled

.OPERva   c>   Calculating unit vorticity distributions ...
 Calculating wake trajectory ...
 Calculating source influence matrix ...

 Solving BL system ...

 Initializing BL ...
    side            1  ...
 MRCHUE: Inverse mode at  48     Hk =   3.800
 MRCHUE: Inverse mode at  49     Hk =   4.226
 MRCHUE: Inverse mode at  50     Hk =   4.642
 MRCHUE: Inverse mode at  51     Hk =   5.050
 MRCHUE: Inverse mode at  52     Hk =   5.450
 MRCHUE: Inverse mode at  53     Hk =   5.842
 MRCHUE: Inverse mode at  54     Hk =   6.230
 MRCHUE: Inverse mode at  55     Hk =   6.614
 MRCHUE: Inverse mode at  56     Hk =   6.996
 MRCHUE: Inverse mode at  57     Hk =   7.374
 MRCHUE: Inverse mode at  58     Hk =   7.750
 MRCHUE: Inverse mode at  59     Hk =   8.122
 MRCHUE: Inverse mode at  60     Hk =   8.491
 MRCHUE: Inverse mode at  61     Hk =   8.859
 MRCHUE: Inverse mode at  62     Hk =   9.226
 MRCHUE: Inverse mode at  63     Hk =   9.590
 MRCHUE: Inverse mode at  64     Hk =   9.951
 MRCHUE: Inverse mode at  65     Hk =   8.392
 MRCHUE: Inverse mode at  66     Hk =   7.202
 MRCHUE: Inverse mode at  67     Hk =   6.318
 MRCHUE: Inverse mode at  68     Hk =   5.611
 MRCHUE: Inverse mode at  69     Hk =   5.023
 MRCHUE: Inverse mode at  70     Hk =   4.524
 MRCHUE: Inverse mode at  71     Hk =   4.100
 MRCHUE: Inverse mode at  72     Hk =   3.744
 MRCHUE: Inverse mode at  73     Hk =   3.448
 MRCHUE: Inverse mode at  74     Hk =   3.202
 MRCHUE: Inverse mode at  75     Hk =   2.994
 MRCHUE: Inverse mode at  76     Hk =   2.813
 MRCHUE: Inverse mode at  77     Hk =   2.706
    side            2  ...
 MRCHUE: Inverse mode at  18     Hk =   3.800
 MRCHUE: Inverse mode at  19     Hk =   4.328
 MRCHUE: Inverse mode at  20     Hk =   4.875
 MRCHUE: Inverse mode at  21     Hk =   5.461
 MRCHUE: Inverse mode at  22     Hk =   6.106
 MRCHUE: Convergence failed at  22  side 2    Res =  0.7493E-01
 MRCHUE: Inverse mode at  23     Hk =   6.864
 MRCHUE: Inverse mode at  24     Hk =   7.631
 MRCHUE: Inverse mode at  25     Hk =   8.439
 MRCHUE: Inverse mode at  26     Hk =   9.298
 MRCHUE: Inverse mode at  27     Hk =  10.201
 MRCHUE: Inverse mode at  28     Hk =   7.026
 MRCHUE: Inverse mode at  29     Hk =   4.499
 MRCHUE: Inverse mode at  30     Hk =   2.955
 MRCHUE: Inverse mode at  84     Hk =   2.500
 MRCHUE: Inverse mode at  85     Hk =   2.500

 Side 1  free  transition at x/c =  0.8285   65
 Side 2  free  transition at x/c =  0.0933   28

   1   rms: 0.2668E+00   max: -.1393E+01   T at   28  2   RLX: 0.359
       a = -4.000      CL = -0.0698
      Cm = -0.0988     CD =  0.01965   =>   CDf =  0.00883    CDp =  0.01082

 Side 1  free  transition at x/c =  0.8231   64
 Side 2  free  transition at x/c =  0.1025   28

   2   rms: 0.2953E+00   max: 0.1921E+01   T at   64  1   RLX: 0.398
       a = -4.000      CL = -0.0934
      Cm = -0.0894     CD =  0.02070   =>   CDf =  0.00908    CDp =  0.01162

 Side 1  free  transition at x/c =  0.8015   63
 Side 2  free  transition at x/c =  0.0958   28

   3   rms: 0.1277E+00   max: -.7619E+00   D at   30  2   RLX: 0.656
       a = -4.000      CL = -0.0944
      Cm = -0.0787     CD =  0.02198   =>   CDf =  0.00869    CDp =  0.01329

 Side 1  free  transition at x/c =  0.7957   63
 Side 2  free  transition at x/c =  0.0979   28

   4   rms: 0.5988E-01   max: -.4163E+00   D at   30  2
       a = -4.000      CL = -0.1015
      Cm = -0.0725     CD =  0.02081   =>   CDf =  0.00863    CDp =  0.01218

 Side 1  free  transition at x/c =  0.7956   63
 Side 2  free  transition at x/c =  0.0951   28

   5   rms: 0.8711E-02   max: -.8542E-01   D at   30  2
       a = -4.000      CL = -0.1014
      Cm = -0.0728     CD =  0.02113   =>   CDf =  0.00874    CDp =  0.01238

 Side 1  free  transition at x/c =  0.7946   63
 Side 2  free  transition at x/c =  0.0945   28

   6   rms: 0.8063E-03   max: -.8852E-02   D at   73  1
       a = -4.000      CL = -0.1013
      Cm = -0.0729     CD =  0.02114   =>   CDf =  0.00878    CDp =  0.01236

 Side 1  free  transition at x/c =  0.7946   63
 Side 2  free  transition at x/c =  0.0945   28

   7   rms: 0.1159E-04   max: -.8365E-04   D at   73  1
       a = -4.000      CL = -0.1013
      Cm = -0.0729     CD =  0.02114   =>   CDf =  0.00878    CDp =  0.01236
 plradd ia,ip,cpol            1           0  7.80261308E-03

 Point added to stored polar  1
 Point written to save file  naca652415a05_Re150k.base.pol                   
 Dump file unspecified or not available
 Calculating wake trajectory ...
 Calculating source influence matrix ...

 Solving BL system ...

 Side 1  free  transition at x/c =  0.7946   63
 Side 2  free  transition at x/c =  0.0945   28

   1   rms: 0.9964E-01   max: -.8019E+00   T at   28  2   RLX: 0.624
       a = -3.500      CL = -0.0749
      Cm = -0.0715     CD =  0.02056   =>   CDf =  0.00878    CDp =  0.01178

 Side 1  free  transition at x/c =  0.7926   62
 Side 2  free  transition at x/c =  0.1087   29

   2   rms: 0.7897E-01   max: -.4015E+00   T at   29  2
       a = -3.500      CL = -0.0725
      Cm = -0.0711     CD =  0.02131   =>   CDf =  0.00880    CDp =  0.01251

 Side 1  free  transition at x/c =  0.7822   63
 Side 2  free  transition at x/c =  0.1205   29

   3   rms: 0.6203E-01   max: -.3608E+00   C at   29  2
       a = -3.500      CL = -0.0727
      Cm = -0.0701     CD =  0.02058   =>   CDf =  0.00867    CDp =  0.01190

 Side 1  free  transition at x/c =  0.7850   63
 Side 2  free  transition at x/c =  0.1346   30

   4   rms: 0.1565E-01   max: -.1741E+00   C at   30  2
       a = -3.500      CL = -0.0689
      Cm = -0.0705     CD =  0.02066   =>   CDf =  0.00858    CDp =  0.01208

 Side 1  free  transition at x/c =  0.7856   63
 Side 2  free  transition at x/c =  0.1385   30

   5   rms: 0.6860E-03   max: -.1092E-01   D at   31  2
       a = -3.500      CL = -0.0686
      Cm = -0.0705     CD =  0.02066   =>   CDf =  0.00852    CDp =  0.01215

 Side 1  free  transition at x/c =  0.7856   63
 Side 2  free  transition at x/c =  0.1384   30

   6   rms: 0.5948E-05   max: -.5162E-04   D at   31  2
       a = -3.500      CL = -0.0686
      Cm = -0.0705     CD =  0.02066   =>   CDf =  0.00852    CDp =  0.01215
 plradd ia,ip,cpol            2           0  7.80261308E-03

 Point added to stored polar  1
 Point written to save file  naca652415a05_Re150k.base.pol                   
 Dump file unspecified or not available
 Calculating wake trajectory ...
 Calculating source influence matrix ...

 Solving BL system ...

 Side 1  free  transition at x/c =  0.7856   63
 Side 2  free  transition at x/c =  0.1384   30

   1   rms: 0.3250E+00   max: -.5347E+01   C at   30  2   RLX: 0.094
       a = -3.000      CL = -0.0667
      Cm = -0.0701     CD =  0.02044   =>   CDf =  0.00852    CDp =  0.01192

 Side 1  free  transition at x/c =  0.7849   63
 Side 2  free  transition at x/c =  0.1540   31

   2   rms: 0.4503E+00   max: -.7837E+01   C at   31  2   RLX: 0.064
       a = -3.000      CL = -0.0648
      Cm = -0.0697     CD =  0.02033   =>   CDf =  0.00844    CDp =  0.01189

 Side 1  free  transition at x/c =  0.7844   63
 Side 2  free  transition at x/c =  0.1669   32

   3   rms: 0.5178E+00   max: -.8608E+01   C at   32  2   RLX: 0.058
       a = -3.000      CL = -0.0639
      Cm = -0.0692     CD =  0.02022   =>   CDf =  0.00840    CDp =  0.01182

 Side 1  free  transition at x/c =  0.7840   63
 Side 2  free  transition at x/c =  0.1816   33

   4   rms: 0.5475E+00   max: -.9185E+01   C at   33  2   RLX: 0.054
       a = -3.000      CL = -0.0633
      Cm = -0.0688     CD =  0.02013   =>   CDf =  0.00834    CDp =  0.01179

 Side 1  free  transition at x/c =  0.7837   63
 Side 2  free  transition at x/c =  0.1984   34

   5   rms: 0.5575E+00   max: -.9802E+01   C at   34  2   RLX: 0.051
       a = -3.000      CL = -0.0627
      Cm = -0.0685     CD =  0.02003   =>   CDf =  0.00825    CDp =  0.01178

 Side 1  free  transition at x/c =  0.7834   63
 Side 2  free  transition at x/c =  0.2134   34

   6   rms: 0.3044E+00   max: -.4577E+01   C at   34  2   RLX: 0.109
       a = -3.000      CL = -0.0597
      Cm = -0.0682     CD =  0.01990   =>   CDf =  0.00817    CDp =  0.01174

 Side 1  free  transition at x/c =  0.7829   63
 Side 2  free  transition at x/c =  0.2787   38

   7   rms: 0.7687E+00   max: -.1398E+02   C at   38  2   RLX: 0.036
       a = -3.000      CL = -0.0567
      Cm = -0.0680     CD =  0.01950   =>   CDf =  0.00776    CDp =  0.01173

 Side 1  free  transition at x/c =  0.7828   63
 Side 2  free  transition at x/c =  0.2910   39

   8   rms: 0.1495E+01   max: -.2484E+02   C at   39  2   RLX: 0.020
       a = -3.000      CL = -0.0574
      Cm = -0.0678     CD =  0.01933   =>   CDf =  0.00763    CDp =  0.01171

 Side 1  free  transition at x/c =  0.7827   63
 Side 2  free  transition at x/c =  0.2950   39

   9   rms: 0.1168E+01   max: -.2011E+02   C at   39  2   RLX: 0.025
       a = -3.000      CL = -0.0566
      Cm = -0.0678     CD =  0.01936   =>   CDf =  0.00764    CDp =  0.01172

 Side 1  free  transition at x/c =  0.7826   63
 Side 2  free  transition at x/c =  0.2985   40

  10   rms: 0.9064E+00   max: -.1643E+02   C at   40  2   RLX: 0.030
       a = -3.000      CL = -0.0566
      Cm = -0.0677     CD =  0.01936   =>   CDf =  0.00768    CDp =  0.01168

 Side 1  free  transition at x/c =  0.7825   63
 Side 2  free  transition at x/c =  0.3091   40

  11   rms: 0.1744E+01   max: -.2735E+02   C at   40  2   RLX: 0.018
       a = -3.000      CL = -0.0577
      Cm = -0.0675     CD =  0.01920   =>   CDf =  0.00750    CDp =  0.01170

 Side 1  free  transition at x/c =  0.7824   63
 Side 2  free  transition at x/c =  0.3313   42

  12   rms: 0.1956E+01   max: -.3059E+02   C at   42  2   RLX: 0.016
       a = -3.000      CL = -0.0580
      Cm = -0.0673     CD =  0.01905   =>   CDf =  0.00736    CDp =  0.01169

 Side 1  free  transition at x/c =  0.7823   63
 Side 2  free  transition at x/c =  0.3585   43

  13   rms: 0.2128E+01   max: -.3164E+02   C at   43  2   RLX: 0.016
       a = -3.000      CL = -0.0590
      Cm = -0.0671     CD =  0.01896   =>   CDf =  0.00726    CDp =  0.01170

 Side 1  free  transition at x/c =  0.7822   63
 Side 2  free  transition at x/c =  0.3930   46

  14   rms: 0.1570E+01   max: -.2568E+02   C at   46  2   RLX: 0.019
       a = -3.000      CL = -0.0606
      Cm = -0.0668     CD =  0.01882   =>   CDf =  0.00713    CDp =  0.01169

 Side 1  free  transition at x/c =  0.7821   63
 Side 2  free  transition at x/c =  0.4318   48

  15   rms: 0.1390E+01   max: -.2269E+02   C at   48  2   RLX: 0.022
       a = -3.000      CL = -0.0622
      Cm = -0.0665     CD =  0.01870   =>   CDf =  0.00697    CDp =  0.01173

 Side 1  free  transition at x/c =  0.7821   63
 Side 2  free  transition at x/c =  0.4390   48

  16   rms: 0.1109E+01   max: -.1784E+02   C at   48  2   RLX: 0.028
       a = -3.000      CL = -0.0623
      Cm = -0.0664     CD =  0.01868   =>   CDf =  0.00694    CDp =  0.01174

 Side 1  free  transition at x/c =  0.7819   63
 Side 2  free  transition at x/c =  0.4646   50

  17   rms: 0.6380E+00   max: -.1062E+02   C at   50  2   RLX: 0.047
       a = -3.000      CL = -0.0633
      Cm = -0.0661     CD =  0.01859   =>   CDf =  0.00683    CDp =  0.01176

 Side 1  free  transition at x/c =  0.7818   63
 Side 2  free  transition at x/c =  0.5134   53

  18   rms: 0.3333E+00   max: -.5274E+01   C at   53  2   RLX: 0.095
       a = -3.000      CL = -0.0655
      Cm = -0.0651     CD =  0.01848   =>   CDf =  0.00661    CDp =  0.01187

 Side 1  free  transition at x/c =  0.7815   63
 Side 2  free  transition at x/c =  0.5846   57

  19   rms: 0.1783E+00   max: 0.1614E+01   C at   58  2   RLX: 0.773
       a = -3.000      CL = -0.0580
      Cm = -0.0640     CD =  0.01871   =>   CDf =  0.00635    CDp =  0.01236

 MRCHDU: Convergence failed at  61  side 2    Res =  0.5890E+01
 MRCHDU: Convergence failed at  62  side 2    Res =  0.1614E+01
 MRCHDU: Convergence failed at  63  side 2    Res =  0.2129E+01
 MRCHDU: Convergence failed at  64  side 2    Res =  0.5149E+01
 MRCHDU: Convergence failed at  65  side 2    Res =  0.7105E+02
 MRCHDU: Convergence failed at  66  side 2    Res =  0.1420E+02
 MRCHDU: Convergence failed at  67  side 2    Res =  0.9649E+01
 MRCHDU: Convergence failed at  68  side 2    Res =  0.9106E+01
 MRCHDU: Convergence failed at  69  side 2    Res =  0.1119E+02
 MRCHDU: Convergence failed at  70  side 2    Res =  0.1847E+02
 MRCHDU: Convergence failed at  71  side 2    Res =  0.5357E+02
 MRCHDU: Convergence failed at  72  side 2    Res =  0.6614E+02
 MRCHDU: Convergence failed at  73  side 2    Res =  0.2212E+02
 MRCHDU: Convergence failed at  74  side 2    Res =  0.1376E+02
 MRCHDU: Convergence failed at  75  side 2    Res =  0.1040E+02
 MRCHDU: Convergence failed at  76  side 2    Res =  0.8526E+01
 MRCHDU: Convergence failed at  77  side 2    Res =  0.7281E+01
 MRCHDU: Convergence failed at  78  side 2    Res =  0.6502E+01
 MRCHDU: Convergence failed at  79  side 2    Res =  0.6053E+01
 MRCHDU: Convergence failed at  80  side 2    Res =  0.5304E+01
 MRCHDU: Convergence failed at  81  side 2    Res =  0.5147E+01
 MRCHDU: Convergence failed at  82  side 2    Res =  0.5030E+01
 MRCHDU: Convergence failed at  83  side 2    Res =  0.4890E+01
 MRCHDU: Convergence failed at  84  side 2    Res =  0.4645E+01
 Side 1  free  transition at x/c =  0.7797   63
 Side 2  free  transition at x/c =  0.9482   79

  20   rms: 0.2859E+00   max: 0.1468E+01   T at   81  2   RLX: 0.385
       a = -3.000      CL = -0.1854
      Cm = -0.0093     CD =  0.01569   =>   CDf =  0.00613    CDp =  0.00956

 Side 1  free  transition at x/c =  0.7787   63
 Side 2  free  transition at x/c =  0.6929   64

  21   rms: 0.1368E+00   max: -.1512E+00   U at   84  2
       a = -3.000      CL = -0.0653
      Cm = -0.0611     CD =  0.01741   =>   CDf =  0.00664    CDp =  0.01077

 Side 1  free  transition at x/c =  0.7795   63
 Side 2  free  transition at x/c =  0.6992   64

  22   rms: 0.2949E-01   max: 0.2062E+00   D at   58  2
       a = -3.000      CL = -0.0543
      Cm = -0.0623     CD =  0.01855   =>   CDf =  0.00602    CDp =  0.01253

 Side 1  free  transition at x/c =  0.7798   63
 Side 2  free  transition at x/c =  0.6782   63

  23   rms: 0.1035E-01   max: -.1101E+00   D at   65  2
       a = -3.000      CL = -0.0546
      Cm = -0.0626     CD =  0.01858   =>   CDf =  0.00621    CDp =  0.01237

 Side 1  free  transition at x/c =  0.7797   63
 Side 2  free  transition at x/c =  0.6784   63

  24   rms: 0.8077E-03   max: -.8011E-02   D at   68  2
       a = -3.000      CL = -0.0547
      Cm = -0.0626     CD =  0.01860   =>   CDf =  0.00616    CDp =  0.01244

 Side 1  free  transition at x/c =  0.7797   63
 Side 2  free  transition at x/c =  0.6780   63

  25   rms: 0.4894E-05   max: -.6823E-04   D at   68  2
       a = -3.000      CL = -0.0547
      Cm = -0.0626     CD =  0.01860   =>   CDf =  0.00616    CDp =  0.01244
 plradd ia,ip,cpol            3           0  1.01249795E-02

 Point added to stored polar  1
 Point written to save file  naca652415a05_Re150k.base.pol                   
 Dump file unspecified or not available
 Calculating wake trajectory ...
 Calculating source influence matrix ...

 Solving BL system ...

 Side 1  free  transition at x/c =  0.7797   63
 Side 2  free  transition at x/c =  0.6780   63

   1   rms: 0.1283E+00   max: -.6571E+00   T at   63  2   RLX: 0.761
       a = -2.500      CL = -0.0201
      Cm = -0.0594     CD =  0.01893   =>   CDf =  0.00616    CDp =  0.01277

 Side 1  free  transition at x/c =  0.7773   62
 Side 2  free  transition at x/c =  0.7236   66

   2   rms: 0.1033E+00   max: 0.5852E+00   T at   62  1
       a = -2.500      CL = -0.0417
      Cm = -0.0581     CD =  0.02119   =>   CDf =  0.00628    CDp =  0.01491

 Side 1  free  transition at x/c =  0.7643   62
 Side 2  free  transition at x/c =  0.7329   66

   3   rms: 0.5456E-01   max: -.3140E+00   D at   65  1
       a = -2.500      CL = -0.0311
      Cm = -0.0582     CD =  0.02047   =>   CDf =  0.00608    CDp =  0.01439

 Side 1  free  transition at x/c =  0.7686   62
 Side 2  free  transition at x/c =  0.7422   67

   4   rms: 0.2334E-01   max: 0.1318E+00   D at   68  2
       a = -2.500      CL = -0.0229
      Cm = -0.0584     CD =  0.01991   =>   CDf =  0.00606    CDp =  0.01385

 Side 1  free  transition at x/c =  0.7713   62
 Side 2  free  transition at x/c =  0.7423   67

   5   rms: 0.4030E-02   max: -.2093E-01   D at   67  1
       a = -2.500      CL = -0.0210
      Cm = -0.0586     CD =  0.01986   =>   CDf =  0.00611    CDp =  0.01374

 Side 1  free  transition at x/c =  0.7717   62
 Side 2  free  transition at x/c =  0.7426   67

   6   rms: 0.5786E-03   max: -.9431E-02   D at    2  2
       a = -2.500      CL = -0.0209
      Cm = -0.0586     CD =  0.01986   =>   CDf =  0.00612    CDp =  0.01373

 Side 1  free  transition at x/c =  0.7717   63
 Side 2  free  transition at x/c =  0.7426   66

   7   rms: 0.1517E-02   max: -.2707E-01   D at    2  1
       a = -2.500      CL = -0.0209
      Cm = -0.0586     CD =  0.01986   =>   CDf =  0.00613    CDp =  0.01373

 Side 1  free  transition at x/c =  0.7717   63
 Side 2  free  transition at x/c =  0.7426   66

   8   rms: 0.1939E-03   max: 0.2551E-02   D at    4  1
       a = -2.500      CL = -0.0209
      Cm = -0.0586     CD =  0.01986   =>   CDf =  0.00613    CDp =  0.01373

 Side 1  free  transition at x/c =  0.7717   63
 Side 2  free  transition at x/c =  0.7426   66

   9   rms: 0.1566E-03   max: -.2939E-02   D at    2  1
       a = -2.500      CL = -0.0209
      Cm = -0.0586     CD =  0.01986   =>   CDf =  0.00613    CDp =  0.01373

 Side 1  free  transition at x/c =  0.7717   63
 Side 2  free  transition at x/c =  0.7426   66

  10   rms: 0.4451E-02   max: -.7894E-01   T at    2  1
       a = -2.500      CL = -0.0209
      Cm = -0.0586     CD =  0.01986   =>   CDf =  0.00613    CDp =  0.01373

 Side 1  free  transition at x/c =  0.7717   63
 Side 2  free  transition at x/c =  0.7426   66

  11   rms: 0.7112E-02   max: 0.1300E+00   T at    2  1
       a = -2.500      CL = -0.0209
      Cm = -0.0586     CD =  0.01986   =>   CDf =  0.00613    CDp =  0.01373

 Side 1  free  transition at x/c =  0.7717   63
 Side 2  free  transition at x/c =  0.7426   66

  12   rms: 0.4620E-03   max: 0.5972E-02   D at    4  1
       a = -2.500      CL = -0.0209
      Cm = -0.0586     CD =  0.01986   =>   CDf =  0.00613    CDp =  0.01373

 Side 1  free  transition at x/c =  0.7717   63
 Side 2  free  transition at x/c =  0.7426   66

  13   rms: 0.6278E-02   max: 0.1146E+00   T at    2  1
       a = -2.500      CL = -0.0209
      Cm = -0.0586     CD =  0.01986   =>   CDf =  0.00613    CDp =  0.01373

 Side 1  free  transition at x/c =  0.7717   63
 Side 2  free  transition at x/c =  0.7426   66

  14   rms: 0.4988E-03   max: 0.6661E-02   D at    2  1
       a = -2.500      CL = -0.0209
      Cm = -0.0586     CD =  0.01986   =>   CDf =  0.00613    CDp =  0.01373

 Side 1  free  transition at x/c =  0.7717   63
 Side 2  free  transition at x/c =  0.7426   66

  15   rms: 0.4478E-03   max: -.8161E-02   T at    2  1
       a = -2.500      CL = -0.0209
      Cm = -0.0586     CD =  0.01986   =>   CDf =  0.00613    CDp =  0.01373

 Side 1  free  transition at x/c =  0.7717   63
 Side 2  free  transition at x/c =  0.7426   66

  16   rms: 0.2538E-01   max: -.4469E+00   D at    2  1
       a = -2.500      CL = -0.0209
      Cm = -0.0586     CD =  0.01986   =>   CDf =  0.00613    CDp =  0.01373

 Side 1  free  transition at x/c =  0.7717   63
 Side 2  free  transition at x/c =  0.7426   66

  17   rms: 0.9887E-02   max: 0.1836E+00   T at    2  1
       a = -2.500      CL = -0.0209
      Cm = -0.0586     CD =  0.01986   =>   CDf =  0.00613    CDp =  0.01373

 Side 1  free  transition at x/c =  0.7717   63
 Side 2  free  transition at x/c =  0.7426   66

  18   rms: 0.6530E-03   max: 0.8952E-02   D at    4  1
       a = -2.500      CL = -0.0209
      Cm = -0.0586     CD =  0.01986   =>   CDf =  0.00613    CDp =  0.01373

 Side 1  free  transition at x/c =  0.7717   63
 Side 2  free  transition at x/c =  0.7426   66

  19   rms: 0.4933E-04   max: -.5942E-03   T at    2  1
       a = -2.500      CL = -0.0209
      Cm = -0.0586     CD =  0.01986   =>   CDf =  0.00613    CDp =  0.01373
 plradd ia,ip,cpol            4           0  1.01249795E-02

 Point added to stored polar  1
 Point written to save file  naca652415a05_Re150k.base.pol                   
 Dump file unspecified or not available
 Calculating wake trajectory ...
 Calculating source influence matrix ...

 Solving BL system ...

 Side 1  free  transition at x/c =  0.7717   63
 Side 2  free  transition at x/c =  0.7426   66

   1   rms: 0.1151E+01   max: -.2066E+02   D at    2  1   RLX: 0.024
       a = -2.000      CL = -0.0202
      Cm = -0.0585     CD =  0.01989   =>   CDf =  0.00613    CDp =  0.01376

 Side 1  free  transition at x/c =  0.7715   63
 Side 2  free  transition at x/c =  0.7437   66

   2   rms: 0.9068E-01   max: -.5065E+00   T at   66  2   RLX: 0.987
       a = -2.000      CL =  0.0113
      Cm = -0.0544     CD =  0.02118   =>   CDf =  0.00613    CDp =  0.01505

 Side 1  free  transition at x/c =  0.7630   63
 Side 2  free  transition at x/c =  0.8031   69

   3   rms: 0.3826E-01   max: 0.3876E+00   D at   70  2
       a = -2.000      CL =  0.0131
      Cm = -0.0530     CD =  0.02093   =>   CDf =  0.00614    CDp =  0.01479

 Side 1  free  transition at x/c =  0.7650   63
 Side 2  free  transition at x/c =  0.8041   70

   4   rms: 0.5385E-02   max: 0.6894E-01   D at   70  2
       a = -2.000      CL =  0.0139
      Cm = -0.0529     CD =  0.02095   =>   CDf =  0.00611    CDp =  0.01484

 Side 1  free  transition at x/c =  0.7653   63
 Side 2  free  transition at x/c =  0.8037   69

   5   rms: 0.1671E-02   max: 0.1799E-01   D at   71  2
       a = -2.000      CL =  0.0141
      Cm = -0.0529     CD =  0.02097   =>   CDf =  0.00610    CDp =  0.01487

 Side 1  free  transition at x/c =  0.7653   63
 Side 2  free  transition at x/c =  0.8033   69

   6   rms: 0.2211E-04   max: -.2097E-03   D at   70  2
       a = -2.000      CL =  0.0141
      Cm = -0.0529     CD =  0.02097   =>   CDf =  0.00609    CDp =  0.01488
 plradd ia,ip,cpol            5           0  1.01249795E-02

 Point added to stored polar  1
 Point written to save file  naca652415a05_Re150k.base.pol                   
 Dump file unspecified or not available
 Calculating wake trajectory ...
 Calculating source influence matrix ...

 Solving BL system ...

 Side 1  free  transition at x/c =  0.7653   63
 Side 2  free  transition at x/c =  0.8033   69

   1   rms: 0.1467E+00   max: -.1559E+01   T at   69  2   RLX: 0.321
       a = -1.500      CL =  0.0212
      Cm = -0.0508     CD =  0.02118   =>   CDf =  0.00610    CDp =  0.01508

 MRCHDU: Convergence failed at  72  side 2    Res =  0.2682E+01
 MRCHDU: Convergence failed at  73  side 2    Res =  0.1274E+02
 MRCHDU: Convergence failed at  74  side 2    Res =  0.7562E+01
 MRCHDU: Convergence failed at  75  side 2    Res =  0.6632E+01
 MRCHDU: Convergence failed at  76  side 2    Res =  0.1380E+02
 MRCHDU: Convergence failed at  77  side 2    Res =  0.2632E+02
 MRCHDU: Convergence failed at  78  side 2    Res =  0.3901E+02
 MRCHDU: Convergence failed at  79  side 2    Res =  0.4371E+02
 MRCHDU: Convergence failed at  80  side 2    Res =  0.4329E+02
 MRCHDU: Convergence failed at  81  side 2    Res =  0.4115E+02
 MRCHDU: Convergence failed at  82  side 2    Res =  0.3842E+02
 MRCHDU: Convergence failed at  83  side 2    Res =  0.1625E+02
 Side 1  free  transition at x/c =  0.7636   63
 Side 2  free  transition at x/c =  0.8372   71

   2   rms: 0.3887E+00   max: 0.3168E+01   C at   71  2   RLX: 0.179
       a = -1.500      CL =  0.0259
      Cm = -0.0314     CD =  0.01714   =>   CDf =  0.00590    CDp =  0.01124

 Side 1  free  transition at x/c =  0.7643   64
 Side 2  free  transition at x/c =  0.8551   72
 idif Ue xi dudx           1  0.19719005      2.56133080E-03   76.987343    
 Uenew xinew           2  4.02529836E-02  5.22851944E-04

   3   rms: 0.1130E+00   max: -.7866E+00   D at   81  2   RLX: 0.636
       a = -1.500      CL = -0.0151
      Cm = -0.0323     CD =  0.02133   =>   CDf =  0.00607    CDp =  0.01526

 Side 1  free  transition at x/c =  0.7614   62
 Side 2  free  transition at x/c =  0.8446   72

   4   rms: 0.1469E+00   max: -.8005E+00   D at   83  2   RLX: 0.625
       a = -1.500      CL = -0.0181
      Cm = -0.0276     CD =  0.01932   =>   CDf =  0.00597    CDp =  0.01335

 MRCHDU: Convergence failed at  81  side 2    Res =  0.4768E+00
 Side 1  free  transition at x/c =  0.7750   63
 Side 2  free  transition at x/c =  0.8532   72

   5   rms: 0.8626E+00   max: 0.3896E+01   D at   66  1   RLX: 0.149
       a = -1.500      CL = -0.0560
      Cm = -0.0275     CD =  0.01979   =>   CDf =  0.00617    CDp =  0.01362

 Side 1  free  transition at x/c =  0.7617   63
 Side 2  free  transition at x/c =  0.8182   70

   6   rms: 0.1585E+00   max: -.1144E+01   T at   70  2   RLX: 0.437
       a = -1.500      CL = -0.0107
      Cm = -0.0353     CD =  0.02233   =>   CDf =  0.00605    CDp =  0.01628

 Side 1  free  transition at x/c =  0.7621   63
 Side 2  free  transition at x/c =  0.8503   72

   7   rms: 0.1410E+00   max: 0.9232E+00   D at   81  2
       a = -1.500      CL =  0.0660
      Cm = -0.0465     CD =  0.02161   =>   CDf =  0.00605    CDp =  0.01556

 Side 1  free  transition at x/c =  0.7628   64
 Side 2  free  transition at x/c =  0.8440   71

   8   rms: 0.9423E-01   max: -.7106E+00   D at   80  2   RLX: 0.704
       a = -1.500      CL =  0.0485
      Cm = -0.0465     CD =  0.02287   =>   CDf =  0.00606    CDp =  0.01682

 Side 1  free  transition at x/c =  0.7618   64
 Side 2  free  transition at x/c =  0.8657   72

   9   rms: 0.3619E-01   max: 0.3716E+00   D at   74  2
       a = -1.500      CL =  0.0570
      Cm = -0.0464     CD =  0.02188   =>   CDf =  0.00608    CDp =  0.01581

 Side 1  free  transition at x/c =  0.7620   64
 Side 2  free  transition at x/c =  0.8551   72

  10   rms: 0.8748E-02   max: -.1372E+00   D at   80  2
       a = -1.500      CL =  0.0540
      Cm = -0.0458     CD =  0.02198   =>   CDf =  0.00610    CDp =  0.01587

 Side 1  free  transition at x/c =  0.7620   64
 Side 2  free  transition at x/c =  0.8554   72

  11   rms: 0.8019E-03   max: -.1526E-01   D at   80  2
       a = -1.500      CL =  0.0535
      Cm = -0.0457     CD =  0.02196   =>   CDf =  0.00611    CDp =  0.01586

 Side 1  free  transition at x/c =  0.7620   64
 Side 2  free  transition at x/c =  0.8554   72

  12   rms: 0.1079E-04   max: -.1927E-03   D at   80  2
       a = -1.500      CL =  0.0535
      Cm = -0.0457     CD =  0.02196   =>   CDf =  0.00611    CDp =  0.01586
 plradd ia,ip,cpol            6           0  1.01249795E-02

 Point added to stored polar  1
 Point written to save file  naca652415a05_Re150k.base.pol                   
 Dump file unspecified or not available
 Calculating wake trajectory ...
 Calculating source influence matrix ...

 Solving BL system ...

 Side 1  free  transition at x/c =  0.7620   64
 Side 2  free  transition at x/c =  0.8554   72

   1   rms: 0.9765E-01   max: -.4625E+00   T at   72  2
       a = -1.000      CL =  0.1145
      Cm = -0.0439     CD =  0.02230   =>   CDf =  0.00611    CDp =  0.01619

 Side 1  free  transition at x/c =  0.7602   63
 Side 2  free  transition at x/c =  0.8582   72

   2   rms: 0.5650E+00   max: -.2632E+01   T at   63  1   RLX: 0.190
       a = -1.000      CL =  0.1915
      Cm = -0.0555     CD =  0.02102   =>   CDf =  0.00627    CDp =  0.01475

 Side 1  free  transition at x/c =  0.7776   65
 Side 2  free  transition at x/c =  0.8496   70

   3   rms: 0.4204E+02   max: -.2102E+03   D at   80  1   RLX: 0.002
       a = -1.000      CL =  0.2702
      Cm = -0.0718     CD =  0.01781   =>   CDf =  0.00648    CDp =  0.01133

 MRCHDU: Convergence failed at  67  side 1    Res =  0.1443E+02
 MRCHDU: Convergence failed at  68  side 1    Res =  0.2155E+02
 MRCHDU: Convergence failed at  69  side 1    Res =  0.1055E+02
 MRCHDU: Convergence failed at  70  side 1    Res =  0.1232E+02
 MRCHDU: Convergence failed at  71  side 1    Res =  0.1318E+02
 MRCHDU: Convergence failed at  72  side 1    Res =  0.1961E+02
 MRCHDU: Convergence failed at  73  side 1    Res =  0.2114E+02
 MRCHDU: Convergence failed at  74  side 1    Res =  0.3186E+02
 MRCHDU: Convergence failed at  75  side 1    Res =  0.4707E+02
 MRCHDU: Convergence failed at  76  side 1    Res =  0.8418E+02
 MRCHDU: Convergence failed at  77  side 1    Res =  0.4421E+02
 MRCHDU: Convergence failed at  78  side 1    Res =  0.4256E+03
 MRCHDU: Convergence failed at  79  side 1    Res =  0.2811E+02
 MRCHDU: Convergence failed at  80  side 1    Res =  0.3086E+02
 MRCHDU: Convergence failed at  81  side 1    Res =  0.8409E+02
 Side 1  free  transition at x/c =  0.7920   66
 Side 2  free  transition at x/c =  0.8400   70
 idif Ue xi dudx           1  0.17891879      2.18760967E-03   81.787346    
 Uenew xinew           2  1.97726171E-02  2.41756439E-04

   4   rms: 0.6476E+00   max: 0.3605E+01   T at   66  1   RLX: 0.283
       a = -1.000      CL =  0.2029
      Cm = -0.1034     CD =  0.01292   =>   CDf =  0.00637    CDp =  0.00655

 Side 1  free  transition at x/c =  0.7656   64
 Side 2  free  transition at x/c =  0.8568   72

   5   rms: 0.2861E+00   max: -.1417E+01   T at   72  2   RLX: 0.353
       a = -1.000      CL =  0.0640
      Cm = -0.0554     CD =  0.02520   =>   CDf =  0.00613    CDp =  0.01908

 Side 1  free  transition at x/c =  0.7582   63
 Side 2  free  transition at x/c =  0.8905   74
 idif Ue xi dudx           1  0.21729644      2.83908844E-03   76.537399    
 Uenew xinew           2  6.12765774E-02  8.00609589E-04

   6   rms: 0.1941E+00   max: 0.1405E+01   T at   63  1   RLX: 0.700
       a = -1.000      CL = -0.0728
      Cm = -0.0255     CD =  0.02570   =>   CDf =  0.00604    CDp =  0.01967

 Side 1  free  transition at x/c =  0.7428   61
 Side 2  free  transition at x/c =  0.8651   73

   7   rms: 0.1132E+00   max: -.4974E+00   T at   73  2
       a = -1.000      CL = -0.0329
      Cm = -0.0266     CD =  0.02748   =>   CDf =  0.00576    CDp =  0.02172

 Side 1  free  transition at x/c =  0.7409   61
 Side 2  free  transition at x/c =  0.8853   74

   8   rms: 0.2233E+00   max: 0.6757E+00   D at   82  2   RLX: 0.647
       a = -1.000      CL =  0.0747
      Cm = -0.0379     CD =  0.02286   =>   CDf =  0.00589    CDp =  0.01697

 Side 1  free  transition at x/c =  0.7595   63
 Side 2  free  transition at x/c =  0.8729   73

   9   rms: 0.9164E+00   max: -.4030E+01   D at   73  1   RLX: 0.124
       a = -1.000      CL =  0.1562
      Cm = -0.0493     CD =  0.01971   =>   CDf =  0.00622    CDp =  0.01349

 Side 1  free  transition at x/c =  0.7766   65
 Side 2  free  transition at x/c =  0.8626   71
 idif Ue xi dudx           1  0.30127233      3.82483006E-03   78.767509    
 Uenew xinew           2  0.14800233      1.87897682E-03

  10   rms: 0.6341E+01   max: 0.3000E+02   D at   75  1   RLX: 0.039
       a = -1.000      CL =  0.0027
      Cm = -0.0314     CD =  0.02422   =>   CDf =  0.00644    CDp =  0.01778

 Side 1  free  transition at x/c =  0.7589   63
 Side 2  free  transition at x/c =  0.8888   74

  11   rms: 0.1334E+00   max: -.3224E+00   D at   89  2
       a = -1.000      CL =  0.1302
      Cm = -0.0483     CD =  0.02164   =>   CDf =  0.00602    CDp =  0.01562

 Side 1  free  transition at x/c =  0.7610   64
 Side 2  free  transition at x/c =  0.8704   71

  12   rms: 0.1659E+00   max: -.1294E+01   T at    2  1   RLX: 0.386
       a = -1.000      CL =  0.1731
      Cm = -0.0550     CD =  0.02066   =>   CDf =  0.00629    CDp =  0.01437

 Side 1  free  transition at x/c =  0.7682   65
 Side 2  free  transition at x/c =  0.8634   71
 idif Ue xi dudx           1  0.19384368      2.32851505E-03   83.247765    
 Uenew xinew           2  3.18557397E-02  3.82661819E-04

  13   rms: 0.1239E+00   max: 0.6532E+00   D at   68  1
       a = -1.000      CL =  0.0966
      Cm = -0.0429     CD =  0.02247   =>   CDf =  0.00640    CDp =  0.01607

 Side 1  free  transition at x/c =  0.7593   63
 Side 2  free  transition at x/c =  0.8751   73

  14   rms: 0.8699E+00   max: 0.4252E+01   T at   63  1   RLX: 0.232
       a = -1.000      CL = -0.0117
      Cm = -0.0326     CD =  0.02685   =>   CDf =  0.00625    CDp =  0.02060

 Side 1  free  transition at x/c =  0.7430   62
 Side 2  free  transition at x/c =  0.8819   73
 idif Ue xi dudx           1  0.27950653      3.70192528E-03   75.503021    
 Uenew xinew           2  0.12559523      1.66344643E-03

  15   rms: 0.3779E+00   max: 0.1792E+01   T at   62  1   RLX: 0.366
       a = -1.000      CL = -0.1395
      Cm = -0.0149     CD =  0.02906   =>   CDf =  0.00585    CDp =  0.02321

 Side 1  free  transition at x/c =  0.7343   61
 Side 2  free  transition at x/c =  0.8201   70

  16   rms: 0.2377E+00   max: 0.1849E+01   C at   70  2   RLX: 0.290
       a = -1.000      CL = -0.0890
      Cm = -0.0250     CD =  0.03382   =>   CDf =  0.00564    CDp =  0.02818

 MRCHDU: Convergence failed at  76  side 2    Res =  0.3162E+01
 Side 1  free  transition at x/c =  0.7355   61
 Side 2  free  transition at x/c =  0.8620   73

  17   rms: 0.1254E+00   max: -.5069E+00   T at   73  2   RLX: 0.986
       a = -1.000      CL = -0.0318
      Cm = -0.0245     CD =  0.02587   =>   CDf =  0.00572    CDp =  0.02014

 Side 1  free  transition at x/c =  0.7426   61
 Side 2  free  transition at x/c =  0.8736   74

  18   rms: 0.1445E+02   max: -.4438E+02   D at   82  2   RLX: 0.011
       a = -1.000      CL = -0.1672
      Cm = -0.0108     CD =  0.03362   =>   CDf =  0.00585    CDp =  0.02778

 Side 1  free  transition at x/c =  0.7331   61
 Side 2  free  transition at x/c =  0.8024   69

  19   rms: 0.2910E+00   max: 0.1976E+01   C at   69  2   RLX: 0.272
       a = -1.000      CL = -0.1027
      Cm = -0.0218     CD =  0.03521   =>   CDf =  0.00554    CDp =  0.02966

 Side 1  free  transition at x/c =  0.7350   61
 Side 2  free  transition at x/c =  0.8512   72

  20   rms: 0.1589E+00   max: -.1103E+01   T at   72  2   RLX: 0.453
       a = -1.000      CL = -0.0668
      Cm = -0.0222     CD =  0.02965   =>   CDf =  0.00574    CDp =  0.02391

 Side 1  free  transition at x/c =  0.7385   61
 Side 2  free  transition at x/c =  0.8800   74

  21   rms: 0.1304E+00   max: 0.8003E+00   D at   75  2
       a = -1.000      CL =  0.0104
      Cm = -0.0295     CD =  0.02420   =>   CDf =  0.00582    CDp =  0.01838

 Side 1  free  transition at x/c =  0.7470   63
 Side 2  free  transition at x/c =  0.8730   73

  22   rms: 0.7853E-01   max: -.5211E+00   D at   73  2   RLX: 0.960
       a = -1.000      CL =  0.0440
      Cm = -0.0369     CD =  0.02401   =>   CDf =  0.00592    CDp =  0.01809

 Side 1  free  transition at x/c =  0.7496   63
 Side 2  free  transition at x/c =  0.8883   74

  23   rms: 0.2302E-01   max: 0.1762E+00   D at   75  2
       a = -1.000      CL =  0.0592
      Cm = -0.0393     CD =  0.02348   =>   CDf =  0.00607    CDp =  0.01741

 Side 1  free  transition at x/c =  0.7504   63
 Side 2  free  transition at x/c =  0.8833   73

  24   rms: 0.2000E-01   max: 0.1722E+00   D at   75  2
       a = -1.000      CL =  0.0726
      Cm = -0.0412     CD =  0.02359   =>   CDf =  0.00610    CDp =  0.01749

 Side 1  free  transition at x/c =  0.7511   63
 Side 2  free  transition at x/c =  0.8759   73

  25   rms: 0.6617E-02   max: -.6188E-01   D at   76  2
       a = -1.000      CL =  0.0690
      Cm = -0.0406     CD =  0.02359   =>   CDf =  0.00611    CDp =  0.01748

 Side 1  free  transition at x/c =  0.7509   63
 Side 2  free  transition at x/c =  0.8779   73

  26   rms: 0.4112E-03   max: -.3880E-02   D at   75  2
       a = -1.000      CL =  0.0688
      Cm = -0.0406     CD =  0.02357   =>   CDf =  0.00610    CDp =  0.01747

 Side 1  free  transition at x/c =  0.7509   63
 Side 2  free  transition at x/c =  0.8780   73

  27   rms: 0.3628E-05   max: -.2352E-04   D at   76  2
       a = -1.000      CL =  0.0688
      Cm = -0.0406     CD =  0.02357   =>   CDf =  0.00610    CDp =  0.01747
 plradd ia,ip,cpol            7           0  1.28090382E-02

 Point added to stored polar  1
 Point written to save file  naca652415a05_Re150k.base.pol                   
 Dump file unspecified or not available
 Calculating wake trajectory ...
 Calculating source influence matrix ...

 Solving BL system ...

 Side 1  free  transition at x/c =  0.7509   63
 Side 2  free  transition at x/c =  0.8780   73

   1   rms: 0.7777E-01   max: -.3390E+00   T at   73  2
       a = -0.500      CL =  0.1188
      Cm = -0.0397     CD =  0.02385   =>   CDf =  0.00612    CDp =  0.01773

 Side 1  free  transition at x/c =  0.7465   64
 Side 2  free  transition at x/c =  0.8961   73

   2   rms: 0.1248E-01   max: -.4654E-01   D at   72  1
       a = -0.500      CL =  0.1244
      Cm = -0.0406     CD =  0.02369   =>   CDf =  0.00625    CDp =  0.01744

 Side 1  free  transition at x/c =  0.7471   64
 Side 2  free  transition at x/c =  0.8957   73

   3   rms: 0.7269E-03   max: 0.4539E-02   D at   75  2
       a = -0.500      CL =  0.1248
      Cm = -0.0407     CD =  0.02369   =>   CDf =  0.00626    CDp =  0.01743

 Side 1  free  transition at x/c =  0.7471   64
 Side 2  free  transition at x/c =  0.8955   73

   4   rms: 0.1722E-04   max: 0.9612E-04   D at   76  2
       a = -0.500      CL =  0.1249
      Cm = -0.0407     CD =  0.02369   =>   CDf =  0.00626    CDp =  0.01743
 plradd ia,ip,cpol            8           0  0.39085889    

 Point added to stored polar  1
 Point written to save file  naca652415a05_Re150k.base.pol                   
 Dump file unspecified or not available
 Calculating wake trajectory ...
 Calculating source influence matrix ...

 Solving BL system ...

 Side 1  free  transition at x/c =  0.7471   64
 Side 2  free  transition at x/c =  0.8955   73

   1   rms: 0.8365E-01   max: -.3127E+00   T at   73  2
       a =  0.000      CL =  0.1850
      Cm = -0.0414     CD =  0.02376   =>   CDf =  0.00628    CDp =  0.01749

 Side 1  free  transition at x/c =  0.7445   64
 Side 2  free  transition at x/c =  0.9145   73

   2   rms: 0.2933E-01   max: -.2376E+00   D at    2  1
       a =  0.000      CL =  0.2048
      Cm = -0.0440     CD =  0.02321   =>   CDf =  0.00641    CDp =  0.01680

 Side 1  free  transition at x/c =  0.7471   65
 Side 2  free  transition at x/c =  0.9091   73

   3   rms: 0.4104E-01   max: 0.1866E+00   D at   70  1
       a =  0.000      CL =  0.1921
      Cm = -0.0427     CD =  0.02383   =>   CDf =  0.00646    CDp =  0.01737

 Side 1  free  transition at x/c =  0.7448   64
 Side 2  free  transition at x/c =  0.9110   73

   4   rms: 0.1809E-01   max: -.1014E+00   T at   64  1
       a =  0.000      CL =  0.2040
      Cm = -0.0439     CD =  0.02320   =>   CDf =  0.00642    CDp =  0.01679

 Side 1  free  transition at x/c =  0.7471   65
 Side 2  free  transition at x/c =  0.9094   73

   5   rms: 0.4211E-01   max: 0.1887E+00   D at   70  1
       a =  0.000      CL =  0.1921
      Cm = -0.0427     CD =  0.02383   =>   CDf =  0.00646    CDp =  0.01737

 Side 1  free  transition at x/c =  0.7448   64
 Side 2  free  transition at x/c =  0.9110   73

   6   rms: 0.1815E-01   max: -.1018E+00   T at   64  1
       a =  0.000      CL =  0.2041
      Cm = -0.0439     CD =  0.02320   =>   CDf =  0.00642    CDp =  0.01679

 Side 1  free  transition at x/c =  0.7471   65
 Side 2  free  transition at x/c =  0.9094   73

   7   rms: 0.4220E-01   max: 0.1891E+00   D at   70  1
       a =  0.000      CL =  0.1921
      Cm = -0.0427     CD =  0.02383   =>   CDf =  0.00646    CDp =  0.01737

 Side 1  free  transition at x/c =  0.7448   64
 Side 2  free  transition at x/c =  0.9110   73

   8   rms: 0.1817E-01   max: -.1019E+00   T at   64  1
       a =  0.000      CL =  0.2041
      Cm = -0.0439     CD =  0.02320   =>   CDf =  0.00642    CDp =  0.01679

 Side 1  free  transition at x/c =  0.7471   65
 Side 2  free  transition at x/c =  0.9094   73

   9   rms: 0.4221E-01   max: 0.1892E+00   D at   70  1
       a =  0.000      CL =  0.1921
      Cm = -0.0427     CD =  0.02383   =>   CDf =  0.00646    CDp =  0.01737

 Side 1  free  transition at x/c =  0.7448   64
 Side 2  free  transition at x/c =  0.9110   73

  10   rms: 0.1817E-01   max: -.1019E+00   T at   64  1
       a =  0.000      CL =  0.2041
      Cm = -0.0439     CD =  0.02320   =>   CDf =  0.00642    CDp =  0.01679

 Side 1  free  transition at x/c =  0.7471   65
 Side 2  free  transition at x/c =  0.9094   73

  11   rms: 0.4220E-01   max: 0.1891E+00   D at   70  1
       a =  0.000      CL =  0.1921
      Cm = -0.0427     CD =  0.02383   =>   CDf =  0.00646    CDp =  0.01737

 Side 1  free  transition at x/c =  0.7448   64
 Side 2  free  transition at x/c =  0.9110   73

  12   rms: 0.1817E-01   max: -.1019E+00   T at   64  1
       a =  0.000      CL =  0.2041
      Cm = -0.0439     CD =  0.02320   =>   CDf =  0.00642    CDp =  0.01679

 Side 1  free  transition at x/c =  0.7471   65
 Side 2  free  transition at x/c =  0.9094   73

  13   rms: 0.4221E-01   max: 0.1892E+00   D at   70  1
       a =  0.000      CL =  0.1921
      Cm = -0.0427     CD =  0.02383   =>   CDf =  0.00646    CDp =  0.01737

 Side 1  free  transition at x/c =  0.7448   64
 Side 2  free  transition at x/c =  0.9110   73

  14   rms: 0.1817E-01   max: -.1019E+00   T at   64  1
       a =  0.000      CL =  0.2041
      Cm = -0.0439     CD =  0.02320   =>   CDf =  0.00642    CDp =  0.01679

 Side 1  free  transition at x/c =  0.7471   65
 Side 2  free  transition at x/c =  0.9094   73

  15   rms: 0.4221E-01   max: 0.1892E+00   D at   70  1
       a =  0.000      CL =  0.1921
      Cm = -0.0427     CD =  0.02383   =>   CDf =  0.00646    CDp =  0.01737

 Side 1  free  transition at x/c =  0.7448   64
 Side 2  free  transition at x/c =  0.9110   73

  16   rms: 0.1817E-01   max: -.1019E+00   T at   64  1
       a =  0.000      CL =  0.2041
      Cm = -0.0439     CD =  0.02320   =>   CDf =  0.00642    CDp =  0.01679

 Side 1  free  transition at x/c =  0.7471   65
 Side 2  free  transition at x/c =  0.9094   73

  17   rms: 0.4220E-01   max: 0.1891E+00   D at   70  1
       a =  0.000      CL =  0.1921
      Cm = -0.0427     CD =  0.02383   =>   CDf =  0.00646    CDp =  0.01737

 Side 1  free  transition at x/c =  0.7448   64
 Side 2  free  transition at x/c =  0.9110   73

  18   rms: 0.1817E-01   max: -.1019E+00   T at   64  1
       a =  0.000      CL =  0.2041
      Cm = -0.0439     CD =  0.02320   =>   CDf =  0.00642    CDp =  0.01679

 Side 1  free  transition at x/c =  0.7471   65
 Side 2  free  transition at x/c =  0.9094   73

  19   rms: 0.4221E-01   max: 0.1892E+00   D at   70  1
       a =  0.000      CL =  0.1921
      Cm = -0.0427     CD =  0.02383   =>   CDf =  0.00646    CDp =  0.01737

 Side 1  free  transition at x/c =  0.7448   64
 Side 2  free  transition at x/c =  0.9110   73

  20   rms: 0.1817E-01   max: -.1019E+00   T at   64  1
       a =  0.000      CL =  0.2041
      Cm = -0.0439     CD =  0.02320   =>   CDf =  0.00642    CDp =  0.01679

 Side 1  free  transition at x/c =  0.7471   65
 Side 2  free  transition at x/c =  0.9094   73

  21   rms: 0.4221E-01   max: 0.1891E+00   D at   70  1
       a =  0.000      CL =  0.1921
      Cm = -0.0427     CD =  0.02383   =>   CDf =  0.00646    CDp =  0.01737

 Side 1  free  transition at x/c =  0.7448   64
 Side 2  free  transition at x/c =  0.9110   73

  22   rms: 0.1816E-01   max: -.1019E+00   T at   64  1
       a =  0.000      CL =  0.2041
      Cm = -0.0439     CD =  0.02320   =>   CDf =  0.00642    CDp =  0.01679

 Side 1  free  transition at x/c =  0.7471   65
 Side 2  free  transition at x/c =  0.9094   73

  23   rms: 0.4221E-01   max: 0.1891E+00   D at   70  1
       a =  0.000      CL =  0.1921
      Cm = -0.0427     CD =  0.02383   =>   CDf =  0.00646    CDp =  0.01737

 Side 1  free  transition at x/c =  0.7448   64
 Side 2  free  transition at x/c =  0.9110   73

  24   rms: 0.1817E-01   max: -.1019E+00   T at   64  1
       a =  0.000      CL =  0.2041
      Cm = -0.0439     CD =  0.02320   =>   CDf =  0.00642    CDp =  0.01679

 Side 1  free  transition at x/c =  0.7471   65
 Side 2  free  transition at x/c =  0.9094   73

  25   rms: 0.4221E-01   max: 0.1892E+00   D at   70  1
       a =  0.000      CL =  0.1921
      Cm = -0.0427     CD =  0.02383   =>   CDf =  0.00646    CDp =  0.01737

 Side 1  free  transition at x/c =  0.7448   64
 Side 2  free  transition at x/c =  0.9110   73

  26   rms: 0.1817E-01   max: -.1019E+00   T at   64  1
       a =  0.000      CL =  0.2041
      Cm = -0.0439     CD =  0.02320   =>   CDf =  0.00642    CDp =  0.01679

 Side 1  free  transition at x/c =  0.7471   65
 Side 2  free  transition at x/c =  0.9094   73

  27   rms: 0.4221E-01   max: 0.1892E+00   D at   70  1
       a =  0.000      CL =  0.1921
      Cm = -0.0427     CD =  0.02383   =>   CDf =  0.00646    CDp =  0.01737

 Side 1  free  transition at x/c =  0.7448   64
 Side 2  free  transition at x/c =  0.9110   73

  28   rms: 0.1817E-01   max: -.1019E+00   T at   64  1
       a =  0.000      CL =  0.2041
      Cm = -0.0439     CD =  0.02320   =>   CDf =  0.00642    CDp =  0.01679

 Side 1  free  transition at x/c =  0.7471   65
 Side 2  free  transition at x/c =  0.9094   73

  29   rms: 0.4221E-01   max: 0.1892E+00   D at   70  1
       a =  0.000      CL =  0.1921
      Cm = -0.0427     CD =  0.02383   =>   CDf =  0.00646    CDp =  0.01737

 Side 1  free  transition at x/c =  0.7448   64
 Side 2  free  transition at x/c =  0.9110   73

  30   rms: 0.1817E-01   max: -.1019E+00   T at   64  1
       a =  0.000      CL =  0.2041
      Cm = -0.0439     CD =  0.02320   =>   CDf =  0.00642    CDp =  0.01679

 Side 1  free  transition at x/c =  0.7471   65
 Side 2  free  transition at x/c =  0.9094   73

  31   rms: 0.4221E-01   max: 0.1892E+00   D at   70  1
       a =  0.000      CL =  0.1921
      Cm = -0.0427     CD =  0.02383   =>   CDf =  0.00646    CDp =  0.01737

 Side 1  free  transition at x/c =  0.7448   64
 Side 2  free  transition at x/c =  0.9110   73

  32   rms: 0.1817E-01   max: -.1019E+00   T at   64  1
       a =  0.000      CL =  0.2041
      Cm = -0.0439     CD =  0.02320   =>   CDf =  0.00642    CDp =  0.01679

 Side 1  free  transition at x/c =  0.7471   65
 Side 2  free  transition at x/c =  0.9094   73

  33   rms: 0.4220E-01   max: 0.1891E+00   D at   70  1
       a =  0.000      CL =  0.1921
      Cm = -0.0427     CD =  0.02383   =>   CDf =  0.00646    CDp =  0.01737

 Side 1  free  transition at x/c =  0.7448   64
 Side 2  free  transition at x/c =  0.9110   73

  34   rms: 0.1817E-01   max: -.1019E+00   T at   64  1
       a =  0.000      CL =  0.2041
      Cm = -0.0439     CD =  0.02320   =>   CDf =  0.00642    CDp =  0.01679

 Side 1  free  transition at x/c =  0.7471   65
 Side 2  free  transition at x/c =  0.9094   73

  35   rms: 0.4221E-01   max: 0.1892E+00   D at   70  1
       a =  0.000      CL =  0.1921
      Cm = -0.0427     CD =  0.02383   =>   CDf =  0.00646    CDp =  0.01737

 Side 1  free  transition at x/c =  0.7448   64
 Side 2  free  transition at x/c =  0.9110   73

  36   rms: 0.1816E-01   max: -.1019E+00   T at   64  1
       a =  0.000      CL =  0.2041
      Cm = -0.0439     CD =  0.02320   =>   CDf =  0.00642    CDp =  0.01679

 Side 1  free  transition at x/c =  0.7471   65
 Side 2  free  transition at x/c =  0.9094   73

  37   rms: 0.4220E-01   max: 0.1891E+00   D at   70  1
       a =  0.000      CL =  0.1921
      Cm = -0.0427     CD =  0.02383   =>   CDf =  0.00646    CDp =  0.01737

 Side 1  free  transition at x/c =  0.7448   64
 Side 2  free  transition at x/c =  0.9110   73

  38   rms: 0.1816E-01   max: -.1019E+00   T at   64  1
       a =  0.000      CL =  0.2041
      Cm = -0.0439     CD =  0.02320   =>   CDf =  0.00642    CDp =  0.01679

 Side 1  free  transition at x/c =  0.7471   65
 Side 2  free  transition at x/c =  0.9094   73

  39   rms: 0.4220E-01   max: 0.1891E+00   D at   70  1
       a =  0.000      CL =  0.1921
      Cm = -0.0427     CD =  0.02383   =>   CDf =  0.00646    CDp =  0.01737

 Side 1  free  transition at x/c =  0.7448   64
 Side 2  free  transition at x/c =  0.9110   73

  40   rms: 0.1817E-01   max: -.1019E+00   T at   64  1
       a =  0.000      CL =  0.2041
      Cm = -0.0439     CD =  0.02320   =>   CDf =  0.00642    CDp =  0.01679

 Side 1  free  transition at x/c =  0.7471   65
 Side 2  free  transition at x/c =  0.9094   73

  41   rms: 0.4221E-01   max: 0.1892E+00   D at   70  1
       a =  0.000      CL =  0.1921
      Cm = -0.0427     CD =  0.02383   =>   CDf =  0.00646    CDp =  0.01737

 Side 1  free  transition at x/c =  0.7448   64
 Side 2  free  transition at x/c =  0.9110   73

  42   rms: 0.1817E-01   max: -.1019E+00   T at   64  1
       a =  0.000      CL =  0.2041
      Cm = -0.0439     CD =  0.02320   =>   CDf =  0.00642    CDp =  0.01679

 Side 1  free  transition at x/c =  0.7471   65
 Side 2  free  transition at x/c =  0.9094   73

  43   rms: 0.4221E-01   max: 0.1891E+00   D at   70  1
       a =  0.000      CL =  0.1921
      Cm = -0.0427     CD =  0.02383   =>   CDf =  0.00646    CDp =  0.01737

 Side 1  free  transition at x/c =  0.7448   64
 Side 2  free  transition at x/c =  0.9110   73

  44   rms: 0.1816E-01   max: -.1019E+00   T at   64  1
       a =  0.000      CL =  0.2041
      Cm = -0.0439     CD =  0.02320   =>   CDf =  0.00642    CDp =  0.01679

 Side 1  free  transition at x/c =  0.7471   65
 Side 2  free  transition at x/c =  0.9094   73

  45   rms: 0.4221E-01   max: 0.1891E+00   D at   70  1
       a =  0.000      CL =  0.1921
      Cm = -0.0427     CD =  0.02383   =>   CDf =  0.00646    CDp =  0.01737

 Side 1  free  transition at x/c =  0.7448   64
 Side 2  free  transition at x/c =  0.9110   73

  46   rms: 0.1817E-01   max: -.1019E+00   T at   64  1
       a =  0.000      CL =  0.2041
      Cm = -0.0439     CD =  0.02320   =>   CDf =  0.00642    CDp =  0.01679

 Side 1  free  transition at x/c =  0.7471   65
 Side 2  free  transition at x/c =  0.9094   73

  47   rms: 0.4221E-01   max: 0.1892E+00   D at   70  1
       a =  0.000      CL =  0.1921
      Cm = -0.0427     CD =  0.02383   =>   CDf =  0.00646    CDp =  0.01737

 Side 1  free  transition at x/c =  0.7448   64
 Side 2  free  transition at x/c =  0.9110   73

  48   rms: 0.1816E-01   max: -.1019E+00   T at   64  1
       a =  0.000      CL =  0.2041
      Cm = -0.0439     CD =  0.02320   =>   CDf =  0.00642    CDp =  0.01679

 Side 1  free  transition at x/c =  0.7471   65
 Side 2  free  transition at x/c =  0.9094   73

  49   rms: 0.4220E-01   max: 0.1891E+00   D at   70  1
       a =  0.000      CL =  0.1921
      Cm = -0.0427     CD =  0.02383   =>   CDf =  0.00646    CDp =  0.01737

 Side 1  free  transition at x/c =  0.7448   64
 Side 2  free  transition at x/c =  0.9110   73

  50   rms: 0.1816E-01   max: -.1019E+00   T at   64  1
       a =  0.000      CL =  0.2041
      Cm = -0.0439     CD =  0.02320   =>   CDf =  0.00642    CDp =  0.01679

 Side 1  free  transition at x/c =  0.7471   65
 Side 2  free  transition at x/c =  0.9094   73

  51   rms: 0.4220E-01   max: 0.1891E+00   D at   70  1
       a =  0.000      CL =  0.1921
      Cm = -0.0427     CD =  0.02383   =>   CDf =  0.00646    CDp =  0.01737

 Side 1  free  transition at x/c =  0.7448   64
 Side 2  free  transition at x/c =  0.9110   73

  52   rms: 0.1816E-01   max: -.1019E+00   T at   64  1
       a =  0.000      CL =  0.2041
      Cm = -0.0439     CD =  0.02320   =>   CDf =  0.00642    CDp =  0.01679

 Side 1  free  transition at x/c =  0.7471   65
 Side 2  free  transition at x/c =  0.9094   73

  53   rms: 0.4221E-01   max: 0.1891E+00   D at   70  1
       a =  0.000      CL =  0.1921
      Cm = -0.0427     CD =  0.02383   =>   CDf =  0.00646    CDp =  0.01737

 Side 1  free  transition at x/c =  0.7448   64
 Side 2  free  transition at x/c =  0.9110   73

  54   rms: 0.1816E-01   max: -.1019E+00   T at   64  1
       a =  0.000      CL =  0.2041
      Cm = -0.0439     CD =  0.02320   =>   CDf =  0.00642    CDp =  0.01679

 Side 1  free  transition at x/c =  0.7471   65
 Side 2  free  transition at x/c =  0.9094   73

  55   rms: 0.4220E-01   max: 0.1891E+00   D at   70  1
       a =  0.000      CL =  0.1921
      Cm = -0.0427     CD =  0.02383   =>   CDf =  0.00646    CDp =  0.01737

 Side 1  free  transition at x/c =  0.7448   64
 Side 2  free  transition at x/c =  0.9110   73

  56   rms: 0.1817E-01   max: -.1019E+00   T at   64  1
       a =  0.000      CL =  0.2041
      Cm = -0.0439     CD =  0.02320   =>   CDf =  0.00642    CDp =  0.01679

 Side 1  free  transition at x/c =  0.7471   65
 Side 2  free  transition at x/c =  0.9094   73

  57   rms: 0.4221E-01   max: 0.1892E+00   D at   70  1
       a =  0.000      CL =  0.1921
      Cm = -0.0427     CD =  0.02383   =>   CDf =  0.00646    CDp =  0.01737

 Side 1  free  transition at x/c =  0.7448   64
 Side 2  free  transition at x/c =  0.9110   73

  58   rms: 0.1816E-01   max: -.1019E+00   T at   64  1
       a =  0.000      CL =  0.2041
      Cm = -0.0439     CD =  0.02320   =>   CDf =  0.00642    CDp =  0.01679

 Side 1  free  transition at x/c =  0.7471   65
 Side 2  free  transition at x/c =  0.9094   73

  59   rms: 0.4220E-01   max: 0.1891E+00   D at   70  1
       a =  0.000      CL =  0.1921
      Cm = -0.0427     CD =  0.02383   =>   CDf =  0.00646    CDp =  0.01737

 Side 1  free  transition at x/c =  0.7448   64
 Side 2  free  transition at x/c =  0.9110   73

  60   rms: 0.1816E-01   max: -.1019E+00   T at   64  1
       a =  0.000      CL =  0.2041
      Cm = -0.0439     CD =  0.02320   =>   CDf =  0.00642    CDp =  0.01679

 Side 1  free  transition at x/c =  0.7471   65
 Side 2  free  transition at x/c =  0.9094   73

  61   rms: 0.4220E-01   max: 0.1891E+00   D at   70  1
       a =  0.000      CL =  0.1921
      Cm = -0.0427     CD =  0.02383   =>   CDf =  0.00646    CDp =  0.01737

 Side 1  free  transition at x/c =  0.7448   64
 Side 2  free  transition at x/c =  0.9110   73

  62   rms: 0.1817E-01   max: -.1019E+00   T at   64  1
       a =  0.000      CL =  0.2041
      Cm = -0.0439     CD =  0.02320   =>   CDf =  0.00642    CDp =  0.01679

 Side 1  free  transition at x/c =  0.7471   65
 Side 2  free  transition at x/c =  0.9094   73

  63   rms: 0.4220E-01   max: 0.1891E+00   D at   70  1
       a =  0.000      CL =  0.1921
      Cm = -0.0427     CD =  0.02383   =>   CDf =  0.00646    CDp =  0.01737

 Side 1  free  transition at x/c =  0.7448   64
 Side 2  free  transition at x/c =  0.9110   73

  64   rms: 0.1816E-01   max: -.1019E+00   T at   64  1
       a =  0.000      CL =  0.2041
      Cm = -0.0439     CD =  0.02320   =>   CDf =  0.00642    CDp =  0.01679

 Side 1  free  transition at x/c =  0.7471   65
 Side 2  free  transition at x/c =  0.9094   73

  65   rms: 0.4221E-01   max: 0.1891E+00   D at   70  1
       a =  0.000      CL =  0.1921
      Cm = -0.0427     CD =  0.02383   =>   CDf =  0.00646    CDp =  0.01737

 Side 1  free  transition at x/c =  0.7448   64
 Side 2  free  transition at x/c =  0.9110   73

  66   rms: 0.1817E-01   max: -.1019E+00   T at   64  1
       a =  0.000      CL =  0.2041
      Cm = -0.0439     CD =  0.02320   =>   CDf =  0.00642    CDp =  0.01679

 Side 1  free  transition at x/c =  0.7471   65
 Side 2  free  transition at x/c =  0.9094   73

  67   rms: 0.4221E-01   max: 0.1892E+00   D at   70  1
       a =  0.000      CL =  0.1921
      Cm = -0.0427     CD =  0.02383   =>   CDf =  0.00646    CDp =  0.01737

 Side 1  free  transition at x/c =  0.7448   64
 Side 2  free  transition at x/c =  0.9110   73

  68   rms: 0.1816E-01   max: -.1019E+00   T at   64  1
       a =  0.000      CL =  0.2041
      Cm = -0.0439     CD =  0.02320   =>   CDf =  0.00642    CDp =  0.01679

 Side 1  free  transition at x/c =  0.7471   65
 Side 2  free  transition at x/c =  0.9094   73

  69   rms: 0.4220E-01   max: 0.1891E+00   D at   70  1
       a =  0.000      CL =  0.1921
      Cm = -0.0427     CD =  0.02383   =>   CDf =  0.00646    CDp =  0.01737

 Side 1  free  transition at x/c =  0.7448   64
 Side 2  free  transition at x/c =  0.9110   73

  70   rms: 0.1816E-01   max: -.1019E+00   T at   64  1
       a =  0.000      CL =  0.2041
      Cm = -0.0439     CD =  0.02320   =>   CDf =  0.00642    CDp =  0.01679

 Side 1  free  transition at x/c =  0.7471   65
 Side 2  free  transition at x/c =  0.9094   73

  71   rms: 0.4220E-01   max: 0.1891E+00   D at   70  1
       a =  0.000      CL =  0.1921
      Cm = -0.0427     CD =  0.02383   =>   CDf =  0.00646    CDp =  0.01737

 Side 1  free  transition at x/c =  0.7448   64
 Side 2  free  transition at x/c =  0.9110   73

  72   rms: 0.1816E-01   max: -.1019E+00   T at   64  1
       a =  0.000      CL =  0.2041
      Cm = -0.0439     CD =  0.02320   =>   CDf =  0.00642    CDp =  0.01679

 Side 1  free  transition at x/c =  0.7471   65
 Side 2  free  transition at x/c =  0.9094   73

  73   rms: 0.4220E-01   max: 0.1891E+00   D at   70  1
       a =  0.000      CL =  0.1921
      Cm = -0.0427     CD =  0.02383   =>   CDf =  0.00646    CDp =  0.01737

 Side 1  free  transition at x/c =  0.7448   64
 Side 2  free  transition at x/c =  0.9110   73

  74   rms: 0.1817E-01   max: -.1019E+00   T at   64  1
       a =  0.000      CL =  0.2041
      Cm = -0.0439     CD =  0.02320   =>   CDf =  0.00642    CDp =  0.01679

 Side 1  free  transition at x/c =  0.7471   65
 Side 2  free  transition at x/c =  0.9094   73

  75   rms: 0.4220E-01   max: 0.1891E+00   D at   70  1
       a =  0.000      CL =  0.1921
      Cm = -0.0427     CD =  0.02383   =>   CDf =  0.00646    CDp =  0.01737

 Side 1  free  transition at x/c =  0.7448   64
 Side 2  free  transition at x/c =  0.9110   73

  76   rms: 0.1816E-01   max: -.1019E+00   T at   64  1
       a =  0.000      CL =  0.2041
      Cm = -0.0439     CD =  0.02320   =>   CDf =  0.00642    CDp =  0.01679

 Side 1  free  transition at x/c =  0.7471   65
 Side 2  free  transition at x/c =  0.9094   73

  77   rms: 0.4220E-01   max: 0.1891E+00   D at   70  1
       a =  0.000      CL =  0.1921
      Cm = -0.0427     CD =  0.02383   =>   CDf =  0.00646    CDp =  0.01737

 Side 1  free  transition at x/c =  0.7448   64
 Side 2  free  transition at x/c =  0.9110   73

  78   rms: 0.1816E-01   max: -.1019E+00   T at   64  1
       a =  0.000      CL =  0.2041
      Cm = -0.0439     CD =  0.02320   =>   CDf =  0.00642    CDp =  0.01679

 Side 1  free  transition at x/c =  0.7471   65
 Side 2  free  transition at x/c =  0.9094   73

  79   rms: 0.4220E-01   max: 0.1891E+00   D at   70  1
       a =  0.000      CL =  0.1921
      Cm = -0.0427     CD =  0.02383   =>   CDf =  0.00646    CDp =  0.01737

 Side 1  free  transition at x/c =  0.7448   64
 Side 2  free  transition at x/c =  0.9110   73

  80   rms: 0.1816E-01   max: -.1019E+00   T at   64  1
       a =  0.000      CL =  0.2041
      Cm = -0.0439     CD =  0.02320   =>   CDf =  0.00642    CDp =  0.01679

 Side 1  free  transition at x/c =  0.7471   65
 Side 2  free  transition at x/c =  0.9094   73

  81   rms: 0.4221E-01   max: 0.1892E+00   D at   70  1
       a =  0.000      CL =  0.1921
      Cm = -0.0427     CD =  0.02383   =>   CDf =  0.00646    CDp =  0.01737

 Side 1  free  transition at x/c =  0.7448   64
 Side 2  free  transition at x/c =  0.9110   73

  82   rms: 0.1816E-01   max: -.1019E+00   T at   64  1
       a =  0.000      CL =  0.2041
      Cm = -0.0439     CD =  0.02320   =>   CDf =  0.00642    CDp =  0.01679

 Side 1  free  transition at x/c =  0.7471   65
 Side 2  free  transition at x/c =  0.9094   73

  83   rms: 0.4220E-01   max: 0.1891E+00   D at   70  1
       a =  0.000      CL =  0.1921
      Cm = -0.0427     CD =  0.02383   =>   CDf =  0.00646    CDp =  0.01737

 Side 1  free  transition at x/c =  0.7448   64
 Side 2  free  transition at x/c =  0.9110   73

  84   rms: 0.1817E-01   max: -.1019E+00   T at   64  1
       a =  0.000      CL =  0.2041
      Cm = -0.0439     CD =  0.02320   =>   CDf =  0.00642    CDp =  0.01679

 Side 1  free  transition at x/c =  0.7471   65
 Side 2  free  transition at x/c =  0.9094   73

  85   rms: 0.4220E-01   max: 0.1891E+00   D at   70  1
       a =  0.000      CL =  0.1921
      Cm = -0.0427     CD =  0.02383   =>   CDf =  0.00646    CDp =  0.01737

 Side 1  free  transition at x/c =  0.7448   64
 Side 2  free  transition at x/c =  0.9110   73

  86   rms: 0.1817E-01   max: -.1019E+00   T at   64  1
       a =  0.000      CL =  0.2041
      Cm = -0.0439     CD =  0.02320   =>   CDf =  0.00642    CDp =  0.01679

 Side 1  free  transition at x/c =  0.7471   65
 Side 2  free  transition at x/c =  0.9094   73

  87   rms: 0.4221E-01   max: 0.1892E+00   D at   70  1
       a =  0.000      CL =  0.1921
      Cm = -0.0427     CD =  0.02383   =>   CDf =  0.00646    CDp =  0.01737

 Side 1  free  transition at x/c =  0.7448   64
 Side 2  free  transition at x/c =  0.9110   73

  88   rms: 0.1817E-01   max: -.1019E+00   T at   64  1
       a =  0.000      CL =  0.2041
      Cm = -0.0439     CD =  0.02320   =>   CDf =  0.00642    CDp =  0.01679

 Side 1  free  transition at x/c =  0.7471   65
 Side 2  free  transition at x/c =  0.9094   73

  89   rms: 0.4221E-01   max: 0.1891E+00   D at   70  1
       a =  0.000      CL =  0.1921
      Cm = -0.0427     CD =  0.02383   =>   CDf =  0.00646    CDp =  0.01737

 Side 1  free  transition at x/c =  0.7448   64
 Side 2  free  transition at x/c =  0.9110   73

  90   rms: 0.1816E-01   max: -.1019E+00   T at   64  1
       a =  0.000      CL =  0.2041
      Cm = -0.0439     CD =  0.02320   =>   CDf =  0.00642    CDp =  0.01679

 Side 1  free  transition at x/c =  0.7471   65
 Side 2  free  transition at x/c =  0.9094   73

  91   rms: 0.4220E-01   max: 0.1891E+00   D at   70  1
       a =  0.000      CL =  0.1921
      Cm = -0.0427     CD =  0.02383   =>   CDf =  0.00646    CDp =  0.01737

 Side 1  free  transition at x/c =  0.7448   64
 Side 2  free  transition at x/c =  0.9110   73

  92   rms: 0.1816E-01   max: -.1019E+00   T at   64  1
       a =  0.000      CL =  0.2041
      Cm = -0.0439     CD =  0.02320   =>   CDf =  0.00642    CDp =  0.01679

 Side 1  free  transition at x/c =  0.7471   65
 Side 2  free  transition at x/c =  0.9094   73

  93   rms: 0.4220E-01   max: 0.1891E+00   D at   70  1
       a =  0.000      CL =  0.1921
      Cm = -0.0427     CD =  0.02383   =>   CDf =  0.00646    CDp =  0.01737

 Side 1  free  transition at x/c =  0.7448   64
 Side 2  free  transition at x/c =  0.9110   73

  94   rms: 0.1817E-01   max: -.1019E+00   T at   64  1
       a =  0.000      CL =  0.2041
      Cm = -0.0439     CD =  0.02320   =>   CDf =  0.00642    CDp =  0.01679

 Side 1  free  transition at x/c =  0.7471   65
 Side 2  free  transition at x/c =  0.9094   73

  95   rms: 0.4221E-01   max: 0.1892E+00   D at   70  1
       a =  0.000      CL =  0.1921
      Cm = -0.0427     CD =  0.02383   =>   CDf =  0.00646    CDp =  0.01737

 Side 1  free  transition at x/c =  0.7448   64
 Side 2  free  transition at x/c =  0.9110   73

  96   rms: 0.1816E-01   max: -.1019E+00   T at   64  1
       a =  0.000      CL =  0.2041
      Cm = -0.0439     CD =  0.02320   =>   CDf =  0.00642    CDp =  0.01679

 Side 1  free  transition at x/c =  0.7471   65
 Side 2  free  transition at x/c =  0.9094   73

  97   rms: 0.4220E-01   max: 0.1891E+00   D at   70  1
       a =  0.000      CL =  0.1921
      Cm = -0.0427     CD =  0.02383   =>   CDf =  0.00646    CDp =  0.01737

 Side 1  free  transition at x/c =  0.7448   64
 Side 2  free  transition at x/c =  0.9110   73

  98   rms: 0.1817E-01   max: -.1019E+00   T at   64  1
       a =  0.000      CL =  0.2041
      Cm = -0.0439     CD =  0.02320   =>   CDf =  0.00642    CDp =  0.01679

 Side 1  free  transition at x/c =  0.7471   65
 Side 2  free  transition at x/c =  0.9094   73

  99   rms: 0.4221E-01   max: 0.1892E+00   D at   70  1
       a =  0.000      CL =  0.1921
      Cm = -0.0427     CD =  0.02383   =>   CDf =  0.00646    CDp =  0.01737

 Side 1  free  transition at x/c =  0.7448   64
 Side 2  free  transition at x/c =  0.9110   73

 100   rms: 0.1817E-01   max: -.1019E+00   T at   64  1
       a =  0.000      CL =  0.2041
      Cm = -0.0439     CD =  0.02320   =>   CDf =  0.00642    CDp =  0.01679

 Side 1  free  transition at x/c =  0.7471   65
 Side 2  free  transition at x/c =  0.9094   73

 101   rms: 0.4220E-01   max: 0.1891E+00   D at   70  1
       a =  0.000      CL =  0.1921
      Cm = -0.0427     CD =  0.02383   =>   CDf =  0.00646    CDp =  0.01737

 Side 1  free  transition at x/c =  0.7448   64
 Side 2  free  transition at x/c =  0.9110   73

 102   rms: 0.1817E-01   max: -.1019E+00   T at   64  1
       a =  0.000      CL =  0.2041
      Cm = -0.0439     CD =  0.02320   =>   CDf =  0.00642    CDp =  0.01679

 Side 1  free  transition at x/c =  0.7471   65
 Side 2  free  transition at x/c =  0.9094   73

 103   rms: 0.4220E-01   max: 0.1891E+00   D at   70  1
       a =  0.000      CL =  0.1921
      Cm = -0.0427     CD =  0.02383   =>   CDf =  0.00646    CDp =  0.01737

 Side 1  free  transition at x/c =  0.7448   64
 Side 2  free  transition at x/c =  0.9110   73

 104   rms: 0.1817E-01   max: -.1019E+00   T at   64  1
       a =  0.000      CL =  0.2041
      Cm = -0.0439     CD =  0.02320   =>   CDf =  0.00642    CDp =  0.01679

 Side 1  free  transition at x/c =  0.7471   65
 Side 2  free  transition at x/c =  0.9094   73

 105   rms: 0.4221E-01   max: 0.1892E+00   D at   70  1
       a =  0.000      CL =  0.1921
      Cm = -0.0427     CD =  0.02383   =>   CDf =  0.00646    CDp =  0.01737

 Side 1  free  transition at x/c =  0.7448   64
 Side 2  free  transition at x/c =  0.9110   73

 106   rms: 0.1816E-01   max: -.1019E+00   T at   64  1
       a =  0.000      CL =  0.2041
      Cm = -0.0439     CD =  0.02320   =>   CDf =  0.00642    CDp =  0.01679

 Side 1  free  transition at x/c =  0.7471   65
 Side 2  free  transition at x/c =  0.9094   73

 107   rms: 0.4220E-01   max: 0.1891E+00   D at   70  1
       a =  0.000      CL =  0.1921
      Cm = -0.0427     CD =  0.02383   =>   CDf =  0.00646    CDp =  0.01737

 Side 1  free  transition at x/c =  0.7448   64
 Side 2  free  transition at x/c =  0.9110   73

 108   rms: 0.1816E-01   max: -.1019E+00   T at   64  1
       a =  0.000      CL =  0.2041
      Cm = -0.0439     CD =  0.02320   =>   CDf =  0.00642    CDp =  0.01679

 Side 1  free  transition at x/c =  0.7471   65
 Side 2  free  transition at x/c =  0.9094   73

 109   rms: 0.4220E-01   max: 0.1891E+00   D at   70  1
       a =  0.000      CL =  0.1921
      Cm = -0.0427     CD =  0.02383   =>   CDf =  0.00646    CDp =  0.01737

 Side 1  free  transition at x/c =  0.7448   64
 Side 2  free  transition at x/c =  0.9110   73

 110   rms: 0.1816E-01   max: -.1019E+00   T at   64  1
       a =  0.000      CL =  0.2041
      Cm = -0.0439     CD =  0.02320   =>   CDf =  0.00642    CDp =  0.01679

 Side 1  free  transition at x/c =  0.7471   65
 Side 2  free  transition at x/c =  0.9094   73

 111   rms: 0.4220E-01   max: 0.1891E+00   D at   70  1
       a =  0.000      CL =  0.1921
      Cm = -0.0427     CD =  0.02383   =>   CDf =  0.00646    CDp =  0.01737

 Side 1  free  transition at x/c =  0.7448   64
 Side 2  free  transition at x/c =  0.9110   73

 112   rms: 0.1816E-01   max: -.1019E+00   T at   64  1
       a =  0.000      CL =  0.2041
      Cm = -0.0439     CD =  0.02320   =>   CDf =  0.00642    CDp =  0.01679

 Side 1  free  transition at x/c =  0.7471   65
 Side 2  free  transition at x/c =  0.9094   73

 113   rms: 0.4220E-01   max: 0.1891E+00   D at   70  1
       a =  0.000      CL =  0.1921
      Cm = -0.0427     CD =  0.02383   =>   CDf =  0.00646    CDp =  0.01737

 Side 1  free  transition at x/c =  0.7448   64
 Side 2  free  transition at x/c =  0.9110   73

 114   rms: 0.1816E-01   max: -.1019E+00   T at   64  1
       a =  0.000      CL =  0.2041
      Cm = -0.0439     CD =  0.02320   =>   CDf =  0.00642    CDp =  0.01679

 Side 1  free  transition at x/c =  0.7471   65
 Side 2  free  transition at x/c =  0.9094   73

 115   rms: 0.4220E-01   max: 0.1891E+00   D at   70  1
       a =  0.000      CL =  0.1921
      Cm = -0.0427     CD =  0.02383   =>   CDf =  0.00646    CDp =  0.01737

 Side 1  free  transition at x/c =  0.7448   64
 Side 2  free  transition at x/c =  0.9110   73

 116   rms: 0.1816E-01   max: -.1019E+00   T at   64  1
       a =  0.000      CL =  0.2041
      Cm = -0.0439     CD =  0.02320   =>   CDf =  0.00642    CDp =  0.01679

 Side 1  free  transition at x/c =  0.7471   65
 Side 2  free  transition at x/c =  0.9094   73

 117   rms: 0.4220E-01   max: 0.1891E+00   D at   70  1
       a =  0.000      CL =  0.1921
      Cm = -0.0427     CD =  0.02383   =>   CDf =  0.00646    CDp =  0.01737

 Side 1  free  transition at x/c =  0.7448   64
 Side 2  free  transition at x/c =  0.9110   73

 118   rms: 0.1816E-01   max: -.1019E+00   T at   64  1
       a =  0.000      CL =  0.2041
      Cm = -0.0439     CD =  0.02320   =>   CDf =  0.00642    CDp =  0.01679

 Side 1  free  transition at x/c =  0.7471   65
 Side 2  free  transition at x/c =  0.9094   73

 119   rms: 0.4220E-01   max: 0.1891E+00   D at   70  1
       a =  0.000      CL =  0.1921
      Cm = -0.0427     CD =  0.02383   =>   CDf =  0.00646    CDp =  0.01737

 Side 1  free  transition at x/c =  0.7448   64
 Side 2  free  transition at x/c =  0.9110   73

 120   rms: 0.1816E-01   max: -.1019E+00   T at   64  1
       a =  0.000      CL =  0.2041
      Cm = -0.0439     CD =  0.02320   =>   CDf =  0.00642    CDp =  0.01679

 Side 1  free  transition at x/c =  0.7471   65
 Side 2  free  transition at x/c =  0.9094   73

 121   rms: 0.4220E-01   max: 0.1891E+00   D at   70  1
       a =  0.000      CL =  0.1921
      Cm = -0.0427     CD =  0.02383   =>   CDf =  0.00646    CDp =  0.01737

 Side 1  free  transition at x/c =  0.7448   64
 Side 2  free  transition at x/c =  0.9110   73

 122   rms: 0.1817E-01   max: -.1019E+00   T at   64  1
       a =  0.000      CL =  0.2041
      Cm = -0.0439     CD =  0.02320   =>   CDf =  0.00642    CDp =  0.01679

 Side 1  free  transition at x/c =  0.7471   65
 Side 2  free  transition at x/c =  0.9094   73

 123   rms: 0.4221E-01   max: 0.1892E+00   D at   70  1
       a =  0.000      CL =  0.1921
      Cm = -0.0427     CD =  0.02383   =>   CDf =  0.00646    CDp =  0.01737

 Side 1  free  transition at x/c =  0.7448   64
 Side 2  free  transition at x/c =  0.9110   73

 124   rms: 0.1817E-01   max: -.1019E+00   T at   64  1
       a =  0.000      CL =  0.2041
      Cm = -0.0439     CD =  0.02320   =>   CDf =  0.00642    CDp =  0.01679

 Side 1  free  transition at x/c =  0.7471   65
 Side 2  free  transition at x/c =  0.9094   73

 125   rms: 0.4221E-01   max: 0.1891E+00   D at   70  1
       a =  0.000      CL =  0.1921
      Cm = -0.0427     CD =  0.02383   =>   CDf =  0.00646    CDp =  0.01737

 Side 1  free  transition at x/c =  0.7448   64
 Side 2  free  transition at x/c =  0.9110   73

 126   rms: 0.1816E-01   max: -.1019E+00   T at   64  1
       a =  0.000      CL =  0.2041
      Cm = -0.0439     CD =  0.02320   =>   CDf =  0.00642    CDp =  0.01679

 Side 1  free  transition at x/c =  0.7471   65
 Side 2  free  transition at x/c =  0.9094   73

 127   rms: 0.4220E-01   max: 0.1891E+00   D at   70  1
       a =  0.000      CL =  0.1921
      Cm = -0.0427     CD =  0.02383   =>   CDf =  0.00646    CDp =  0.01737

 Side 1  free  transition at x/c =  0.7448   64
 Side 2  free  transition at x/c =  0.9110   73

 128   rms: 0.1816E-01   max: -.1019E+00   T at   64  1
       a =  0.000      CL =  0.2041
      Cm = -0.0439     CD =  0.02320   =>   CDf =  0.00642    CDp =  0.01679

 Side 1  free  transition at x/c =  0.7471   65
 Side 2  free  transition at x/c =  0.9094   73

 129   rms: 0.4220E-01   max: 0.1891E+00   D at   70  1
       a =  0.000      CL =  0.1921
      Cm = -0.0427     CD =  0.02383   =>   CDf =  0.00646    CDp =  0.01737

 Side 1  free  transition at x/c =  0.7448   64
 Side 2  free  transition at x/c =  0.9110   73

 130   rms: 0.1817E-01   max: -.1019E+00   T at   64  1
       a =  0.000      CL =  0.2041
      Cm = -0.0439     CD =  0.02320   =>   CDf =  0.00642    CDp =  0.01679

 Side 1  free  transition at x/c =  0.7471   65
 Side 2  free  transition at x/c =  0.9094   73

 131   rms: 0.4220E-01   max: 0.1891E+00   D at   70  1
       a =  0.000      CL =  0.1921
      Cm = -0.0427     CD =  0.02383   =>   CDf =  0.00646    CDp =  0.01737

 Side 1  free  transition at x/c =  0.7448   64
 Side 2  free  transition at x/c =  0.9110   73

 132   rms: 0.1816E-01   max: -.1019E+00   T at   64  1
       a =  0.000      CL =  0.2041
      Cm = -0.0439     CD =  0.02320   =>   CDf =  0.00642    CDp =  0.01679

 Side 1  free  transition at x/c =  0.7471   65
 Side 2  free  transition at x/c =  0.9094   73

 133   rms: 0.4221E-01   max: 0.1891E+00   D at   70  1
       a =  0.000      CL =  0.1921
      Cm = -0.0427     CD =  0.02383   =>   CDf =  0.00646    CDp =  0.01737

 Side 1  free  transition at x/c =  0.7448   64
 Side 2  free  transition at x/c =  0.9110   73

 134   rms: 0.1817E-01   max: -.1019E+00   T at   64  1
       a =  0.000      CL =  0.2041
      Cm = -0.0439     CD =  0.02320   =>   CDf =  0.00642    CDp =  0.01679

 Side 1  free  transition at x/c =  0.7471   65
 Side 2  free  transition at x/c =  0.9094   73

 135   rms: 0.4221E-01   max: 0.1892E+00   D at   70  1
       a =  0.000      CL =  0.1921
      Cm = -0.0427     CD =  0.02383   =>   CDf =  0.00646    CDp =  0.01737

 Side 1  free  transition at x/c =  0.7448   64
 Side 2  free  transition at x/c =  0.9110   73

 136   rms: 0.1817E-01   max: -.1019E+00   T at   64  1
       a =  0.000      CL =  0.2041
      Cm = -0.0439     CD =  0.02320   =>   CDf =  0.00642    CDp =  0.01679

 Side 1  free  transition at x/c =  0.7471   65
 Side 2  free  transition at x/c =  0.9094   73

 137   rms: 0.4220E-01   max: 0.1891E+00   D at   70  1
       a =  0.000      CL =  0.1921
      Cm = -0.0427     CD =  0.02383   =>   CDf =  0.00646    CDp =  0.01737

 Side 1  free  transition at x/c =  0.7448   64
 Side 2  free  transition at x/c =  0.9110   73

 138   rms: 0.1816E-01   max: -.1019E+00   T at   64  1
       a =  0.000      CL =  0.2041
      Cm = -0.0439     CD =  0.02320   =>   CDf =  0.00642    CDp =  0.01679

 Side 1  free  transition at x/c =  0.7471   65
 Side 2  free  transition at x/c =  0.9094   73

 139   rms: 0.4221E-01   max: 0.1892E+00   D at   70  1
       a =  0.000      CL =  0.1921
      Cm = -0.0427     CD =  0.02383   =>   CDf =  0.00646    CDp =  0.01737

 Side 1  free  transition at x/c =  0.7448   64
 Side 2  free  transition at x/c =  0.9110   73

 140   rms: 0.1817E-01   max: -.1019E+00   T at   64  1
       a =  0.000      CL =  0.2041
      Cm = -0.0439     CD =  0.02320   =>   CDf =  0.00642    CDp =  0.01679

 Side 1  free  transition at x/c =  0.7471   65
 Side 2  free  transition at x/c =  0.9094   73

 141   rms: 0.4221E-01   max: 0.1892E+00   D at   70  1
       a =  0.000      CL =  0.1921
      Cm = -0.0427     CD =  0.02383   =>   CDf =  0.00646    CDp =  0.01737

 Side 1  free  transition at x/c =  0.7448   64
 Side 2  free  transition at x/c =  0.9110   73

 142   rms: 0.1816E-01   max: -.1019E+00   T at   64  1
       a =  0.000      CL =  0.2041
      Cm = -0.0439     CD =  0.02320   =>   CDf =  0.00642    CDp =  0.01679

 Side 1  free  transition at x/c =  0.7471   65
 Side 2  free  transition at x/c =  0.9094   73

 143   rms: 0.4220E-01   max: 0.1891E+00   D at   70  1
       a =  0.000      CL =  0.1921
      Cm = -0.0427     CD =  0.02383   =>   CDf =  0.00646    CDp =  0.01737

 Side 1  free  transition at x/c =  0.7448   64
 Side 2  free  transition at x/c =  0.9110   73

 144   rms: 0.1817E-01   max: -.1019E+00   T at   64  1
       a =  0.000      CL =  0.2041
      Cm = -0.0439     CD =  0.02320   =>   CDf =  0.00642    CDp =  0.01679

 Side 1  free  transition at x/c =  0.7471   65
 Side 2  free  transition at x/c =  0.9094   73

 145   rms: 0.4220E-01   max: 0.1891E+00   D at   70  1
       a =  0.000      CL =  0.1921
[...]
      Cm = -0.0038     CD =  0.05403   =>   CDf =  0.00776    CDp =  0.04626

 Side 1  free  transition at x/c =  0.0428   31
 Side 2 forced transition at x/c =  1.0000   66

   5   rms: 0.2966E-04   max: -.8252E-04   T at   80  1
       a = 13.000      CL =  1.2137
      Cm = -0.0038     CD =  0.05403   =>   CDf =  0.00776    CDp =  0.04626
 plradd ia,ip,cpol           25           0  8.88342096E-04

 Point added to stored polar  1
 Point written to save file  naca652415a05_Re150k.base.pol                   
 Dump file unspecified or not available
 Calculating wake trajectory ...
 Calculating source influence matrix ...

 Solving BL system ...

 Side 1  free  transition at x/c =  0.0428   31
 Side 2 forced transition at x/c =  1.0000   66

   1   rms: 0.4453E-01   max: 0.1288E+00   D at   36  1   RLX: 0.739
       a = 13.250      CL =  1.2287
      Cm = -0.0035     CD =  0.05636   =>   CDf =  0.00777    CDp =  0.04859

 Side 1  free  transition at x/c =  0.0427   31
 Side 2 forced transition at x/c =  1.0000   66

   2   rms: 0.9741E-02   max: 0.4176E-01   D at   80  1
       a = 13.250      CL =  1.2230
      Cm = -0.0028     CD =  0.05705   =>   CDf =  0.00749    CDp =  0.04956

 Side 1  free  transition at x/c =  0.0427   31
 Side 2 forced transition at x/c =  1.0000   66

   3   rms: 0.2918E-03   max: 0.1580E-02   D at   79  1
       a = 13.250      CL =  1.2231
      Cm = -0.0028     CD =  0.05695   =>   CDf =  0.00747    CDp =  0.04947

 Side 1  free  transition at x/c =  0.0426   31
 Side 2 forced transition at x/c =  1.0000   66

   4   rms: 0.4120E-04   max: -.1172E-03   D at   79  2
       a = 13.250      CL =  1.2231
      Cm = -0.0028     CD =  0.05695   =>   CDf =  0.00747    CDp =  0.04947
 plradd ia,ip,cpol           26           0  8.88342096E-04

 Point added to stored polar  1
 Point written to save file  naca652415a05_Re150k.base.pol                   
 Dump file unspecified or not available
 Calculating wake trajectory ...
 Calculating source influence matrix ...

 Solving BL system ...

 Side 1  free  transition at x/c =  0.0426   31
 Side 2 forced transition at x/c =  1.0000   66

   1   rms: 0.3857E-01   max: 0.1026E+00   D at   36  1   RLX: 0.708
       a = 13.500      CL =  1.2308
      Cm = -0.0022     CD =  0.05932   =>   CDf =  0.00748    CDp =  0.05184

 Side 1  free  transition at x/c =  0.0426   31
 Side 2 forced transition at x/c =  1.0000   66

   2   rms: 0.1181E-01   max: 0.4150E-01   D at   79  1
       a = 13.500      CL =  1.2262
      Cm = -0.0016     CD =  0.06025   =>   CDf =  0.00724    CDp =  0.05300

 Side 1  free  transition at x/c =  0.0427   31
 Side 2 forced transition at x/c =  1.0000   66

   3   rms: 0.1108E-02   max: 0.5629E-02   D at   79  2
       a = 13.500      CL =  1.2252
      Cm = -0.0016     CD =  0.06013   =>   CDf =  0.00717    CDp =  0.05296

 Side 1  free  transition at x/c =  0.0427   31
 Side 2 forced transition at x/c =  1.0000   66

   4   rms: 0.8563E-04   max: -.2830E-03   D at   80  1
       a = 13.500      CL =  1.2253
      Cm = -0.0016     CD =  0.06012   =>   CDf =  0.00717    CDp =  0.05295
 plradd ia,ip,cpol           27           0  8.88342096E-04

 Point added to stored polar  1
 Point written to save file  naca652415a05_Re150k.base.pol                   
 Dump file unspecified or not available
 Calculating wake trajectory ...
 Calculating source influence matrix ...

 Solving BL system ...

 Side 1  free  transition at x/c =  0.0427   31
 Side 2 forced transition at x/c =  1.0000   66

   1   rms: 0.3392E-01   max: 0.8760E-01   D at   67  1   RLX: 0.676
       a = 13.750      CL =  1.2284
      Cm = -0.0009     CD =  0.06238   =>   CDf =  0.00717    CDp =  0.05521

 Side 1  free  transition at x/c =  0.0425   31
 Side 2 forced transition at x/c =  1.0000   66

   2   rms: 0.9795E-02   max: 0.3321E-01   D at   78  1
       a = 13.750      CL =  1.2258
      Cm = -0.0005     CD =  0.06324   =>   CDf =  0.00699    CDp =  0.05626

 Side 1  free  transition at x/c =  0.0423   31
 Side 2 forced transition at x/c =  1.0000   66

   3   rms: 0.5394E-03   max: 0.3078E-02   D at   78  1
       a = 13.750      CL =  1.2254
      Cm = -0.0005     CD =  0.06312   =>   CDf =  0.00694    CDp =  0.05619

 Side 1  free  transition at x/c =  0.0423   31
 Side 2 forced transition at x/c =  1.0000   66

   4   rms: 0.7404E-04   max: 0.1873E-03   T at   31  1
       a = 13.750      CL =  1.2254
      Cm = -0.0005     CD =  0.06312   =>   CDf =  0.00694    CDp =  0.05618
 plradd ia,ip,cpol           28           0  8.88342096E-04

 Point added to stored polar  1
 Point written to save file  naca652415a05_Re150k.base.pol                   
 Dump file unspecified or not available
 Calculating wake trajectory ...
 Calculating source influence matrix ...

 Solving BL system ...

 Side 1  free  transition at x/c =  0.0423   31
 Side 2 forced transition at x/c =  1.0000   66

   1   rms: 0.3470E-01   max: 0.1012E+00   D at   67  1   RLX: 0.646
       a = 14.000      CL =  1.2247
      Cm =  0.0002     CD =  0.06560   =>   CDf =  0.00694    CDp =  0.05866

 Side 1  free  transition at x/c =  0.0423   31
 Side 2 forced transition at x/c =  1.0000   66

   2   rms: 0.1534E-01   max: 0.4612E-01   D at   77  1
       a = 14.000      CL =  1.2191
      Cm =  0.0008     CD =  0.06698   =>   CDf =  0.00676    CDp =  0.06022

 Side 1  free  transition at x/c =  0.0424   31
 Side 2 forced transition at x/c =  1.0000   66

   3   rms: 0.1847E-02   max: 0.9335E-02   D at   77  1
       a = 14.000      CL =  1.2175
      Cm =  0.0008     CD =  0.06680   =>   CDf =  0.00664    CDp =  0.06016

 Side 1  free  transition at x/c =  0.0424   31
 Side 2 forced transition at x/c =  1.0000   66

   4   rms: 0.5711E-04   max: -.2032E-03   D at   78  1
       a = 14.000      CL =  1.2175
      Cm =  0.0008     CD =  0.06678   =>   CDf =  0.00664    CDp =  0.06014
 plradd ia,ip,cpol           29           0  2.30098405E-04

 Point added to stored polar  1
 Point written to save file  naca652415a05_Re150k.base.pol                   
 Dump file unspecified or not available
 Calculating wake trajectory ...
 Calculating source influence matrix ...

 Solving BL system ...

 Side 1  free  transition at x/c =  0.0424   31
 Side 2 forced transition at x/c =  1.0000   66

   1   rms: 0.4068E-01   max: 0.1267E+00   D at   67  1   RLX: 0.610
       a = 14.250      CL =  1.2119
      Cm =  0.0016     CD =  0.06974   =>   CDf =  0.00664    CDp =  0.06310

 Side 1  free  transition at x/c =  0.0427   31
 Side 2 forced transition at x/c =  1.0000   66

   2   rms: 0.2007E-01   max: 0.6206E-01   D at   76  1
       a = 14.250      CL =  1.2025
      Cm =  0.0021     CD =  0.07163   =>   CDf =  0.00642    CDp =  0.06521

 Side 1  free  transition at x/c =  0.0430   31
 Side 2 forced transition at x/c =  1.0000   66

   3   rms: 0.2024E-02   max: 0.8874E-02   D at   76  1
       a = 14.250      CL =  1.2009
      Cm =  0.0022     CD =  0.07127   =>   CDf =  0.00627    CDp =  0.06500

 Side 1  free  transition at x/c =  0.0430   31
 Side 2 forced transition at x/c =  1.0000   66

   4   rms: 0.2301E-03   max: -.7186E-03   D at   76  1
       a = 14.250      CL =  1.2011
      Cm =  0.0021     CD =  0.07125   =>   CDf =  0.00628    CDp =  0.06497

 Side 1  free  transition at x/c =  0.0430   31
 Side 2 forced transition at x/c =  1.0000   66

   5   rms: 0.2227E-04   max: -.5221E-04   T at   76  1
       a = 14.250      CL =  1.2011
      Cm =  0.0021     CD =  0.07125   =>   CDf =  0.00628    CDp =  0.06498
 plradd ia,ip,cpol           30           0  2.30098405E-04

 Point added to stored polar  1
 Point written to save file  naca652415a05_Re150k.base.pol                   
 Dump file unspecified or not available
 Calculating wake trajectory ...
 Calculating source influence matrix ...

 Solving BL system ...

 Side 1  free  transition at x/c =  0.0430   31
 Side 2 forced transition at x/c =  1.0000   66

   1   rms: 0.3431E-01   max: 0.1160E+00   D at   67  1   RLX: 0.578
       a = 14.500      CL =  1.1953
      Cm =  0.0025     CD =  0.07389   =>   CDf =  0.00628    CDp =  0.06761

 Side 1  free  transition at x/c =  0.0430   31
 Side 2 forced transition at x/c =  1.0000   66

   2   rms: 0.1954E-01   max: 0.6164E-01   D at   65  1
       a = 14.500      CL =  1.1870
      Cm =  0.0029     CD =  0.07592   =>   CDf =  0.00614    CDp =  0.06979

 Side 1  free  transition at x/c =  0.0432   31
 Side 2 forced transition at x/c =  1.0000   66

   3   rms: 0.2466E-02   max: 0.1382E-01   D at   81  2
       a = 14.500      CL =  1.1851
      Cm =  0.0029     CD =  0.07558   =>   CDf =  0.00600    CDp =  0.06958

 Side 1  free  transition at x/c =  0.0432   31
 Side 2 forced transition at x/c =  1.0000   66

   4   rms: 0.4073E-04   max: 0.5083E-03   D at   81  2
       a = 14.500      CL =  1.1851
      Cm =  0.0029     CD =  0.07553   =>   CDf =  0.00600    CDp =  0.06953
 plradd ia,ip,cpol           31           0  2.30098405E-04

 Point added to stored polar  1
 Point written to save file  naca652415a05_Re150k.base.pol                   
 Dump file unspecified or not available
 Calculating wake trajectory ...
 Calculating source influence matrix ...

 Solving BL system ...

 Side 1  free  transition at x/c =  0.0432   31
 Side 2 forced transition at x/c =  1.0000   66

   1   rms: 0.5149E-01   max: 0.1668E+00   D at   65  1   RLX: 0.542
       a = 14.750      CL =  1.1729
      Cm =  0.0032     CD =  0.07916   =>   CDf =  0.00600    CDp =  0.07316

 Side 1  free  transition at x/c =  0.0438   31
 Side 2 forced transition at x/c =  1.0000   66

   2   rms: 0.2032E-01   max: 0.7027E-01   D at   73  1
       a = 14.750      CL =  1.1619
      Cm =  0.0033     CD =  0.08154   =>   CDf =  0.00578    CDp =  0.07576

 Side 1  free  transition at x/c =  0.0442   31
 Side 2 forced transition at x/c =  1.0000   66

   3   rms: 0.1810E-02   max: 0.9083E-02   D at   82  2
       a = 14.750      CL =  1.1611
      Cm =  0.0033     CD =  0.08099   =>   CDf =  0.00566    CDp =  0.07533

 Side 1  free  transition at x/c =  0.0442   31
 Side 2 forced transition at x/c =  1.0000   66

   4   rms: 0.2329E-03   max: -.6213E-03   D at   73  1
       a = 14.750      CL =  1.1613
      Cm =  0.0033     CD =  0.08100   =>   CDf =  0.00567    CDp =  0.07533

 Side 1  free  transition at x/c =  0.0442   31
 Side 2 forced transition at x/c =  1.0000   66

   5   rms: 0.2176E-04   max: -.5627E-04   T at   73  1
       a = 14.750      CL =  1.1613
      Cm =  0.0033     CD =  0.08100   =>   CDf =  0.00567    CDp =  0.07533
 plradd ia,ip,cpol           32           0  2.30098405E-04

 Point added to stored polar  1
 Point written to save file  naca652415a05_Re150k.base.pol                   
 Dump file unspecified or not available
 Calculating wake trajectory ...
 Calculating source influence matrix ...

 Solving BL system ...

 Side 1  free  transition at x/c =  0.0442   31
 Side 2 forced transition at x/c =  1.0000   66

   1   rms: 0.4321E-01   max: 0.1519E+00   D at   64  1   RLX: 0.514
       a = 15.000      CL =  1.1510
      Cm =  0.0032     CD =  0.08427   =>   CDf =  0.00568    CDp =  0.07860

 Side 1  free  transition at x/c =  0.0444   31
 Side 2 forced transition at x/c =  1.0000   66

   2   rms: 0.2265E-01   max: 0.7474E-01   D at   63  1
       a = 15.000      CL =  1.1399
      Cm =  0.0030     CD =  0.08711   =>   CDf =  0.00553    CDp =  0.08158

 Side 1  free  transition at x/c =  0.0448   31
 Side 2 forced transition at x/c =  1.0000   66

   3   rms: 0.2368E-02   max: 0.1321E-01   D at   82  2
       a = 15.000      CL =  1.1385
      Cm =  0.0031     CD =  0.08646   =>   CDf =  0.00540    CDp =  0.08106

 Side 1  free  transition at x/c =  0.0447   31
 Side 2 forced transition at x/c =  1.0000   66

   4   rms: 0.2679E-03   max: -.8074E-03   T at   31  1
       a = 15.000      CL =  1.1387
      Cm =  0.0031     CD =  0.08644   =>   CDf =  0.00541    CDp =  0.08103

 Side 1  free  transition at x/c =  0.0447   31
 Side 2 forced transition at x/c =  1.0000   66

   5   rms: 0.2576E-04   max: 0.8675E-04   T at   31  1
       a = 15.000      CL =  1.1387
      Cm =  0.0031     CD =  0.08645   =>   CDf =  0.00541    CDp =  0.08104
 plradd ia,ip,cpol           33           0  2.30098405E-04

 Point added to stored polar  1
 Point written to save file  naca652415a05_Re150k.base.pol                   
 Dump file unspecified or not available
 Calculating wake trajectory ...
 Calculating source influence matrix ...

 Solving BL system ...

 Side 1  free  transition at x/c =  0.0447   31
 Side 2 forced transition at x/c =  1.0000   66

   1   rms: 0.4588E-01   max: 0.1613E+00   D at   62  1   RLX: 0.487
       a = 15.250      CL =  1.1285
      Cm =  0.0027     CD =  0.08999   =>   CDf =  0.00541    CDp =  0.08458

 Side 1  free  transition at x/c =  0.0452   31
 Side 2 forced transition at x/c =  1.0000   66

   2   rms: 0.2243E-01   max: 0.7321E-01   D at   61  1
       a = 15.250      CL =  1.1169
      Cm =  0.0022     CD =  0.09310   =>   CDf =  0.00528    CDp =  0.08782

 Side 1  free  transition at x/c =  0.0455   31
 Side 2 forced transition at x/c =  1.0000   66

   3   rms: 0.2389E-02   max: 0.1331E-01   D at   69  1
       a = 15.250      CL =  1.1155
      Cm =  0.0022     CD =  0.09235   =>   CDf =  0.00517    CDp =  0.08718

 Side 1  free  transition at x/c =  0.0455   31
 Side 2 forced transition at x/c =  1.0000   66

   4   rms: 0.3381E-03   max: -.8927E-03   D at   70  1
       a = 15.250      CL =  1.1158
      Cm =  0.0022     CD =  0.09234   =>   CDf =  0.00518    CDp =  0.08716

 Side 1  free  transition at x/c =  0.0455   31
 Side 2 forced transition at x/c =  1.0000   66

   5   rms: 0.3273E-04   max: -.9006E-04   T at   69  1
       a = 15.250      CL =  1.1158
      Cm =  0.0022     CD =  0.09235   =>   CDf =  0.00518    CDp =  0.08717
 plradd ia,ip,cpol           34           0  2.30098405E-04

 Point added to stored polar  1
 Point written to save file  naca652415a05_Re150k.base.pol                   
 Dump file unspecified or not available
 Calculating wake trajectory ...
 Calculating source influence matrix ...

 Solving BL system ...

 Side 1  free  transition at x/c =  0.0455   31
 Side 2 forced transition at x/c =  1.0000   66

   1   rms: 0.4296E-01   max: 0.1569E+00   D at   61  1   RLX: 0.464
       a = 15.500      CL =  1.1063
      Cm =  0.0016     CD =  0.09577   =>   CDf =  0.00518    CDp =  0.09059

 Side 1  free  transition at x/c =  0.0458   31
 Side 2 forced transition at x/c =  1.0000   66

   2   rms: 0.2311E-01   max: 0.7873E-01   D at   68  1
       a = 15.500      CL =  1.0943
      Cm =  0.0007     CD =  0.09928   =>   CDf =  0.00508    CDp =  0.09421

 Side 1  free  transition at x/c =  0.0461   31
 Side 2 forced transition at x/c =  1.0000   66

   3   rms: 0.2472E-02   max: 0.1716E-01   D at   83  2
       a = 15.500      CL =  1.0929
      Cm =  0.0007     CD =  0.09845   =>   CDf =  0.00497    CDp =  0.09348

 Side 1  free  transition at x/c =  0.0460   31
 Side 2 forced transition at x/c =  1.0000   66

   4   rms: 0.3294E-03   max: -.9327E-03   D at   68  1
       a = 15.500      CL =  1.0932
      Cm =  0.0007     CD =  0.09843   =>   CDf =  0.00498    CDp =  0.09345

 Side 1  free  transition at x/c =  0.0461   31
 Side 2 forced transition at x/c =  1.0000   66

   5   rms: 0.3398E-04   max: -.9453E-04   T at   68  1
       a = 15.500      CL =  1.0932
      Cm =  0.0007     CD =  0.09844   =>   CDf =  0.00498    CDp =  0.09346
 plradd ia,ip,cpol           35           0  2.30098405E-04

 Point added to stored polar  1
 Point written to save file  naca652415a05_Re150k.base.pol                   
 Dump file unspecified or not available
 Calculating wake trajectory ...
 Calculating source influence matrix ...

 Solving BL system ...

 Side 1  free  transition at x/c =  0.0461   31
 Side 2 forced transition at x/c =  1.0000   66

   1   rms: 0.4287E-01   max: 0.1571E+00   D at   60  1   RLX: 0.444
       a = 15.750      CL =  1.0848
      Cm = -0.0001     CD =  0.10203   =>   CDf =  0.00498    CDp =  0.09705

 Side 1  free  transition at x/c =  0.0464   31
 Side 2 forced transition at x/c =  1.0000   66

   2   rms: 0.2255E-01   max: 0.7618E-01   D at   58  1
       a = 15.750      CL =  1.0745
      Cm = -0.0012     CD =  0.10584   =>   CDf =  0.00490    CDp =  0.10095

 Side 1  free  transition at x/c =  0.0469   31
 Side 2 forced transition at x/c =  1.0000   66

   3   rms: 0.3284E-02   max: -.1261E-01   D at   60  1
       a = 15.750      CL =  1.0731
      Cm = -0.0012     CD =  0.10483   =>   CDf =  0.00481    CDp =  0.10002

 Side 1  free  transition at x/c =  0.0468   31
 Side 2 forced transition at x/c =  1.0000   66

   4   rms: 0.7319E-03   max: -.2632E-02   T at   31  1
       a = 15.750      CL =  1.0737
      Cm = -0.0012     CD =  0.10484   =>   CDf =  0.00483    CDp =  0.10001

 Side 1  free  transition at x/c =  0.0468   31
 Side 2 forced transition at x/c =  1.0000   66

   5   rms: 0.6978E-04   max: 0.2463E-03   D at   65  1
       a = 15.750      CL =  1.0737
      Cm = -0.0012     CD =  0.10486   =>   CDf =  0.00483    CDp =  0.10004
 plradd ia,ip,cpol           36           0  2.30098405E-04

 Point added to stored polar  1
 Point written to save file  naca652415a05_Re150k.base.pol                   
 Dump file unspecified or not available
 Calculating wake trajectory ...
 Calculating source influence matrix ...

 Solving BL system ...

 Side 1  free  transition at x/c =  0.0468   31
 Side 2 forced transition at x/c =  1.0000   66

   1   rms: 0.4092E-01   max: -.1557E+00   T at   31  1   RLX: 0.427
       a = 16.000      CL =  1.0677
      Cm = -0.0021     CD =  0.10839   =>   CDf =  0.00483    CDp =  0.10356

 Side 1  free  transition at x/c =  0.0472   31
 Side 2 forced transition at x/c =  1.0000   66

   2   rms: 0.2093E-01   max: -.1275E+00   T at   31  1
       a = 16.000      CL =  1.0648
      Cm = -0.0030     CD =  0.11206   =>   CDf =  0.00476    CDp =  0.10730

 Side 1  free  transition at x/c =  0.0478   31
 Side 2 forced transition at x/c =  1.0000   66

   3   rms: 0.2331E-01   max: 0.1031E+00   T at   31  1
       a = 16.000      CL =  1.0521
      Cm = -0.0036     CD =  0.11144   =>   CDf =  0.00472    CDp =  0.10672

 Side 1  free  transition at x/c =  0.0475   31
 Side 2 forced transition at x/c =  1.0000   66

   4   rms: 0.3143E-01   max: -.1310E+00   T at   31  1
       a = 16.000      CL =  1.0736
      Cm = -0.0019     CD =  0.10948   =>   CDf =  0.00469    CDp =  0.10479

 Side 1  free  transition at x/c =  0.0483   32
 Side 2 forced transition at x/c =  1.0000   66

   5   rms: 0.2380E-01   max: -.8815E-01   D at   65  1
       a = 16.000      CL =  1.0911
      Cm = -0.0011     CD =  0.10806   =>   CDf =  0.00490    CDp =  0.10316

 Side 1  free  transition at x/c =  0.0487   32
 Side 2 forced transition at x/c =  1.0000   66

   6   rms: 0.1348E-01   max: 0.5259E-01   D at    3  2
       a = 16.000      CL =  1.0815
      Cm = -0.0017     CD =  0.10978   =>   CDf =  0.00475    CDp =  0.10503

 Side 1  free  transition at x/c =  0.0488   32
 Side 2 forced transition at x/c =  1.0000   66

   7   rms: 0.1029E-02   max: 0.7004E-02   D at    5  2
       a = 16.000      CL =  1.0810
      Cm = -0.0017     CD =  0.10941   =>   CDf =  0.00474    CDp =  0.10467

 Side 1  free  transition at x/c =  0.0488   32
 Side 2 forced transition at x/c =  1.0000   66

   8   rms: 0.7836E-04   max: 0.6190E-03   T at   32  1
       a = 16.000      CL =  1.0811
      Cm = -0.0017     CD =  0.10938   =>   CDf =  0.00474    CDp =  0.10464
 plradd ia,ip,cpol           37           0  2.30098405E-04

 Point added to stored polar  1
 Point written to save file  naca652415a05_Re150k.base.pol                   
 Dump file unspecified or not available

.OPERva   c>  
 Polar accumulation disabled

.OPERv   c>  
 XFOIL   c>  
 XFOIL   c>  