
 ===================================================
  XFOIL Version 6.99
  Copyright (C) 2000   Mark Drela, Harold Youngren

  This software comes with ABSOLUTELY NO WARRANTY,
    subject to the GNU General Public License.

  Caveat computor
 ===================================================

 File  xfoil.def  not found

   QUIT    Exit program

  .OPER    Direct operating point(s)
  .MDES    Complex mapping design routine
  .QDES    Surface speed design routine
  .GDES    Geometry design routine

   SAVE f  Write airfoil to labeled coordinate file
   PSAV f  Write airfoil to plain coordinate file
   ISAV f  Write airfoil to ISES coordinate file
   MSAV f  Write airfoil to MSES coordinate file
   REVE    Reverse written-airfoil node ordering

   LOAD f  Read buffer airfoil from coordinate file
   NACA i  Set NACA 4,5-digit airfoil and buffer airfoil
   INTE    Set buffer airfoil by interpolating two airfoils
   NORM    Buffer airfoil normalization toggle
   XYCM rr Change CM reference location, currently  0.25000 0.00000

   BEND    Display structural properties of current airfoil

   PCOP    Set current-airfoil panel nodes directly from buffer airfoil points
   PANE    Set current-airfoil panel nodes ( 160 ) based on curvature
  .PPAR    Show/change paneling

  .PLOP    Plotting options

   WDEF f  Write  current-settings file
   RDEF f  Reread current-settings file
   NAME s  Specify new airfoil name
   NINC    Increment name version number

   Z       Zoom    | (available in all menus)
   U       Unzoom  | 

 XFOIL   c>  
 Labeled airfoil file.  Name:  NACA 23024                                      

 Number of input coordinate points:  35
 Counterclockwise ordering
 Max thickness =     0.240061  at x =   0.301
 Max camber    =     0.004559  at x =   0.146

  LE  x,y  =  -0.00215   0.01673  |   Chord =   1.00229
  TE  x,y  =   1.00000   0.00000  |

 Current airfoil nodes set from buffer airfoil nodes (  35 )

 XFOIL   c>  
 XFOIL   c>  
 Sharp trailing edge

 Paneling parameters used...
   Number of panel nodes       160
   Panel bunching parameter    1.000
   TE/LE panel density ratio   0.150
   Refined-area/LE panel density ratio    0.200
   Top    side refined area x/c limits  1.000 1.000
   Bottom side refined area x/c limits  1.000 1.000

 XFOIL   c>  
.OPERi   c>  
 Xtr/c     =  1.0000    top    side
 Xtr/c     =  1.0000    bottom side
 Ncrit     =    9.00   ( 0.070 % turb. level )
 Vacc      =  0.0100

 Klag  =  5.6000     Uxwt  =    1.00
 A     =  6.7000     B     =  0.7500       KCt = 0.01485
 CtiniK=  1.8000     CtiniX=  3.3000

..VPAR   c>  
..VPAR   c>  
.OPERi   c>  
 M  =    0.0000
 Re =    600000

.OPERv   c>  
.OPERv   c>  
.OPERv   c>  
 Polar  1 newly created for accumulation
 Airfoil archived with polar: NACA 23024                                      

Enter  polar save filename  OR  <return> for no file   s>  
 New polar save file available

Enter  polar dump filename  OR  <return> for no file   s>  
 Polar dump file will NOT be written

 Polar accumulation enabled

.OPERva   c>   Calculating unit vorticity distributions ...
 Calculating wake trajectory ...
 Calculating source influence matrix ...

 Solving BL system ...

 Initializing BL ...
    side            1  ...
 MRCHUE: Inverse mode at  53     Hk =   4.607
 MRCHUE: Inverse mode at  54     Hk =   5.740
 MRCHUE: Inverse mode at  55     Hk =   6.858
 MRCHUE: Inverse mode at  56     Hk =   7.967
 MRCHUE: Inverse mode at  57     Hk =   3.280
 MRCHUE: Inverse mode at  75     Hk =   2.500
 MRCHUE: Convergence failed at  76  side 1    Res =  0.5475E+01
    side            2  ...
 MRCHUE: Inverse mode at  54     Hk =   4.833
 MRCHUE: Inverse mode at  55     Hk =   6.059
 MRCHUE: Inverse mode at  56     Hk =   7.286
 MRCHUE: Inverse mode at  57     Hk =   7.727
 MRCHUE: Inverse mode at  58     Hk =   2.500
 MRCHUE: Inverse mode at  84     Hk =   2.500
 MRCHUE: Inverse mode at  85     Hk =   2.500
 MRCHUE: Convergence failed at  86  side 2    Res =  0.3465E+02

 MRCHDU: Convergence failed at  76  side 1    Res =  0.5387E+01
 MRCHDU: Convergence failed at  86  side 2    Res =  0.3439E+01
 Side 1  free  transition at x/c =  0.5809   57
 Side 2  free  transition at x/c =  0.3730   57

   1   rms: 0.5212E+00   max: 0.3389E+01   D at   88  2   RLX: 0.423
       a = -4.000      CL = -0.3374
      Cm =  0.0041     CD =  0.00470   =>   CDf =  0.00723    CDp = -0.00253

 Side 1  free  transition at x/c =  0.5995   57
 Side 2  free  transition at x/c =  0.3857   58

   2   rms: 0.2403E+00   max: 0.1136E+01   D at   90  2   RLX: 0.826
       a = -4.000      CL = -0.2040
      Cm = -0.0249     CD =  0.00829   =>   CDf =  0.00692    CDp =  0.00137

 Side 1  free  transition at x/c =  0.6387   60
 Side 2  free  transition at x/c =  0.4159   58

   3   rms: 0.7799E-01   max: -.3000E+00   T at   58  2
       a = -4.000      CL = -0.1115
      Cm = -0.0439     CD =  0.01028   =>   CDf =  0.00642    CDp =  0.00387

 Side 1  free  transition at x/c =  0.6410   61
 Side 2  free  transition at x/c =  0.4375   58

   4   rms: 0.1383E-01   max: -.1549E+00   C at   58  2
       a = -4.000      CL = -0.1244
      Cm = -0.0414     CD =  0.01021   =>   CDf =  0.00618    CDp =  0.00403

 Side 1  free  transition at x/c =  0.6408   61
 Side 2  free  transition at x/c =  0.4395   59

   5   rms: 0.4215E-02   max: -.5401E-01   D at   58  2
       a = -4.000      CL = -0.1267
      Cm = -0.0409     CD =  0.01018   =>   CDf =  0.00614    CDp =  0.00404

 Side 1  free  transition at x/c =  0.6409   61
 Side 2  free  transition at x/c =  0.4403   59

   6   rms: 0.4795E-03   max: -.6338E-02   D at   59  2
       a = -4.000      CL = -0.1271
      Cm = -0.0408     CD =  0.01018   =>   CDf =  0.00611    CDp =  0.00406

 Side 1  free  transition at x/c =  0.6409   61
 Side 2  free  transition at x/c =  0.4401   59

   7   rms: 0.5622E-05   max: -.7305E-04   D at   59  2
       a = -4.000      CL = -0.1271
      Cm = -0.0408     CD =  0.01018   =>   CDf =  0.00611    CDp =  0.00406
 plradd ia,ip,cpol            1           0  0.13304652    

 Point added to stored polar  1
 Point written to save file  naca23024_Re600k.base.pol                       
 Dump file unspecified or not available
 Calculating wake trajectory ...
 Calculating source influence matrix ...

 Solving BL system ...

 Side 1  free  transition at x/c =  0.6409   61
 Side 2  free  transition at x/c =  0.4401   59

   1   rms: 0.6146E-01   max: 0.3289E+00   D at   59  2
       a = -3.500      CL = -0.1035
      Cm = -0.0340     CD =  0.00995   =>   CDf =  0.00611    CDp =  0.00384

 Side 1  free  transition at x/c =  0.6159   60
 Side 2  free  transition at x/c =  0.4562   59

   2   rms: 0.7166E-02   max: -.9812E-01   C at   60  1
       a = -3.500      CL = -0.1014
      Cm = -0.0344     CD =  0.01009   =>   CDf =  0.00616    CDp =  0.00392

 Side 1  free  transition at x/c =  0.6174   60
 Side 2  free  transition at x/c =  0.4560   59

   3   rms: 0.4051E-03   max: 0.5693E-02   C at   60  1
       a = -3.500      CL = -0.1010
      Cm = -0.0344     CD =  0.01009   =>   CDf =  0.00614    CDp =  0.00395

 Side 1  free  transition at x/c =  0.6172   60
 Side 2  free  transition at x/c =  0.4560   59

   4   rms: 0.1424E-05   max: -.1006E-04   C at   60  1
       a = -3.500      CL = -0.1010
      Cm = -0.0344     CD =  0.01009   =>   CDf =  0.00614    CDp =  0.00395
 plradd ia,ip,cpol            2           0  0.13304652    

 Point added to stored polar  1
 Point written to save file  naca23024_Re600k.base.pol                       
 Dump file unspecified or not available
 Calculating wake trajectory ...
 Calculating source influence matrix ...

 Solving BL system ...

 Side 1  free  transition at x/c =  0.6172   60
 Side 2  free  transition at x/c =  0.4560   59

   1   rms: 0.5980E-01   max: 0.2757E+00   C at   60  1
       a = -3.000      CL = -0.0687
      Cm = -0.0292     CD =  0.01008   =>   CDf =  0.00618    CDp =  0.00390

 Side 1  free  transition at x/c =  0.5905   60
 Side 2  free  transition at x/c =  0.4716   59

   2   rms: 0.9152E-02   max: -.1159E+00   C at   60  1
       a = -3.000      CL = -0.0773
      Cm = -0.0275     CD =  0.01003   =>   CDf =  0.00621    CDp =  0.00383

 Side 1  free  transition at x/c =  0.5936   60
 Side 2  free  transition at x/c =  0.4716   59

   3   rms: 0.5646E-03   max: -.5373E-02   D at   61  1
       a = -3.000      CL = -0.0766
      Cm = -0.0276     CD =  0.01003   =>   CDf =  0.00617    CDp =  0.00386

 Side 1  free  transition at x/c =  0.5933   60
 Side 2  free  transition at x/c =  0.4716   59

   4   rms: 0.4130E-05   max: 0.2092E-04   D at   80  2
       a = -3.000      CL = -0.0766
      Cm = -0.0276     CD =  0.01003   =>   CDf =  0.00618    CDp =  0.00386
 plradd ia,ip,cpol            3           0  0.15568069    

 Point added to stored polar  1
 Point written to save file  naca23024_Re600k.base.pol                       
 Dump file unspecified or not available
 Calculating wake trajectory ...
 Calculating source influence matrix ...

 Solving BL system ...

 Side 1  free  transition at x/c =  0.5933   60
 Side 2  free  transition at x/c =  0.4716   59

   1   rms: 0.6057E-01   max: 0.2621E+00   C at   60  1
       a = -2.500      CL = -0.0512
      Cm = -0.0210     CD =  0.00997   =>   CDf =  0.00618    CDp =  0.00379

 Side 1  free  transition at x/c =  0.5702   59
 Side 2  free  transition at x/c =  0.4830   59

   2   rms: 0.9146E-02   max: -.1147E+00   C at   59  2
       a = -2.500      CL = -0.0491
      Cm = -0.0214     CD =  0.01009   =>   CDf =  0.00633    CDp =  0.00376

 Side 1  free  transition at x/c =  0.5712   59
 Side 2  free  transition at x/c =  0.4868   60

   3   rms: 0.4209E-02   max: -.4866E-01   D at   59  2
       a = -2.500      CL = -0.0519
      Cm = -0.0208     CD =  0.01002   =>   CDf =  0.00625    CDp =  0.00377

 Side 1  free  transition at x/c =  0.5712   59
 Side 2  free  transition at x/c =  0.4877   60

   4   rms: 0.2857E-03   max: -.2675E-02   D at   61  2
       a = -2.500      CL = -0.0521
      Cm = -0.0208     CD =  0.01002   =>   CDf =  0.00623    CDp =  0.00380

 Side 1  free  transition at x/c =  0.5713   59
 Side 2  free  transition at x/c =  0.4876   60

   5   rms: 0.7987E-06   max: 0.7920E-05   D at   60  2
       a = -2.500      CL = -0.0521
      Cm = -0.0208     CD =  0.01002   =>   CDf =  0.00623    CDp =  0.00379
 plradd ia,ip,cpol            4           0  0.15568069    

 Point added to stored polar  1
 Point written to save file  naca23024_Re600k.base.pol                       
 Dump file unspecified or not available
 Calculating wake trajectory ...
 Calculating source influence matrix ...

 Solving BL system ...

 Side 1  free  transition at x/c =  0.5713   59
 Side 2  free  transition at x/c =  0.4876   60

   1   rms: 0.6011E-01   max: 0.3167E+00   D at   60  2
       a = -2.000      CL = -0.0277
      Cm = -0.0140     CD =  0.00988   =>   CDf =  0.00625    CDp =  0.00363

 Side 1  free  transition at x/c =  0.5493   59
 Side 2  free  transition at x/c =  0.5032   59

   2   rms: 0.8832E-02   max: -.1170E+00   C at   59  2
       a = -2.000      CL = -0.0292
      Cm = -0.0136     CD =  0.01004   =>   CDf =  0.00631    CDp =  0.00373

 Side 1  free  transition at x/c =  0.5511   59
 Side 2  free  transition at x/c =  0.5048   59

   3   rms: 0.4647E-03   max: 0.4537E-02   C at   59  2
       a = -2.000      CL = -0.0295
      Cm = -0.0136     CD =  0.01003   =>   CDf =  0.00627    CDp =  0.00377

 Side 1  free  transition at x/c =  0.5510   59
 Side 2  free  transition at x/c =  0.5046   59

   4   rms: 0.4015E-05   max: -.1781E-04   D at   80  2
       a = -2.000      CL = -0.0295
      Cm = -0.0136     CD =  0.01003   =>   CDf =  0.00627    CDp =  0.00377
 plradd ia,ip,cpol            5           0  0.16801895    

 Point added to stored polar  1
 Point written to save file  naca23024_Re600k.base.pol                       
 Dump file unspecified or not available
 Calculating wake trajectory ...
 Calculating source influence matrix ...

 Solving BL system ...

 Side 1  free  transition at x/c =  0.5510   59
 Side 2  free  transition at x/c =  0.5046   59

   1   rms: 0.5746E-01   max: -.1553E+00   T at   59  2
       a = -1.500      CL =  0.0032
      Cm = -0.0083     CD =  0.01005   =>   CDf =  0.00627    CDp =  0.00378

 Side 1  free  transition at x/c =  0.5285   58
 Side 2  free  transition at x/c =  0.5238   60

   2   rms: 0.1418E-01   max: 0.1435E+00   C at   60  2
       a = -1.500      CL = -0.0159
      Cm = -0.0044     CD =  0.01003   =>   CDf =  0.00628    CDp =  0.00375

 Side 1  free  transition at x/c =  0.5305   59
 Side 2  free  transition at x/c =  0.5223   60

   3   rms: 0.4445E-02   max: -.5793E-01   D at   58  1
       a = -1.500      CL = -0.0178
      Cm = -0.0040     CD =  0.01001   =>   CDf =  0.00630    CDp =  0.00371

 Side 1  free  transition at x/c =  0.5323   59
 Side 2  free  transition at x/c =  0.5219   60

   4   rms: 0.1078E-02   max: -.1208E-01   D at   59  1
       a = -1.500      CL = -0.0165
      Cm = -0.0043     CD =  0.01001   =>   CDf =  0.00626    CDp =  0.00375

 Side 1  free  transition at x/c =  0.5318   59
 Side 2  free  transition at x/c =  0.5219   60

   5   rms: 0.1897E-04   max: -.2793E-03   D at   59  1
       a = -1.500      CL = -0.0165
      Cm = -0.0043     CD =  0.01001   =>   CDf =  0.00627    CDp =  0.00375
 plradd ia,ip,cpol            6           0  0.16801895    

 Point added to stored polar  1
 Point written to save file  naca23024_Re600k.base.pol                       
 Dump file unspecified or not available
 Calculating wake trajectory ...
 Calculating source influence matrix ...

 Solving BL system ...

 Side 1  free  transition at x/c =  0.5318   59
 Side 2  free  transition at x/c =  0.5219   60

   1   rms: 0.5594E-01   max: -.3363E+00   D at   59  1
       a = -1.000      CL = -0.0046
      Cm =  0.0052     CD =  0.01015   =>   CDf =  0.00627    CDp =  0.00388

 Side 1  free  transition at x/c =  0.5136   59
 Side 2  free  transition at x/c =  0.5370   60

   2   rms: 0.1149E-01   max: -.1265E+00   D at   60  1
       a = -1.000      CL = -0.0048
      Cm =  0.0053     CD =  0.00998   =>   CDf =  0.00629    CDp =  0.00369

 Side 1  free  transition at x/c =  0.5146   59
 Side 2  free  transition at x/c =  0.5396   60

   3   rms: 0.8309E-03   max: -.6686E-02   D at    4  1
       a = -1.000      CL = -0.0042
      Cm =  0.0052     CD =  0.00999   =>   CDf =  0.00625    CDp =  0.00374

 Side 1  free  transition at x/c =  0.5144   59
 Side 2  free  transition at x/c =  0.5395   60

   4   rms: 0.1776E-05   max: -.2743E-04   D at   60  1
       a = -1.000      CL = -0.0042
      Cm =  0.0052     CD =  0.00999   =>   CDf =  0.00625    CDp =  0.00374
 plradd ia,ip,cpol            7           0  0.14999492    

 Point added to stored polar  1
 Point written to save file  naca23024_Re600k.base.pol                       
 Dump file unspecified or not available
 Calculating wake trajectory ...
 Calculating source influence matrix ...

 Solving BL system ...

 Side 1  free  transition at x/c =  0.5144   59
 Side 2  free  transition at x/c =  0.5395   60

   1   rms: 0.5875E-01   max: -.2844E+00   D at   59  1
       a = -0.500      CL =  0.0089
      Cm =  0.0145     CD =  0.01001   =>   CDf =  0.00625    CDp =  0.00376

 Side 1  free  transition at x/c =  0.4976   58
 Side 2  free  transition at x/c =  0.5521   60

   2   rms: 0.1205E-01   max: -.1253E+00   C at   60  2
       a = -0.500      CL =  0.0184
      Cm =  0.0125     CD =  0.01006   =>   CDf =  0.00635    CDp =  0.00371

 Side 1  free  transition at x/c =  0.4968   58
 Side 2  free  transition at x/c =  0.5573   61

   3   rms: 0.3607E-02   max: -.4690E-01   D at   60  2
       a = -0.500      CL =  0.0165
      Cm =  0.0129     CD =  0.01000   =>   CDf =  0.00628    CDp =  0.00373

 Side 1  free  transition at x/c =  0.4968   58
 Side 2  free  transition at x/c =  0.5581   61

   4   rms: 0.2937E-03   max: 0.3201E-02   C at   61  2
       a = -0.500      CL =  0.0162
      Cm =  0.0129     CD =  0.01000   =>   CDf =  0.00625    CDp =  0.00375

 Side 1  free  transition at x/c =  0.4968   58
 Side 2  free  transition at x/c =  0.5580   61

   5   rms: 0.1329E-05   max: -.1381E-04   D at    4  2
       a = -0.500      CL =  0.0162
      Cm =  0.0129     CD =  0.01000   =>   CDf =  0.00626    CDp =  0.00375
 plradd ia,ip,cpol            8           0  0.14999492    

 Point added to stored polar  1
 Point written to save file  naca23024_Re600k.base.pol                       
 Dump file unspecified or not available
 Calculating wake trajectory ...
 Calculating source influence matrix ...

 Solving BL system ...

 Side 1  free  transition at x/c =  0.4968   58
 Side 2  free  transition at x/c =  0.5580   61

   1   rms: 0.6037E-01   max: 0.3206E+00   D at   61  2
       a =  0.000      CL =  0.0390
      Cm =  0.0201     CD =  0.00994   =>   CDf =  0.00624    CDp =  0.00370

 Side 1  free  transition at x/c =  0.4794   58
 Side 2  free  transition at x/c =  0.5732   60

   2   rms: 0.1101E-01   max: -.1599E+00   C at   60  2
       a =  0.000      CL =  0.0413
      Cm =  0.0196     CD =  0.01006   =>   CDf =  0.00633    CDp =  0.00373

 Side 1  free  transition at x/c =  0.4797   58
 Side 2  free  transition at x/c =  0.5764   60

   3   rms: 0.4932E-02   max: -.1021E+00   C at   60  2
       a =  0.000      CL =  0.0410
      Cm =  0.0197     CD =  0.01006   =>   CDf =  0.00630    CDp =  0.00376

 Side 1  free  transition at x/c =  0.4796   58
 Side 2  free  transition at x/c =  0.5760   60

   4   rms: 0.5231E-02   max: -.1082E+00   C at   60  2
       a =  0.000      CL =  0.0410
      Cm =  0.0197     CD =  0.01006   =>   CDf =  0.00630    CDp =  0.00376

 Side 1  free  transition at x/c =  0.4796   58
 Side 2  free  transition at x/c =  0.5760   60

   5   rms: 0.5202E-02   max: -.1076E+00   C at   60  2
       a =  0.000      CL =  0.0410
      Cm =  0.0197     CD =  0.01006   =>   CDf =  0.00630    CDp =  0.00376

 Side 1  free  transition at x/c =  0.4796   58
 Side 2  free  transition at x/c =  0.5760   60

   6   rms: 0.5204E-02   max: -.1077E+00   C at   60  2
       a =  0.000      CL =  0.0410
      Cm =  0.0197     CD =  0.01006   =>   CDf =  0.00630    CDp =  0.00376

 Side 1  free  transition at x/c =  0.4796   58
 Side 2  free  transition at x/c =  0.5760   60

   7   rms: 0.5204E-02   max: -.1077E+00   C at   60  2
       a =  0.000      CL =  0.0410
      Cm =  0.0197     CD =  0.01006   =>   CDf =  0.00630    CDp =  0.00376

 Side 1  free  transition at x/c =  0.4796   58
 Side 2  free  transition at x/c =  0.5760   60

   8   rms: 0.5204E-02   max: -.1077E+00   C at   60  2
       a =  0.000      CL =  0.0410
      Cm =  0.0197     CD =  0.01006   =>   CDf =  0.00630    CDp =  0.00376

 Side 1  free  transition at x/c =  0.4796   58
 Side 2  free  transition at x/c =  0.5760   60

   9   rms: 0.5204E-02   max: -.1077E+00   C at   60  2
       a =  0.000      CL =  0.0410
      Cm =  0.0197     CD =  0.01006   =>   CDf =  0.00630    CDp =  0.00376

 Side 1  free  transition at x/c =  0.4796   58
 Side 2  free  transition at x/c =  0.5760   60

  10   rms: 0.5204E-02   max: -.1077E+00   C at   60  2
       a =  0.000      CL =  0.0410
      Cm =  0.0197     CD =  0.01006   =>   CDf =  0.00630    CDp =  0.00376

 Side 1  free  transition at x/c =  0.4796   58
 Side 2  free  transition at x/c =  0.5760   60

  11   rms: 0.5204E-02   max: -.1077E+00   C at   60  2
       a =  0.000      CL =  0.0410
      Cm =  0.0197     CD =  0.01006   =>   CDf =  0.00630    CDp =  0.00376

 Side 1  free  transition at x/c =  0.4796   58
 Side 2  free  transition at x/c =  0.5760   60

  12   rms: 0.5204E-02   max: -.1077E+00   C at   60  2
       a =  0.000      CL =  0.0410
      Cm =  0.0197     CD =  0.01006   =>   CDf =  0.00630    CDp =  0.00376

 Side 1  free  transition at x/c =  0.4796   58
 Side 2  free  transition at x/c =  0.5760   60

  13   rms: 0.5204E-02   max: -.1077E+00   C at   60  2
       a =  0.000      CL =  0.0410
      Cm =  0.0197     CD =  0.01006   =>   CDf =  0.00630    CDp =  0.00376

 Side 1  free  transition at x/c =  0.4796   58
 Side 2  free  transition at x/c =  0.5760   60

  14   rms: 0.5204E-02   max: -.1077E+00   C at   60  2
       a =  0.000      CL =  0.0410
      Cm =  0.0197     CD =  0.01006   =>   CDf =  0.00630    CDp =  0.00376

 Side 1  free  transition at x/c =  0.4796   58
 Side 2  free  transition at x/c =  0.5760   60

  15   rms: 0.5204E-02   max: -.1077E+00   C at   60  2
       a =  0.000      CL =  0.0410
      Cm =  0.0197     CD =  0.01006   =>   CDf =  0.00630    CDp =  0.00376

 Side 1  free  transition at x/c =  0.4796   58
 Side 2  free  transition at x/c =  0.5760   60

  16   rms: 0.5204E-02   max: -.1077E+00   C at   60  2
       a =  0.000      CL =  0.0410
      Cm =  0.0197     CD =  0.01006   =>   CDf =  0.00630    CDp =  0.00376

 Side 1  free  transition at x/c =  0.4796   58
 Side 2  free  transition at x/c =  0.5760   60

  17   rms: 0.5204E-02   max: -.1077E+00   C at   60  2
       a =  0.000      CL =  0.0410
      Cm =  0.0197     CD =  0.01006   =>   CDf =  0.00630    CDp =  0.00376

 Side 1  free  transition at x/c =  0.4796   58
 Side 2  free  transition at x/c =  0.5760   60

  18   rms: 0.5204E-02   max: -.1077E+00   C at   60  2
       a =  0.000      CL =  0.0410
      Cm =  0.0197     CD =  0.01006   =>   CDf =  0.00630    CDp =  0.00376

 Side 1  free  transition at x/c =  0.4796   58
 Side 2  free  transition at x/c =  0.5760   60

  19   rms: 0.5204E-02   max: -.1077E+00   C at   60  2
       a =  0.000      CL =  0.0410
      Cm =  0.0197     CD =  0.01006   =>   CDf =  0.00630    CDp =  0.00376

 Side 1  free  transition at x/c =  0.4796   58
 Side 2  free  transition at x/c =  0.5760   60

  20   rms: 0.5204E-02   max: -.1077E+00   C at   60  2
       a =  0.000      CL =  0.0410
      Cm =  0.0197     CD =  0.01006   =>   CDf =  0.00630    CDp =  0.00376

 Side 1  free  transition at x/c =  0.4796   58
 Side 2  free  transition at x/c =  0.5760   60

  21   rms: 0.5204E-02   max: -.1077E+00   C at   60  2
       a =  0.000      CL =  0.0410
      Cm =  0.0197     CD =  0.01006   =>   CDf =  0.00630    CDp =  0.00376

 Side 1  free  transition at x/c =  0.4796   58
 Side 2  free  transition at x/c =  0.5760   60

  22   rms: 0.5204E-02   max: -.1077E+00   C at   60  2
       a =  0.000      CL =  0.0410
      Cm =  0.0197     CD =  0.01006   =>   CDf =  0.00630    CDp =  0.00376

 Side 1  free  transition at x/c =  0.4796   58
 Side 2  free  transition at x/c =  0.5760   60

  23   rms: 0.5204E-02   max: -.1077E+00   C at   60  2
       a =  0.000      CL =  0.0410
      Cm =  0.0197     CD =  0.01006   =>   CDf =  0.00630    CDp =  0.00376

 Side 1  free  transition at x/c =  0.4796   58
 Side 2  free  transition at x/c =  0.5760   60

  24   rms: 0.5204E-02   max: -.1077E+00   C at   60  2
       a =  0.000      CL =  0.0410
      Cm =  0.0197     CD =  0.01006   =>   CDf =  0.00630    CDp =  0.00376

 Side 1  free  transition at x/c =  0.4796   58
 Side 2  free  transition at x/c =  0.5760   60

  25   rms: 0.5204E-02   max: -.1077E+00   C at   60  2
       a =  0.000      CL =  0.0410
      Cm =  0.0197     CD =  0.01006   =>   CDf =  0.00630    CDp =  0.00376

 Side 1  free  transition at x/c =  0.4796   58
 Side 2  free  transition at x/c =  0.5760   60

  26   rms: 0.5204E-02   max: -.1077E+00   C at   60  2
       a =  0.000      CL =  0.0410
      Cm =  0.0197     CD =  0.01006   =>   CDf =  0.00630    CDp =  0.00376

 Side 1  free  transition at x/c =  0.4796   58
 Side 2  free  transition at x/c =  0.5760   60

  27   rms: 0.5204E-02   max: -.1077E+00   C at   60  2
       a =  0.000      CL =  0.0410
      Cm =  0.0197     CD =  0.01006   =>   CDf =  0.00630    CDp =  0.00376

 Side 1  free  transition at x/c =  0.4796   58
 Side 2  free  transition at x/c =  0.5760   60

  28   rms: 0.5204E-02   max: -.1077E+00   C at   60  2
       a =  0.000      CL =  0.0410
      Cm =  0.0197     CD =  0.01006   =>   CDf =  0.00630    CDp =  0.00376

 Side 1  free  transition at x/c =  0.4796   58
 Side 2  free  transition at x/c =  0.5760   60

  29   rms: 0.5204E-02   max: -.1077E+00   C at   60  2
       a =  0.000      CL =  0.0410
      Cm =  0.0197     CD =  0.01006   =>   CDf =  0.00630    CDp =  0.00376

 Side 1  free  transition at x/c =  0.4796   58
 Side 2  free  transition at x/c =  0.5760   60

  30   rms: 0.5204E-02   max: -.1077E+00   C at   60  2
       a =  0.000      CL =  0.0410
      Cm =  0.0197     CD =  0.01006   =>   CDf =  0.00630    CDp =  0.00376

 Side 1  free  transition at x/c =  0.4796   58
 Side 2  free  transition at x/c =  0.5760   60

  31   rms: 0.5204E-02   max: -.1077E+00   C at   60  2
       a =  0.000      CL =  0.0410
      Cm =  0.0197     CD =  0.01006   =>   CDf =  0.00630    CDp =  0.00376

 Side 1  free  transition at x/c =  0.4796   58
 Side 2  free  transition at x/c =  0.5760   60

  32   rms: 0.5204E-02   max: -.1077E+00   C at   60  2
       a =  0.000      CL =  0.0410
      Cm =  0.0197     CD =  0.01006   =>   CDf =  0.00630    CDp =  0.00376

 Side 1  free  transition at x/c =  0.4796   58
 Side 2  free  transition at x/c =  0.5760   60

  33   rms: 0.5204E-02   max: -.1077E+00   C at   60  2
       a =  0.000      CL =  0.0410
      Cm =  0.0197     CD =  0.01006   =>   CDf =  0.00630    CDp =  0.00376

 Side 1  free  transition at x/c =  0.4796   58
 Side 2  free  transition at x/c =  0.5760   60

  34   rms: 0.5204E-02   max: -.1077E+00   C at   60  2
       a =  0.000      CL =  0.0410
      Cm =  0.0197     CD =  0.01006   =>   CDf =  0.00630    CDp =  0.00376

 Side 1  free  transition at x/c =  0.4796   58
 Side 2  free  transition at x/c =  0.5760   60

  35   rms: 0.5204E-02   max: -.1077E+00   C at   60  2
       a =  0.000      CL =  0.0410
      Cm =  0.0197     CD =  0.01006   =>   CDf =  0.00630    CDp =  0.00376

 Side 1  free  transition at x/c =  0.4796   58
 Side 2  free  transition at x/c =  0.5760   60

  36   rms: 0.5204E-02   max: -.1077E+00   C at   60  2
       a =  0.000      CL =  0.0410
      Cm =  0.0197     CD =  0.01006   =>   CDf =  0.00630    CDp =  0.00376

 Side 1  free  transition at x/c =  0.4796   58
 Side 2  free  transition at x/c =  0.5760   60

  37   rms: 0.5204E-02   max: -.1077E+00   C at   60  2
       a =  0.000      CL =  0.0410
      Cm =  0.0197     CD =  0.01006   =>   CDf =  0.00630    CDp =  0.00376

 Side 1  free  transition at x/c =  0.4796   58
 Side 2  free  transition at x/c =  0.5760   60

  38   rms: 0.5204E-02   max: -.1077E+00   C at   60  2
       a =  0.000      CL =  0.0410
      Cm =  0.0197     CD =  0.01006   =>   CDf =  0.00630    CDp =  0.00376

 Side 1  free  transition at x/c =  0.4796   58
 Side 2  free  transition at x/c =  0.5760   60

  39   rms: 0.5204E-02   max: -.1077E+00   C at   60  2
       a =  0.000      CL =  0.0410
      Cm =  0.0197     CD =  0.01006   =>   CDf =  0.00630    CDp =  0.00376

 Side 1  free  transition at x/c =  0.4796   58
 Side 2  free  transition at x/c =  0.5760   60

  40   rms: 0.5204E-02   max: -.1077E+00   C at   60  2
       a =  0.000      CL =  0.0410
      Cm =  0.0197     CD =  0.01006   =>   CDf =  0.00630    CDp =  0.00376

 Side 1  free  transition at x/c =  0.4796   58
 Side 2  free  transition at x/c =  0.5760   60

  41   rms: 0.5204E-02   max: -.1077E+00   C at   60  2
       a =  0.000      CL =  0.0410
      Cm =  0.0197     CD =  0.01006   =>   CDf =  0.00630    CDp =  0.00376

 Side 1  free  transition at x/c =  0.4796   58
 Side 2  free  transition at x/c =  0.5760   60

  42   rms: 0.5204E-02   max: -.1077E+00   C at   60  2
       a =  0.000      CL =  0.0410
      Cm =  0.0197     CD =  0.01006   =>   CDf =  0.00630    CDp =  0.00376

 Side 1  free  transition at x/c =  0.4796   58
 Side 2  free  transition at x/c =  0.5760   60

  43   rms: 0.5204E-02   max: -.1077E+00   C at   60  2
       a =  0.000      CL =  0.0410
      Cm =  0.0197     CD =  0.01006   =>   CDf =  0.00630    CDp =  0.00376

 Side 1  free  transition at x/c =  0.4796   58
 Side 2  free  transition at x/c =  0.5760   60

  44   rms: 0.5204E-02   max: -.1077E+00   C at   60  2
       a =  0.000      CL =  0.0410
      Cm =  0.0197     CD =  0.01006   =>   CDf =  0.00630    CDp =  0.00376

 Side 1  free  transition at x/c =  0.4796   58
 Side 2  free  transition at x/c =  0.5760   60

  45   rms: 0.5204E-02   max: -.1077E+00   C at   60  2
       a =  0.000      CL =  0.0410
      Cm =  0.0197     CD =  0.01006   =>   CDf =  0.00630    CDp =  0.00376

 Side 1  free  transition at x/c =  0.4796   58
 Side 2  free  transition at x/c =  0.5760   60

  46   rms: 0.5204E-02   max: -.1077E+00   C at   60  2
       a =  0.000      CL =  0.0410
      Cm =  0.0197     CD =  0.01006   =>   CDf =  0.00630    CDp =  0.00376

 Side 1  free  transition at x/c =  0.4796   58
 Side 2  free  transition at x/c =  0.5760   60

  47   rms: 0.5204E-02   max: -.1077E+00   C at   60  2
       a =  0.000      CL =  0.0410
      Cm =  0.0197     CD =  0.01006   =>   CDf =  0.00630    CDp =  0.00376

 Side 1  free  transition at x/c =  0.4796   58
 Side 2  free  transition at x/c =  0.5760   60

  48   rms: 0.5204E-02   max: -.1077E+00   C at   60  2
       a =  0.000      CL =  0.0410
      Cm =  0.0197     CD =  0.01006   =>   CDf =  0.00630    CDp =  0.00376

 Side 1  free  transition at x/c =  0.4796   58
 Side 2  free  transition at x/c =  0.5760   60

  49   rms: 0.5204E-02   max: -.1077E+00   C at   60  2
       a =  0.000      CL =  0.0410
      Cm =  0.0197     CD =  0.01006   =>   CDf =  0.00630    CDp =  0.00376

 Side 1  free  transition at x/c =  0.4796   58
 Side 2  free  transition at x/c =  0.5760   60

  50   rms: 0.5204E-02   max: -.1077E+00   C at   60  2
       a =  0.000      CL =  0.0410
      Cm =  0.0197     CD =  0.01006   =>   CDf =  0.00630    CDp =  0.00376

 Side 1  free  transition at x/c =  0.4796   58
 Side 2  free  transition at x/c =  0.5760   60

  51   rms: 0.5204E-02   max: -.1077E+00   C at   60  2
       a =  0.000      CL =  0.0410
      Cm =  0.0197     CD =  0.01006   =>   CDf =  0.00630    CDp =  0.00376

 Side 1  free  transition at x/c =  0.4796   58
 Side 2  free  transition at x/c =  0.5760   60

  52   rms: 0.5204E-02   max: -.1077E+00   C at   60  2
       a =  0.000      CL =  0.0410
      Cm =  0.0197     CD =  0.01006   =>   CDf =  0.00630    CDp =  0.00376

 Side 1  free  transition at x/c =  0.4796   58
 Side 2  free  transition at x/c =  0.5760   60

  53   rms: 0.5204E-02   max: -.1077E+00   C at   60  2
       a =  0.000      CL =  0.0410
      Cm =  0.0197     CD =  0.01006   =>   CDf =  0.00630    CDp =  0.00376

 Side 1  free  transition at x/c =  0.4796   58
 Side 2  free  transition at x/c =  0.5760   60

  54   rms: 0.5204E-02   max: -.1077E+00   C at   60  2
       a =  0.000      CL =  0.0410
      Cm =  0.0197     CD =  0.01006   =>   CDf =  0.00630    CDp =  0.00376

 Side 1  free  transition at x/c =  0.4796   58
 Side 2  free  transition at x/c =  0.5760   60

  55   rms: 0.5204E-02   max: -.1077E+00   C at   60  2
       a =  0.000      CL =  0.0410
      Cm =  0.0197     CD =  0.01006   =>   CDf =  0.00630    CDp =  0.00376

 Side 1  free  transition at x/c =  0.4796   58
 Side 2  free  transition at x/c =  0.5760   60

  56   rms: 0.5204E-02   max: -.1077E+00   C at   60  2
       a =  0.000      CL =  0.0410
      Cm =  0.0197     CD =  0.01006   =>   CDf =  0.00630    CDp =  0.00376

 Side 1  free  transition at x/c =  0.4796   58
 Side 2  free  transition at x/c =  0.5760   60

  57   rms: 0.5204E-02   max: -.1077E+00   C at   60  2
       a =  0.000      CL =  0.0410
      Cm =  0.0197     CD =  0.01006   =>   CDf =  0.00630    CDp =  0.00376

 Side 1  free  transition at x/c =  0.4796   58
 Side 2  free  transition at x/c =  0.5760   60

  58   rms: 0.5204E-02   max: -.1077E+00   C at   60  2
       a =  0.000      CL =  0.0410
      Cm =  0.0197     CD =  0.01006   =>   CDf =  0.00630    CDp =  0.00376

 Side 1  free  transition at x/c =  0.4796   58
 Side 2  free  transition at x/c =  0.5760   60

  59   rms: 0.5204E-02   max: -.1077E+00   C at   60  2
       a =  0.000      CL =  0.0410
      Cm =  0.0197     CD =  0.01006   =>   CDf =  0.00630    CDp =  0.00376

 Side 1  free  transition at x/c =  0.4796   58
 Side 2  free  transition at x/c =  0.5760   60

  60   rms: 0.5204E-02   max: -.1077E+00   C at   60  2
       a =  0.000      CL =  0.0410
      Cm =  0.0197     CD =  0.01006   =>   CDf =  0.00630    CDp =  0.00376

 Side 1  free  transition at x/c =  0.4796   58
 Side 2  free  transition at x/c =  0.5760   60

  61   rms: 0.5204E-02   max: -.1077E+00   C at   60  2
       a =  0.000      CL =  0.0410
      Cm =  0.0197     CD =  0.01006   =>   CDf =  0.00630    CDp =  0.00376

 Side 1  free  transition at x/c =  0.4796   58
 Side 2  free  transition at x/c =  0.5760   60

  62   rms: 0.5204E-02   max: -.1077E+00   C at   60  2
       a =  0.000      CL =  0.0410
      Cm =  0.0197     CD =  0.01006   =>   CDf =  0.00630    CDp =  0.00376

 Side 1  free  transition at x/c =  0.4796   58
 Side 2  free  transition at x/c =  0.5760   60

  63   rms: 0.5204E-02   max: -.1077E+00   C at   60  2
       a =  0.000      CL =  0.0410
      Cm =  0.0197     CD =  0.01006   =>   CDf =  0.00630    CDp =  0.00376

 Side 1  free  transition at x/c =  0.4796   58
 Side 2  free  transition at x/c =  0.5760   60

  64   rms: 0.5204E-02   max: -.1077E+00   C at   60  2
       a =  0.000      CL =  0.0410
      Cm =  0.0197     CD =  0.01006   =>   CDf =  0.00630    CDp =  0.00376

 Side 1  free  transition at x/c =  0.4796   58
 Side 2  free  transition at x/c =  0.5760   60

  65   rms: 0.5204E-02   max: -.1077E+00   C at   60  2
       a =  0.000      CL =  0.0410
      Cm =  0.0197     CD =  0.01006   =>   CDf =  0.00630    CDp =  0.00376

 Side 1  free  transition at x/c =  0.4796   58
 Side 2  free  transition at x/c =  0.5760   60

  66   rms: 0.5204E-02   max: -.1077E+00   C at   60  2
       a =  0.000      CL =  0.0410
      Cm =  0.0197     CD =  0.01006   =>   CDf =  0.00630    CDp =  0.00376

 Side 1  free  transition at x/c =  0.4796   58
 Side 2  free  transition at x/c =  0.5760   60

  67   rms: 0.5204E-02   max: -.1077E+00   C at   60  2
       a =  0.000      CL =  0.0410
      Cm =  0.0197     CD =  0.01006   =>   CDf =  0.00630    CDp =  0.00376

 Side 1  free  transition at x/c =  0.4796   58
 Side 2  free  transition at x/c =  0.5760   60

  68   rms: 0.5204E-02   max: -.1077E+00   C at   60  2
       a =  0.000      CL =  0.0410
      Cm =  0.0197     CD =  0.01006   =>   CDf =  0.00630    CDp =  0.00376

 Side 1  free  transition at x/c =  0.4796   58
 Side 2  free  transition at x/c =  0.5760   60

  69   rms: 0.5204E-02   max: -.1077E+00   C at   60  2
       a =  0.000      CL =  0.0410
      Cm =  0.0197     CD =  0.01006   =>   CDf =  0.00630    CDp =  0.00376

 Side 1  free  transition at x/c =  0.4796   58
 Side 2  free  transition at x/c =  0.5760   60

  70   rms: 0.5204E-02   max: -.1077E+00   C at   60  2
       a =  0.000      CL =  0.0410
      Cm =  0.0197     CD =  0.01006   =>   CDf =  0.00630    CDp =  0.00376

 Side 1  free  transition at x/c =  0.4796   58
 Side 2  free  transition at x/c =  0.5760   60

  71   rms: 0.5204E-02   max: -.1077E+00   C at   60  2
       a =  0.000      CL =  0.0410
      Cm =  0.0197     CD =  0.01006   =>   CDf =  0.00630    CDp =  0.00376

 Side 1  free  transition at x/c =  0.4796   58
 Side 2  free  transition at x/c =  0.5760   60

  72   rms: 0.5204E-02   max: -.1077E+00   C at   60  2
       a =  0.000      CL =  0.0410
      Cm =  0.0197     CD =  0.01006   =>   CDf =  0.00630    CDp =  0.00376

 Side 1  free  transition at x/c =  0.4796   58
 Side 2  free  transition at x/c =  0.5760   60

  73   rms: 0.5204E-02   max: -.1077E+00   C at   60  2
       a =  0.000      CL =  0.0410
      Cm =  0.0197     CD =  0.01006   =>   CDf =  0.00630    CDp =  0.00376

 Side 1  free  transition at x/c =  0.4796   58
 Side 2  free  transition at x/c =  0.5760   60

  74   rms: 0.5204E-02   max: -.1077E+00   C at   60  2
       a =  0.000      CL =  0.0410
      Cm =  0.0197     CD =  0.01006   =>   CDf =  0.00630    CDp =  0.00376

 Side 1  free  transition at x/c =  0.4796   58
 Side 2  free  transition at x/c =  0.5760   60

  75   rms: 0.5204E-02   max: -.1077E+00   C at   60  2
       a =  0.000      CL =  0.0410
      Cm =  0.0197     CD =  0.01006   =>   CDf =  0.00630    CDp =  0.00376

 Side 1  free  transition at x/c =  0.4796   58
 Side 2  free  transition at x/c =  0.5760   60

  76   rms: 0.5204E-02   max: -.1077E+00   C at   60  2
       a =  0.000      CL =  0.0410
      Cm =  0.0197     CD =  0.01006   =>   CDf =  0.00630    CDp =  0.00376

 Side 1  free  transition at x/c =  0.4796   58
 Side 2  free  transition at x/c =  0.5760   60

  77   rms: 0.5204E-02   max: -.1077E+00   C at   60  2
       a =  0.000      CL =  0.0410
      Cm =  0.0197     CD =  0.01006   =>   CDf =  0.00630    CDp =  0.00376

 Side 1  free  transition at x/c =  0.4796   58
 Side 2  free  transition at x/c =  0.5760   60

  78   rms: 0.5204E-02   max: -.1077E+00   C at   60  2
       a =  0.000      CL =  0.0410
      Cm =  0.0197     CD =  0.01006   =>   CDf =  0.00630    CDp =  0.00376

 Side 1  free  transition at x/c =  0.4796   58
 Side 2  free  transition at x/c =  0.5760   60

  79   rms: 0.5204E-02   max: -.1077E+00   C at   60  2
       a =  0.000      CL =  0.0410
      Cm =  0.0197     CD =  0.01006   =>   CDf =  0.00630    CDp =  0.00376

 Side 1  free  transition at x/c =  0.4796   58
 Side 2  free  transition at x/c =  0.5760   60

  80   rms: 0.5204E-02   max: -.1077E+00   C at   60  2
       a =  0.000      CL =  0.0410
      Cm =  0.0197     CD =  0.01006   =>   CDf =  0.00630    CDp =  0.00376

 Side 1  free  transition at x/c =  0.4796   58
 Side 2  free  transition at x/c =  0.5760   60

  81   rms: 0.5204E-02   max: -.1077E+00   C at   60  2
       a =  0.000      CL =  0.0410
      Cm =  0.0197     CD =  0.01006   =>   CDf =  0.00630    CDp =  0.00376

 Side 1  free  transition at x/c =  0.4796   58
 Side 2  free  transition at x/c =  0.5760   60

  82   rms: 0.5204E-02   max: -.1077E+00   C at   60  2
       a =  0.000      CL =  0.0410
      Cm =  0.0197     CD =  0.01006   =>   CDf =  0.00630    CDp =  0.00376

 Side 1  free  transition at x/c =  0.4796   58
 Side 2  free  transition at x/c =  0.5760   60

  83   rms: 0.5204E-02   max: -.1077E+00   C at   60  2
       a =  0.000      CL =  0.0410
      Cm =  0.0197     CD =  0.01006   =>   CDf =  0.00630    CDp =  0.00376

 Side 1  free  transition at x/c =  0.4796   58
 Side 2  free  transition at x/c =  0.5760   60

  84   rms: 0.5204E-02   max: -.1077E+00   C at   60  2
       a =  0.000      CL =  0.0410
      Cm =  0.0197     CD =  0.01006   =>   CDf =  0.00630    CDp =  0.00376

 Side 1  free  transition at x/c =  0.4796   58
 Side 2  free  transition at x/c =  0.5760   60

  85   rms: 0.5204E-02   max: -.1077E+00   C at   60  2
       a =  0.000      CL =  0.0410
      Cm =  0.0197     CD =  0.01006   =>   CDf =  0.00630    CDp =  0.00376

 Side 1  free  transition at x/c =  0.4796   58
 Side 2  free  transition at x/c =  0.5760   60

  86   rms: 0.5204E-02   max: -.1077E+00   C at   60  2
       a =  0.000      CL =  0.0410
      Cm =  0.0197     CD =  0.01006   =>   CDf =  0.00630    CDp =  0.00376

 Side 1  free  transition at x/c =  0.4796   58
 Side 2  free  transition at x/c =  0.5760   60

  87   rms: 0.5204E-02   max: -.1077E+00   C at   60  2
       a =  0.000      CL =  0.0410
      Cm =  0.0197     CD =  0.01006   =>   CDf =  0.00630    CDp =  0.00376

 Side 1  free  transition at x/c =  0.4796   58
 Side 2  free  transition at x/c =  0.5760   60

  88   rms: 0.5204E-02   max: -.1077E+00   C at   60  2
       a =  0.000      CL =  0.0410
      Cm =  0.0197     CD =  0.01006   =>   CDf =  0.00630    CDp =  0.00376

 Side 1  free  transition at x/c =  0.4796   58
 Side 2  free  transition at x/c =  0.5760   60

  89   rms: 0.5204E-02   max: -.1077E+00   C at   60  2
       a =  0.000      CL =  0.0410
      Cm =  0.0197     CD =  0.01006   =>   CDf =  0.00630    CDp =  0.00376

 Side 1  free  transition at x/c =  0.4796   58
 Side 2  free  transition at x/c =  0.5760   60

  90   rms: 0.5204E-02   max: -.1077E+00   C at   60  2
       a =  0.000      CL =  0.0410
      Cm =  0.0197     CD =  0.01006   =>   CDf =  0.00630    CDp =  0.00376

 Side 1  free  transition at x/c =  0.4796   58
 Side 2  free  transition at x/c =  0.5760   60

  91   rms: 0.5204E-02   max: -.1077E+00   C at   60  2
       a =  0.000      CL =  0.0410
      Cm =  0.0197     CD =  0.01006   =>   CDf =  0.00630    CDp =  0.00376

 Side 1  free  transition at x/c =  0.4796   58
 Side 2  free  transition at x/c =  0.5760   60

  92   rms: 0.5204E-02   max: -.1077E+00   C at   60  2
       a =  0.000      CL =  0.0410
      Cm =  0.0197     CD =  0.01006   =>   CDf =  0.00630    CDp =  0.00376

 Side 1  free  transition at x/c =  0.4796   58
 Side 2  free  transition at x/c =  0.5760   60

  93   rms: 0.5204E-02   max: -.1077E+00   C at   60  2
       a =  0.000      CL =  0.0410
      Cm =  0.0197     CD =  0.01006   =>   CDf =  0.00630    CDp =  0.00376

 Side 1  free  transition at x/c =  0.4796   58
 Side 2  free  transition at x/c =  0.5760   60

  94   rms: 0.5204E-02   max: -.1077E+00   C at   60  2
       a =  0.000      CL =  0.0410
      Cm =  0.0197     CD =  0.01006   =>   CDf =  0.00630    CDp =  0.00376

 Side 1  free  transition at x/c =  0.4796   58
 Side 2  free  transition at x/c =  0.5760   60

  95   rms: 0.5204E-02   max: -.1077E+00   C at   60  2
       a =  0.000      CL =  0.0410
      Cm =  0.0197     CD =  0.01006   =>   CDf =  0.00630    CDp =  0.00376

 Side 1  free  transition at x/c =  0.4796   58
 Side 2  free  transition at x/c =  0.5760   60

  96   rms: 0.5204E-02   max: -.1077E+00   C at   60  2
       a =  0.000      CL =  0.0410
      Cm =  0.0197     CD =  0.01006   =>   CDf =  0.00630    CDp =  0.00376

 Side 1  free  transition at x/c =  0.4796   58
 Side 2  free  transition at x/c =  0.5760   60

  97   rms: 0.5204E-02   max: -.1077E+00   C at   60  2
       a =  0.000      CL =  0.0410
      Cm =  0.0197     CD =  0.01006   =>   CDf =  0.00630    CDp =  0.00376

 Side 1  free  transition at x/c =  0.4796   58
 Side 2  free  transition at x/c =  0.5760   60

  98   rms: 0.5204E-02   max: -.1077E+00   C at   60  2
       a =  0.000      CL =  0.0410
      Cm =  0.0197     CD =  0.01006   =>   CDf =  0.00630    CDp =  0.00376

 Side 1  free  transition at x/c =  0.4796   58
 Side 2  free  transition at x/c =  0.5760   60

  99   rms: 0.5204E-02   max: -.1077E+00   C at   60  2
       a =  0.000      CL =  0.0410
      Cm =  0.0197     CD =  0.01006   =>   CDf =  0.00630    CDp =  0.00376

 Side 1  free  transition at x/c =  0.4796   58
 Side 2  free  transition at x/c =  0.5760   60

 100   rms: 0.5204E-02   max: -.1077E+00   C at   60  2
       a =  0.000      CL =  0.0410
      Cm =  0.0197     CD =  0.01006   =>   CDf =  0.00630    CDp =  0.00376

 Side 1  free  transition at x/c =  0.4796   58
 Side 2  free  transition at x/c =  0.5760   60

 101   rms: 0.5204E-02   max: -.1077E+00   C at   60  2
       a =  0.000      CL =  0.0410
      Cm =  0.0197     CD =  0.01006   =>   CDf =  0.00630    CDp =  0.00376

 Side 1  free  transition at x/c =  0.4796   58
 Side 2  free  transition at x/c =  0.5760   60

 102   rms: 0.5204E-02   max: -.1077E+00   C at   60  2
       a =  0.000      CL =  0.0410
      Cm =  0.0197     CD =  0.01006   =>   CDf =  0.00630    CDp =  0.00376

 Side 1  free  transition at x/c =  0.4796   58
 Side 2  free  transition at x/c =  0.5760   60

 103   rms: 0.5204E-02   max: -.1077E+00   C at   60  2
       a =  0.000      CL =  0.0410
      Cm =  0.0197     CD =  0.01006   =>   CDf =  0.00630    CDp =  0.00376

 Side 1  free  transition at x/c =  0.4796   58
 Side 2  free  transition at x/c =  0.5760   60

 104   rms: 0.5204E-02   max: -.1077E+00   C at   60  2
       a =  0.000      CL =  0.0410
      Cm =  0.0197     CD =  0.01006   =>   CDf =  0.00630    CDp =  0.00376

 Side 1  free  transition at x/c =  0.4796   58
 Side 2  free  transition at x/c =  0.5760   60

 105   rms: 0.5204E-02   max: -.1077E+00   C at   60  2
       a =  0.000      CL =  0.0410
      Cm =  0.0197     CD =  0.01006   =>   CDf =  0.00630    CDp =  0.00376

 Side 1  free  transition at x/c =  0.4796   58
 Side 2  free  transition at x/c =  0.5760   60

 106   rms: 0.5204E-02   max: -.1077E+00   C at   60  2
       a =  0.000      CL =  0.0410
      Cm =  0.0197     CD =  0.01006   =>   CDf =  0.00630    CDp =  0.00376

 Side 1  free  transition at x/c =  0.4796   58
 Side 2  free  transition at x/c =  0.5760   60

 107   rms: 0.5204E-02   max: -.1077E+00   C at   60  2
       a =  0.000      CL =  0.0410
      Cm =  0.0197     CD =  0.01006   =>   CDf =  0.00630    CDp =  0.00376

 Side 1  free  transition at x/c =  0.4796   58
 Side 2  free  transition at x/c =  0.5760   60

 108   rms: 0.5204E-02   max: -.1077E+00   C at   60  2
       a =  0.000      CL =  0.0410
      Cm =  0.0197     CD =  0.01006   =>   CDf =  0.00630    CDp =  0.00376

 Side 1  free  transition at x/c =  0.4796   58
 Side 2  free  transition at x/c =  0.5760   60

 109   rms: 0.5204E-02   max: -.1077E+00   C at   60  2
       a =  0.000      CL =  0.0410
      Cm =  0.0197     CD =  0.01006   =>   CDf =  0.00630    CDp =  0.00376

 Side 1  free  transition at x/c =  0.4796   58
 Side 2  free  transition at x/c =  0.5760   60

 110   rms: 0.5204E-02   max: -.1077E+00   C at   60  2
       a =  0.000      CL =  0.0410
      Cm =  0.0197     CD =  0.01006   =>   CDf =  0.00630    CDp =  0.00376

 Side 1  free  transition at x/c =  0.4796   58
 Side 2  free  transition at x/c =  0.5760   60

 111   rms: 0.5204E-02   max: -.1077E+00   C at   60  2
       a =  0.000      CL =  0.0410
      Cm =  0.0197     CD =  0.01006   =>   CDf =  0.00630    CDp =  0.00376

 Side 1  free  transition at x/c =  0.4796   58
 Side 2  free  transition at x/c =  0.5760   60

 112   rms: 0.5204E-02   max: -.1077E+00   C at   60  2
       a =  0.000      CL =  0.0410
      Cm =  0.0197     CD =  0.01006   =>   CDf =  0.00630    CDp =  0.00376

 Side 1  free  transition at x/c =  0.4796   58
 Side 2  free  transition at x/c =  0.5760   60

 113   rms: 0.5204E-02   max: -.1077E+00   C at   60  2
       a =  0.000      CL =  0.0410
      Cm =  0.0197     CD =  0.01006   =>   CDf =  0.00630    CDp =  0.00376

 Side 1  free  transition at x/c =  0.4796   58
 Side 2  free  transition at x/c =  0.5760   60

 114   rms: 0.5204E-02   max: -.1077E+00   C at   60  2
       a =  0.000      CL =  0.0410
      Cm =  0.0197     CD =  0.01006   =>   CDf =  0.00630    CDp =  0.00376

 Side 1  free  transition at x/c =  0.4796   58
 Side 2  free  transition at x/c =  0.5760   60

 115   rms: 0.5204E-02   max: -.1077E+00   C at   60  2
       a =  0.000      CL =  0.0410
      Cm =  0.0197     CD =  0.01006   =>   CDf =  0.00630    CDp =  0.00376

 Side 1  free  transition at x/c =  0.4796   58
 Side 2  free  transition at x/c =  0.5760   60

 116   rms: 0.5204E-02   max: -.1077E+00   C at   60  2
       a =  0.000      CL =  0.0410
      Cm =  0.0197     CD =  0.01006   =>   CDf =  0.00630    CDp =  0.00376

 Side 1  free  transition at x/c =  0.4796   58
 Side 2  free  transition at x/c =  0.5760   60

 117   rms: 0.5204E-02   max: -.1077E+00   C at   60  2
       a =  0.000      CL =  0.0410
      Cm =  0.0197     CD =  0.01006   =>   CDf =  0.00630    CDp =  0.00376

 Side 1  free  transition at x/c =  0.4796   58
 Side 2  free  transition at x/c =  0.5760   60

 118   rms: 0.5204E-02   max: -.1077E+00   C at   60  2
       a =  0.000      CL =  0.0410
      Cm =  0.0197     CD =  0.01006   =>   CDf =  0.00630    CDp =  0.00376

 Side 1  free  transition at x/c =  0.4796   58
 Side 2  free  transition at x/c =  0.5760   60

 119   rms: 0.5204E-02   max: -.1077E+00   C at   60  2
       a =  0.000      CL =  0.0410
      Cm =  0.0197     CD =  0.01006   =>   CDf =  0.00630    CDp =  0.00376

 Side 1  free  transition at x/c =  0.4796   58
 Side 2  free  transition at x/c =  0.5760   60

 120   rms: 0.5204E-02   max: -.1077E+00   C at   60  2
       a =  0.000      CL =  0.0410
      Cm =  0.0197     CD =  0.01006   =>   CDf =  0.00630    CDp =  0.00376

 Side 1  free  transition at x/c =  0.4796   58
 Side 2  free  transition at x/c =  0.5760   60

 121   rms: 0.5204E-02   max: -.1077E+00   C at   60  2
       a =  0.000      CL =  0.0410
      Cm =  0.0197     CD =  0.01006   =>   CDf =  0.00630    CDp =  0.00376

 Side 1  free  transition at x/c =  0.4796   58
 Side 2  free  transition at x/c =  0.5760   60

 122   rms: 0.5204E-02   max: -.1077E+00   C at   60  2
       a =  0.000      CL =  0.0410
      Cm =  0.0197     CD =  0.01006   =>   CDf =  0.00630    CDp =  0.00376

 Side 1  free  transition at x/c =  0.4796   58
 Side 2  free  transition at x/c =  0.5760   60

 123   rms: 0.5204E-02   max: -.1077E+00   C at   60  2
       a =  0.000      CL =  0.0410
      Cm =  0.0197     CD =  0.01006   =>   CDf =  0.00630    CDp =  0.00376

 Side 1  free  transition at x/c =  0.4796   58
 Side 2  free  transition at x/c =  0.5760   60

 124   rms: 0.5204E-02   max: -.1077E+00   C at   60  2
       a =  0.000      CL =  0.0410
      Cm =  0.0197     CD =  0.01006   =>   CDf =  0.00630    CDp =  0.00376

 Side 1  free  transition at x/c =  0.4796   58
 Side 2  free  transition at x/c =  0.5760   60

 125   rms: 0.5204E-02   max: -.1077E+00   C at   60  2
       a =  0.000      CL =  0.0410
      Cm =  0.0197     CD =  0.01006   =>   CDf =  0.00630    CDp =  0.00376

 Side 1  free  transition at x/c =  0.4796   58
 Side 2  free  transition at x/c =  0.5760   60

 126   rms: 0.5204E-02   max: -.1077E+00   C at   60  2
       a =  0.000      CL =  0.0410
      Cm =  0.0197     CD =  0.01006   =>   CDf =  0.00630    CDp =  0.00376

 Side 1  free  transition at x/c =  0.4796   58
 Side 2  free  transition at x/c =  0.5760   60

 127   rms: 0.5204E-02   max: -.1077E+00   C at   60  2
       a =  0.000      CL =  0.0410
      Cm =  0.0197     CD =  0.01006   =>   CDf =  0.00630    CDp =  0.00376

 Side 1  free  transition at x/c =  0.4796   58
 Side 2  free  transition at x/c =  0.5760   60

 128   rms: 0.5204E-02   max: -.1077E+00   C at   60  2
       a =  0.000      CL =  0.0410
      Cm =  0.0197     CD =  0.01006   =>   CDf =  0.00630    CDp =  0.00376

 Side 1  free  transition at x/c =  0.4796   58
 Side 2  free  transition at x/c =  0.5760   60

 129   rms: 0.5204E-02   max: -.1077E+00   C at   60  2
       a =  0.000      CL =  0.0410
      Cm =  0.0197     CD =  0.01006   =>   CDf =  0.00630    CDp =  0.00376

 Side 1  free  transition at x/c =  0.4796   58
 Side 2  free  transition at x/c =  0.5760   60

 130   rms: 0.5204E-02   max: -.1077E+00   C at   60  2
       a =  0.000      CL =  0.0410
      Cm =  0.0197     CD =  0.01006   =>   CDf =  0.00630    CDp =  0.00376

 Side 1  free  transition at x/c =  0.4796   58
 Side 2  free  transition at x/c =  0.5760   60

 131   rms: 0.5204E-02   max: -.1077E+00   C at   60  2
       a =  0.000      CL =  0.0410
      Cm =  0.0197     CD =  0.01006   =>   CDf =  0.00630    CDp =  0.00376

 Side 1  free  transition at x/c =  0.4796   58
 Side 2  free  transition at x/c =  0.5760   60

 132   rms: 0.5204E-02   max: -.1077E+00   C at   60  2
       a =  0.000      CL =  0.0410
      Cm =  0.0197     CD =  0.01006   =>   CDf =  0.00630    CDp =  0.00376

 Side 1  free  transition at x/c =  0.4796   58
 Side 2  free  transition at x/c =  0.5760   60

 133   rms: 0.5204E-02   max: -.1077E+00   C at   60  2
       a =  0.000      CL =  0.0410
      Cm =  0.0197     CD =  0.01006   =>   CDf =  0.00630    CDp =  0.00376

 Side 1  free  transition at x/c =  0.4796   58
 Side 2  free  transition at x/c =  0.5760   60

 134   rms: 0.5204E-02   max: -.1077E+00   C at   60  2
       a =  0.000      CL =  0.0410
      Cm =  0.0197     CD =  0.01006   =>   CDf =  0.00630    CDp =  0.00376

 Side 1  free  transition at x/c =  0.4796   58
 Side 2  free  transition at x/c =  0.5760   60

 135   rms: 0.5204E-02   max: -.1077E+00   C at   60  2
       a =  0.000      CL =  0.0410
      Cm =  0.0197     CD =  0.01006   =>   CDf =  0.00630    CDp =  0.00376

 Side 1  free  transition at x/c =  0.4796   58
 Side 2  free  transition at x/c =  0.5760   60

 136   rms: 0.5204E-02   max: -.1077E+00   C at   60  2
       a =  0.000      CL =  0.0410
      Cm =  0.0197     CD =  0.01006   =>   CDf =  0.00630    CDp =  0.00376

 Side 1  free  transition at x/c =  0.4796   58
 Side 2  free  transition at x/c =  0.5760   60

 137   rms: 0.5204E-02   max: -.1077E+00   C at   60  2
       a =  0.000      CL =  0.0410
      Cm =  0.0197     CD =  0.01006   =>   CDf =  0.00630    CDp =  0.00376

 Side 1  free  transition at x/c =  0.4796   58
 Side 2  free  transition at x/c =  0.5760   60

 138   rms: 0.5204E-02   max: -.1077E+00   C at   60  2
       a =  0.000      CL =  0.0410
      Cm =  0.0197     CD =  0.01006   =>   CDf =  0.00630    CDp =  0.00376

 Side 1  free  transition at x/c =  0.4796   58
 Side 2  free  transition at x/c =  0.5760   60

 139   rms: 0.5204E-02   max: -.1077E+00   C at   60  2
       a =  0.000      CL =  0.0410
      Cm =  0.0197     CD =  0.01006   =>   CDf =  0.00630    CDp =  0.00376

 Side 1  free  transition at x/c =  0.4796   58
 Side 2  free  transition at x/c =  0.5760   60

 140   rms: 0.5204E-02   max: -.1077E+00   C at   60  2
       a =  0.000      CL =  0.0410
      Cm =  0.0197     CD =  0.01006   =>   CDf =  0.00630    CDp =  0.00376

 Side 1  free  transition at x/c =  0.4796   58
 Side 2  free  transition at x/c =  0.5760   60

 141   rms: 0.5204E-02   max: -.1077E+00   C at   60  2
       a =  0.000      CL =  0.0410
      Cm =  0.0197     CD =  0.01006   =>   CDf =  0.00630    CDp =  0.00376

 Side 1  free  transition at x/c =  0.4796   58
 Side 2  free  transition at x/c =  0.5760   60

 142   rms: 0.5204E-02   max: -.1077E+00   C at   60  2
       a =  0.000      CL =  0.0410
      Cm =  0.0197     CD =  0.01006   =>   CDf =  0.00630    CDp =  0.00376

 Side 1  free  transition at x/c =  0.4796   58
 Side 2  free  transition at x/c =  0.5760   60

 143   rms: 0.5204E-02   max: -.1077E+00   C at   60  2
       a =  0.000      CL =  0.0410
      Cm =  0.0197     CD =  0.01006   =>   CDf =  0.00630    CDp =  0.00376

 Side 1  free  transition at x/c =  0.4796   58
 Side 2  free  transition at x/c =  0.5760   60

 144   rms: 0.5204E-02   max: -.1077E+00   C at   60  2
       a =  0.000      CL =  0.0410
      Cm =  0.0197     CD =  0.01006   =>   CDf =  0.00630    CDp =  0.00376

 Side 1  free  transition at x/c =  0.4796   58
 Side 2  free  transition at x/c =  0.5760   60

 145   rms: 0.5204E-02   max: -.1077E+00   C at   60  2
       a =  0.000      CL =  0.0410
      Cm =  0.0197     CD =  0.01006   =>   CDf =  0.00630    CDp =  0.00376

 Side 1  free  transition at x/c =  0.4796   58
 Side 2  free  transition at x/c =  0.5760   60

 146   rms: 0.5204E-02   max: -.1077E+00   C at   60  2
       a =  0.000      CL =  0.0410
      Cm =  0.0197     CD =  0.01006   =>   CDf =  0.00630    CDp =  0.00376

 Side 1  free  transition at x/c =  0.4796   58
 Side 2  free  transition at x/c =  0.5760   60

 147   rms: 0.5204E-02   max: -.1077E+00   C at   60  2
       a =  0.000      CL =  0.0410
      Cm =  0.0197     CD =  0.01006   =>   CDf =  0.00630    CDp =  0.00376

 Side 1  free  transition at x/c =  0.4796   58
 Side 2  free  transition at x/c =  0.5760   60

 148   rms: 0.5204E-02   max: -.1077E+00   C at   60  2
       a =  0.000      CL =  0.0410
      Cm =  0.0197     CD =  0.01006   =>   CDf =  0.00630    CDp =  0.00376

 Side 1  free  transition at x/c =  0.4796   58
 Side 2  free  transition at x/c =  0.5760   60

 149   rms: 0.5204E-02   max: -.1077E+00   C at   60  2
       a =  0.000      CL =  0.0410
      Cm =  0.0197     CD =  0.01006   =>   CDf =  0.00630    CDp =  0.00376

 Side 1  free  transition at x/c =  0.4796   58
 Side 2  free  transition at x/c =  0.5760   60

 150   rms: 0.5204E-02   max: -.1077E+00   C at   60  2
       a =  0.000      CL =  0.0410
      Cm =  0.0197     CD =  0.01006   =>   CDf =  0.00630    CDp =  0.00376

 Side 1  free  transition at x/c =  0.4796   58
 Side 2  free  transition at x/c =  0.5760   60

 151   rms: 0.5204E-02   max: -.1077E+00   C at   60  2
       a =  0.000      CL =  0.0410
      Cm =  0.0197     CD =  0.01006   =>   CDf =  0.00630    CDp =  0.00376

 Side 1  free  transition at x/c =  0.4796   58
 Side 2  free  transition at x/c =  0.5760   60

 152   rms: 0.5204E-02   max: -.1077E+00   C at   60  2
       a =  0.000      CL =  0.0410
      Cm =  0.0197     CD =  0.01006   =>   CDf =  0.00630    CDp =  0.00376

 Side 1  free  transition at x/c =  0.4796   58
 Side 2  free  transition at x/c =  0.5760   60

 153   rms: 0.5204E-02   max: -.1077E+00   C at   60  2
       a =  0.000      CL =  0.0410
      Cm =  0.0197     CD =  0.01006   =>   CDf =  0.00630    CDp =  0.00376

 Side 1  free  transition at x/c =  0.4796   58
 Side 2  free  transition at x/c =  0.5760   60

 154   rms: 0.5204E-02   max: -.1077E+00   C at   60  2
       a =  0.000      CL =  0.0410
      Cm =  0.0197     CD =  0.01006   =>   CDf =  0.00630    CDp =  0.00376

 Side 1  free  transition at x/c =  0.4796   58
 Side 2  free  transition at x/c =  0.5760   60

 155   rms: 0.5204E-02   max: -.1077E+00   C at   60  2
       a =  0.000      CL =  0.0410
      Cm =  0.0197     CD =  0.01006   =>   CDf =  0.00630    CDp =  0.00376
 VISCAL:  Convergence failed
 Calculating wake trajectory ...
 Calculating source influence matrix ...

 Solving BL system ...

 Side 1  free  transition at x/c =  0.4796   58
 Side 2  free  transition at x/c =  0.5760   60

   1   rms: 0.6101E-01   max: -.1852E+00   T at   60  2
       a =  0.500      CL =  0.0750
      Cm =  0.0246     CD =  0.01017   =>   CDf =  0.00627    CDp =  0.00390

 Side 1  free  transition at x/c =  0.4600   58
 Side 2  free  transition at x/c =  0.5974   60

   2   rms: 0.1573E-01   max: -.2288E+00   C at   60  2
       a =  0.500      CL =  0.0641
      Cm =  0.0267     CD =  0.01012   =>   CDf =  0.00635    CDp =  0.00377

 Side 1  free  transition at x/c =  0.4611   58
 Side 2  free  transition at x/c =  0.5999   60

   3   rms: 0.5405E-02   max: -.9807E-01   C at   58  1
       a =  0.500      CL =  0.0615
      Cm =  0.0273     CD =  0.01012   =>   CDf =  0.00629    CDp =  0.00383

 Side 1  free  transition at x/c =  0.4613   58
 Side 2  free  transition at x/c =  0.5988   60

   4   rms: 0.4795E-02   max: -.9730E-01   C at   58  1
       a =  0.500      CL =  0.0615
      Cm =  0.0273     CD =  0.01012   =>   CDf =  0.00629    CDp =  0.00383

 Side 1  free  transition at x/c =  0.4613   58
 Side 2  free  transition at x/c =  0.5988   60

   5   rms: 0.4799E-02   max: -.9742E-01   C at   58  1
       a =  0.500      CL =  0.0615
      Cm =  0.0273     CD =  0.01012   =>   CDf =  0.00629    CDp =  0.00383

 Side 1  free  transition at x/c =  0.4613   58
 Side 2  free  transition at x/c =  0.5988   60

   6   rms: 0.4799E-02   max: -.9742E-01   C at   58  1
       a =  0.500      CL =  0.0615
      Cm =  0.0273     CD =  0.01012   =>   CDf =  0.00629    CDp =  0.00383

 Side 1  free  transition at x/c =  0.4613   58
 Side 2  free  transition at x/c =  0.5988   60

   7   rms: 0.4799E-02   max: -.9742E-01   C at   58  1
       a =  0.500      CL =  0.0615
      Cm =  0.0273     CD =  0.01012   =>   CDf =  0.00629    CDp =  0.00383

 Side 1  free  transition at x/c =  0.4613   58
 Side 2  free  transition at x/c =  0.5988   60

   8   rms: 0.4799E-02   max: -.9742E-01   C at   58  1
       a =  0.500      CL =  0.0615
      Cm =  0.0273     CD =  0.01012   =>   CDf =  0.00629    CDp =  0.00383

 Side 1  free  transition at x/c =  0.4613   58
 Side 2  free  transition at x/c =  0.5988   60

   9   rms: 0.4799E-02   max: -.9742E-01   C at   58  1
       a =  0.500      CL =  0.0615
      Cm =  0.0273     CD =  0.01012   =>   CDf =  0.00629    CDp =  0.00383

 Side 1  free  transition at x/c =  0.4613   58
 Side 2  free  transition at x/c =  0.5988   60

  10   rms: 0.4799E-02   max: -.9742E-01   C at   58  1
       a =  0.500      CL =  0.0615
      Cm =  0.0273     CD =  0.01012   =>   CDf =  0.00629    CDp =  0.00383

 Side 1  free  transition at x/c =  0.4613   58
 Side 2  free  transition at x/c =  0.5988   60

  11   rms: 0.4799E-02   max: -.9742E-01   C at   58  1
       a =  0.500      CL =  0.0615
      Cm =  0.0273     CD =  0.01012   =>   CDf =  0.00629    CDp =  0.00383

 Side 1  free  transition at x/c =  0.4613   58
 Side 2  free  transition at x/c =  0.5988   60

  12   rms: 0.4799E-02   max: -.9742E-01   C at   58  1
       a =  0.500      CL =  0.0615
      Cm =  0.0273     CD =  0.01012   =>   CDf =  0.00629    CDp =  0.00383

 Side 1  free  transition at x/c =  0.4613   58
 Side 2  free  transition at x/c =  0.5988   60

  13   rms: 0.4799E-02   max: -.9742E-01   C at   58  1
       a =  0.500      CL =  0.0615
      Cm =  0.0273     CD =  0.01012   =>   CDf =  0.00629    CDp =  0.00383

 Side 1  free  transition at x/c =  0.4613   58
 Side 2  free  transition at x/c =  0.5988   60

  14   rms: 0.4799E-02   max: -.9742E-01   C at   58  1
       a =  0.500      CL =  0.0615
      Cm =  0.0273     CD =  0.01012   =>   CDf =  0.00629    CDp =  0.00383

 Side 1  free  transition at x/c =  0.4613   58
 Side 2  free  transition at x/c =  0.5988   60

  15   rms: 0.4799E-02   max: -.9742E-01   C at   58  1
       a =  0.500      CL =  0.0615
      Cm =  0.0273     CD =  0.01012   =>   CDf =  0.00629    CDp =  0.00383

 Side 1  free  transition at x/c =  0.4613   58
 Side 2  free  transition at x/c =  0.5988   60

  16   rms: 0.4799E-02   max: -.9742E-01   C at   58  1
       a =  0.500      CL =  0.0615
      Cm =  0.0273     CD =  0.01012   =>   CDf =  0.00629    CDp =  0.00383

 Side 1  free  transition at x/c =  0.4613   58
 Side 2  free  transition at x/c =  0.5988   60

  17   rms: 0.4799E-02   max: -.9742E-01   C at   58  1
       a =  0.500      CL =  0.0615
      Cm =  0.0273     CD =  0.01012   =>   CDf =  0.00629    CDp =  0.00383

 Side 1  free  transition at x/c =  0.4613   58
 Side 2  free  transition at x/c =  0.5988   60

  18   rms: 0.4799E-02   max: -.9742E-01   C at   58  1
       a =  0.500      CL =  0.0615
      Cm =  0.0273     CD =  0.01012   =>   CDf =  0.00629    CDp =  0.00383

 Side 1  free  transition at x/c =  0.4613   58
 Side 2  free  transition at x/c =  0.5988   60

  19   rms: 0.4799E-02   max: -.9742E-01   C at   58  1
       a =  0.500      CL =  0.0615
      Cm =  0.0273     CD =  0.01012   =>   CDf =  0.00629    CDp =  0.00383

 Side 1  free  transition at x/c =  0.4613   58
 Side 2  free  transition at x/c =  0.5988   60

  20   rms: 0.4799E-02   max: -.9742E-01   C at   58  1
       a =  0.500      CL =  0.0615
      Cm =  0.0273     CD =  0.01012   =>   CDf =  0.00629    CDp =  0.00383

 Side 1  free  transition at x/c =  0.4613   58
 Side 2  free  transition at x/c =  0.5988   60

  21   rms: 0.4799E-02   max: -.9742E-01   C at   58  1
       a =  0.500      CL =  0.0615
      Cm =  0.0273     CD =  0.01012   =>   CDf =  0.00629    CDp =  0.00383

 Side 1  free  transition at x/c =  0.4613   58
 Side 2  free  transition at x/c =  0.5988   60

  22   rms: 0.4799E-02   max: -.9742E-01   C at   58  1
       a =  0.500      CL =  0.0615
      Cm =  0.0273     CD =  0.01012   =>   CDf =  0.00629    CDp =  0.00383

 Side 1  free  transition at x/c =  0.4613   58
 Side 2  free  transition at x/c =  0.5988   60

  23   rms: 0.4799E-02   max: -.9742E-01   C at   58  1
       a =  0.500      CL =  0.0615
      Cm =  0.0273     CD =  0.01012   =>   CDf =  0.00629    CDp =  0.00383

 Side 1  free  transition at x/c =  0.4613   58
 Side 2  free  transition at x/c =  0.5988   60

  24   rms: 0.4799E-02   max: -.9742E-01   C at   58  1
       a =  0.500      CL =  0.0615
      Cm =  0.0273     CD =  0.01012   =>   CDf =  0.00629    CDp =  0.00383

 Side 1  free  transition at x/c =  0.4613   58
 Side 2  free  transition at x/c =  0.5988   60

  25   rms: 0.4799E-02   max: -.9742E-01   C at   58  1
       a =  0.500      CL =  0.0615
      Cm =  0.0273     CD =  0.01012   =>   CDf =  0.00629    CDp =  0.00383

 Side 1  free  transition at x/c =  0.4613   58
 Side 2  free  transition at x/c =  0.5988   60

  26   rms: 0.4799E-02   max: -.9742E-01   C at   58  1
       a =  0.500      CL =  0.0615
      Cm =  0.0273     CD =  0.01012   =>   CDf =  0.00629    CDp =  0.00383

 Side 1  free  transition at x/c =  0.4613   58
 Side 2  free  transition at x/c =  0.5988   60

  27   rms: 0.4799E-02   max: -.9742E-01   C at   58  1
       a =  0.500      CL =  0.0615
      Cm =  0.0273     CD =  0.01012   =>   CDf =  0.00629    CDp =  0.00383

 Side 1  free  transition at x/c =  0.4613   58
 Side 2  free  transition at x/c =  0.5988   60

  28   rms: 0.4799E-02   max: -.9742E-01   C at   58  1
       a =  0.500      CL =  0.0615
      Cm =  0.0273     CD =  0.01012   =>   CDf =  0.00629    CDp =  0.00383

 Side 1  free  transition at x/c =  0.4613   58
 Side 2  free  transition at x/c =  0.5988   60

  29   rms: 0.4799E-02   max: -.9742E-01   C at   58  1
       a =  0.500      CL =  0.0615
      Cm =  0.0273     CD =  0.01012   =>   CDf =  0.00629    CDp =  0.00383

 Side 1  free  transition at x/c =  0.4613   58
 Side 2  free  transition at x/c =  0.5988   60

  30   rms: 0.4799E-02   max: -.9742E-01   C at   58  1
       a =  0.500      CL =  0.0615
      Cm =  0.0273     CD =  0.01012   =>   CDf =  0.00629    CDp =  0.00383

 Side 1  free  transition at x/c =  0.4613   58
 Side 2  free  transition at x/c =  0.5988   60

  31   rms: 0.4799E-02   max: -.9742E-01   C at   58  1
       a =  0.500      CL =  0.0615
      Cm =  0.0273     CD =  0.01012   =>   CDf =  0.00629    CDp =  0.00383

 Side 1  free  transition at x/c =  0.4613   58
 Side 2  free  transition at x/c =  0.5988   60

  32   rms: 0.4799E-02   max: -.9742E-01   C at   58  1
       a =  0.500      CL =  0.0615
      Cm =  0.0273     CD =  0.01012   =>   CDf =  0.00629    CDp =  0.00383

 Side 1  free  transition at x/c =  0.4613   58
 Side 2  free  transition at x/c =  0.5988   60

  33   rms: 0.4799E-02   max: -.9742E-01   C at   58  1
       a =  0.500      CL =  0.0615
      Cm =  0.0273     CD =  0.01012   =>   CDf =  0.00629    CDp =  0.00383

 Side 1  free  transition at x/c =  0.4613   58
 Side 2  free  transition at x/c =  0.5988   60

  34   rms: 0.4799E-02   max: -.9742E-01   C at   58  1
       a =  0.500      CL =  0.0615
      Cm =  0.0273     CD =  0.01012   =>   CDf =  0.00629    CDp =  0.00383

 Side 1  free  transition at x/c =  0.4613   58
 Side 2  free  transition at x/c =  0.5988   60

  35   rms: 0.4799E-02   max: -.9742E-01   C at   58  1
       a =  0.500      CL =  0.0615
      Cm =  0.0273     CD =  0.01012   =>   CDf =  0.00629    CDp =  0.00383

 Side 1  free  transition at x/c =  0.4613   58
 Side 2  free  transition at x/c =  0.5988   60

  36   rms: 0.4799E-02   max: -.9742E-01   C at   58  1
       a =  0.500      CL =  0.0615
      Cm =  0.0273     CD =  0.01012   =>   CDf =  0.00629    CDp =  0.00383

 Side 1  free  transition at x/c =  0.4613   58
 Side 2  free  transition at x/c =  0.5988   60

  37   rms: 0.4799E-02   max: -.9742E-01   C at   58  1
       a =  0.500      CL =  0.0615
      Cm =  0.0273     CD =  0.01012   =>   CDf =  0.00629    CDp =  0.00383

 Side 1  free  transition at x/c =  0.4613   58
 Side 2  free  transition at x/c =  0.5988   60

  38   rms: 0.4799E-02   max: -.9742E-01   C at   58  1
       a =  0.500      CL =  0.0615
      Cm =  0.0273     CD =  0.01012   =>   CDf =  0.00629    CDp =  0.00383

 Side 1  free  transition at x/c =  0.4613   58
 Side 2  free  transition at x/c =  0.5988   60

  39   rms: 0.4799E-02   max: -.9742E-01   C at   58  1
       a =  0.500      CL =  0.0615
      Cm =  0.0273     CD =  0.01012   =>   CDf =  0.00629    CDp =  0.00383

 Side 1  free  transition at x/c =  0.4613   58
 Side 2  free  transition at x/c =  0.5988   60

  40   rms: 0.4799E-02   max: -.9742E-01   C at   58  1
       a =  0.500      CL =  0.0615
      Cm =  0.0273     CD =  0.01012   =>   CDf =  0.00629    CDp =  0.00383

 Side 1  free  transition at x/c =  0.4613   58
 Side 2  free  transition at x/c =  0.5988   60

  41   rms: 0.4799E-02   max: -.9742E-01   C at   58  1
       a =  0.500      CL =  0.0615
      Cm =  0.0273     CD =  0.01012   =>   CDf =  0.00629    CDp =  0.00383

 Side 1  free  transition at x/c =  0.4613   58
 Side 2  free  transition at x/c =  0.5988   60

  42   rms: 0.4799E-02   max: -.9742E-01   C at   58  1
       a =  0.500      CL =  0.0615
      Cm =  0.0273     CD =  0.01012   =>   CDf =  0.00629    CDp =  0.00383

 Side 1  free  transition at x/c =  0.4613   58
 Side 2  free  transition at x/c =  0.5988   60

  43   rms: 0.4799E-02   max: -.9742E-01   C at   58  1
       a =  0.500      CL =  0.0615
      Cm =  0.0273     CD =  0.01012   =>   CDf =  0.00629    CDp =  0.00383

 Side 1  free  transition at x/c =  0.4613   58
 Side 2  free  transition at x/c =  0.5988   60

  44   rms: 0.4799E-02   max: -.9742E-01   C at   58  1
       a =  0.500      CL =  0.0615
      Cm =  0.0273     CD =  0.01012   =>   CDf =  0.00629    CDp =  0.00383

 Side 1  free  transition at x/c =  0.4613   58
 Side 2  free  transition at x/c =  0.5988   60

  45   rms: 0.4799E-02   max: -.9742E-01   C at   58  1
       a =  0.500      CL =  0.0615
      Cm =  0.0273     CD =  0.01012   =>   CDf =  0.00629    CDp =  0.00383

 Side 1  free  transition at x/c =  0.4613   58
 Side 2  free  transition at x/c =  0.5988   60

  46   rms: 0.4799E-02   max: -.9742E-01   C at   58  1
       a =  0.500      CL =  0.0615
      Cm =  0.0273     CD =  0.01012   =>   CDf =  0.00629    CDp =  0.00383

 Side 1  free  transition at x/c =  0.4613   58
 Side 2  free  transition at x/c =  0.5988   60

  47   rms: 0.4799E-02   max: -.9742E-01   C at   58  1
       a =  0.500      CL =  0.0615
      Cm =  0.0273     CD =  0.01012   =>   CDf =  0.00629    CDp =  0.00383

 Side 1  free  transition at x/c =  0.4613   58
 Side 2  free  transition at x/c =  0.5988   60

  48   rms: 0.4799E-02   max: -.9742E-01   C at   58  1
       a =  0.500      CL =  0.0615
      Cm =  0.0273     CD =  0.01012   =>   CDf =  0.00629    CDp =  0.00383

 Side 1  free  transition at x/c =  0.4613   58
 Side 2  free  transition at x/c =  0.5988   60

  49   rms: 0.4799E-02   max: -.9742E-01   C at   58  1
       a =  0.500      CL =  0.0615
      Cm =  0.0273     CD =  0.01012   =>   CDf =  0.00629    CDp =  0.00383

 Side 1  free  transition at x/c =  0.4613   58
 Side 2  free  transition at x/c =  0.5988   60

  50   rms: 0.4799E-02   max: -.9742E-01   C at   58  1
       a =  0.500      CL =  0.0615
      Cm =  0.0273     CD =  0.01012   =>   CDf =  0.00629    CDp =  0.00383

 Side 1  free  transition at x/c =  0.4613   58
 Side 2  free  transition at x/c =  0.5988   60

  51   rms: 0.4799E-02   max: -.9742E-01   C at   58  1
       a =  0.500      CL =  0.0615
      Cm =  0.0273     CD =  0.01012   =>   CDf =  0.00629    CDp =  0.00383

 Side 1  free  transition at x/c =  0.4613   58
 Side 2  free  transition at x/c =  0.5988   60

  52   rms: 0.4799E-02   max: -.9742E-01   C at   58  1
       a =  0.500      CL =  0.0615
      Cm =  0.0273     CD =  0.01012   =>   CDf =  0.00629    CDp =  0.00383

 Side 1  free  transition at x/c =  0.4613   58
 Side 2  free  transition at x/c =  0.5988   60

  53   rms: 0.4799E-02   max: -.9742E-01   C at   58  1
       a =  0.500      CL =  0.0615
      Cm =  0.0273     CD =  0.01012   =>   CDf =  0.00629    CDp =  0.00383

 Side 1  free  transition at x/c =  0.4613   58
 Side 2  free  transition at x/c =  0.5988   60

  54   rms: 0.4799E-02   max: -.9742E-01   C at   58  1
       a =  0.500      CL =  0.0615
      Cm =  0.0273     CD =  0.01012   =>   CDf =  0.00629    CDp =  0.00383

 Side 1  free  transition at x/c =  0.4613   58
 Side 2  free  transition at x/c =  0.5988   60

  55   rms: 0.4799E-02   max: -.9742E-01   C at   58  1
       a =  0.500      CL =  0.0615
      Cm =  0.0273     CD =  0.01012   =>   CDf =  0.00629    CDp =  0.00383

 Side 1  free  transition at x/c =  0.4613   58
 Side 2  free  transition at x/c =  0.5988   60

  56   rms: 0.4799E-02   max: -.9742E-01   C at   58  1
       a =  0.500      CL =  0.0615
      Cm =  0.0273     CD =  0.01012   =>   CDf =  0.00629    CDp =  0.00383

 Side 1  free  transition at x/c =  0.4613   58
 Side 2  free  transition at x/c =  0.5988   60

  57   rms: 0.4799E-02   max: -.9742E-01   C at   58  1
       a =  0.500      CL =  0.0615
      Cm =  0.0273     CD =  0.01012   =>   CDf =  0.00629    CDp =  0.00383

 Side 1  free  transition at x/c =  0.4613   58
 Side 2  free  transition at x/c =  0.5988   60

  58   rms: 0.4799E-02   max: -.9742E-01   C at   58  1
       a =  0.500      CL =  0.0615
      Cm =  0.0273     CD =  0.01012   =>   CDf =  0.00629    CDp =  0.00383

 Side 1  free  transition at x/c =  0.4613   58
 Side 2  free  transition at x/c =  0.5988   60

  59   rms: 0.4799E-02   max: -.9742E-01   C at   58  1
       a =  0.500      CL =  0.0615
      Cm =  0.0273     CD =  0.01012   =>   CDf =  0.00629    CDp =  0.00383

 Side 1  free  transition at x/c =  0.4613   58
 Side 2  free  transition at x/c =  0.5988   60

  60   rms: 0.4799E-02   max: -.9742E-01   C at   58  1
       a =  0.500      CL =  0.0615
      Cm =  0.0273     CD =  0.01012   =>   CDf =  0.00629    CDp =  0.00383

 Side 1  free  transition at x/c =  0.4613   58
 Side 2  free  transition at x/c =  0.5988   60

  61   rms: 0.4799E-02   max: -.9742E-01   C at   58  1
       a =  0.500      CL =  0.0615
      Cm =  0.0273     CD =  0.01012   =>   CDf =  0.00629    CDp =  0.00383

 Side 1  free  transition at x/c =  0.4613   58
 Side 2  free  transition at x/c =  0.5988   60

  62   rms: 0.4799E-02   max: -.9742E-01   C at   58  1
       a =  0.500      CL =  0.0615
      Cm =  0.0273     CD =  0.01012   =>   CDf =  0.00629    CDp =  0.00383

 Side 1  free  transition at x/c =  0.4613   58
 Side 2  free  transition at x/c =  0.5988   60

  63   rms: 0.4799E-02   max: -.9742E-01   C at   58  1
       a =  0.500      CL =  0.0615
      Cm =  0.0273     CD =  0.01012   =>   CDf =  0.00629    CDp =  0.00383

 Side 1  free  transition at x/c =  0.4613   58
 Side 2  free  transition at x/c =  0.5988   60

  64   rms: 0.4799E-02   max: -.9742E-01   C at   58  1
       a =  0.500      CL =  0.0615
      Cm =  0.0273     CD =  0.01012   =>   CDf =  0.00629    CDp =  0.00383

 Side 1  free  transition at x/c =  0.4613   58
 Side 2  free  transition at x/c =  0.5988   60

  65   rms: 0.4799E-02   max: -.9742E-01   C at   58  1
       a =  0.500      CL =  0.0615
      Cm =  0.0273     CD =  0.01012   =>   CDf =  0.00629    CDp =  0.00383

 Side 1  free  transition at x/c =  0.4613   58
 Side 2  free  transition at x/c =  0.5988   60

  66   rms: 0.4799E-02   max: -.9742E-01   C at   58  1
       a =  0.500      CL =  0.0615
      Cm =  0.0273     CD =  0.01012   =>   CDf =  0.00629    CDp =  0.00383

 Side 1  free  transition at x/c =  0.4613   58
 Side 2  free  transition at x/c =  0.5988   60

  67   rms: 0.4799E-02   max: -.9742E-01   C at   58  1
       a =  0.500      CL =  0.0615
      Cm =  0.0273     CD =  0.01012   =>   CDf =  0.00629    CDp =  0.00383

 Side 1  free  transition at x/c =  0.4613   58
 Side 2  free  transition at x/c =  0.5988   60

  68   rms: 0.4799E-02   max: -.9742E-01   C at   58  1
       a =  0.500      CL =  0.0615
      Cm =  0.0273     CD =  0.01012   =>   CDf =  0.00629    CDp =  0.00383

 Side 1  free  transition at x/c =  0.4613   58
 Side 2  free  transition at x/c =  0.5988   60

  69   rms: 0.4799E-02   max: -.9742E-01   C at   58  1
       a =  0.500      CL =  0.0615
      Cm =  0.0273     CD =  0.01012   =>   CDf =  0.00629    CDp =  0.00383

 Side 1  free  transition at x/c =  0.4613   58
 Side 2  free  transition at x/c =  0.5988   60

  70   rms: 0.4799E-02   max: -.9742E-01   C at   58  1
       a =  0.500      CL =  0.0615
      Cm =  0.0273     CD =  0.01012   =>   CDf =  0.00629    CDp =  0.00383

 Side 1  free  transition at x/c =  0.4613   58
 Side 2  free  transition at x/c =  0.5988   60

  71   rms: 0.4799E-02   max: -.9742E-01   C at   58  1
       a =  0.500      CL =  0.0615
      Cm =  0.0273     CD =  0.01012   =>   CDf =  0.00629    CDp =  0.00383

 Side 1  free  transition at x/c =  0.4613   58
 Side 2  free  transition at x/c =  0.5988   60

  72   rms: 0.4799E-02   max: -.9742E-01   C at   58  1
       a =  0.500      CL =  0.0615
      Cm =  0.0273     CD =  0.01012   =>   CDf =  0.00629    CDp =  0.00383

 Side 1  free  transition at x/c =  0.4613   58
 Side 2  free  transition at x/c =  0.5988   60

  73   rms: 0.4799E-02   max: -.9742E-01   C at   58  1
       a =  0.500      CL =  0.0615
      Cm =  0.0273     CD =  0.01012   =>   CDf =  0.00629    CDp =  0.00383

 Side 1  free  transition at x/c =  0.4613   58
 Side 2  free  transition at x/c =  0.5988   60

  74   rms: 0.4799E-02   max: -.9742E-01   C at   58  1
       a =  0.500      CL =  0.0615
      Cm =  0.0273     CD =  0.01012   =>   CDf =  0.00629    CDp =  0.00383

 Side 1  free  transition at x/c =  0.4613   58
 Side 2  free  transition at x/c =  0.5988   60

  75   rms: 0.4799E-02   max: -.9742E-01   C at   58  1
       a =  0.500      CL =  0.0615
      Cm =  0.0273     CD =  0.01012   =>   CDf =  0.00629    CDp =  0.00383

 Side 1  free  transition at x/c =  0.4613   58
 Side 2  free  transition at x/c =  0.5988   60

  76   rms: 0.4799E-02   max: -.9742E-01   C at   58  1
       a =  0.500      CL =  0.0615
      Cm =  0.0273     CD =  0.01012   =>   CDf =  0.00629    CDp =  0.00383

 Side 1  free  transition at x/c =  0.4613   58
 Side 2  free  transition at x/c =  0.5988   60

  77   rms: 0.4799E-02   max: -.9742E-01   C at   58  1
       a =  0.500      CL =  0.0615
      Cm =  0.0273     CD =  0.01012   =>   CDf =  0.00629    CDp =  0.00383

 Side 1  free  transition at x/c =  0.4613   58
 Side 2  free  transition at x/c =  0.5988   60

  78   rms: 0.4799E-02   max: -.9743E-01   C at   58  1
       a =  0.500      CL =  0.0615
      Cm =  0.0273     CD =  0.01012   =>   CDf =  0.00629    CDp =  0.00383

 Side 1  free  transition at x/c =  0.4613   58
 Side 2  free  transition at x/c =  0.5988   60

  79   rms: 0.4799E-02   max: -.9742E-01   C at   58  1
       a =  0.500      CL =  0.0615
      Cm =  0.0273     CD =  0.01012   =>   CDf =  0.00629    CDp =  0.00383

 Side 1  free  transition at x/c =  0.4613   58
 Side 2  free  transition at x/c =  0.5988   60

  80   rms: 0.4799E-02   max: -.9742E-01   C at   58  1
       a =  0.500      CL =  0.0615
      Cm =  0.0273     CD =  0.01012   =>   CDf =  0.00629    CDp =  0.00383

 Side 1  free  transition at x/c =  0.4613   58
 Side 2  free  transition at x/c =  0.5988   60

  81   rms: 0.4799E-02   max: -.9742E-01   C at   58  1
       a =  0.500      CL =  0.0615
      Cm =  0.0273     CD =  0.01012   =>   CDf =  0.00629    CDp =  0.00383

 Side 1  free  transition at x/c =  0.4613   58
[...]
 Side 2 forced transition at x/c =  1.0000   62

   4   rms: 0.8900E-05   max: -.8568E-04   D at   57  2
       a = 12.500      CL =  1.1778
      Cm =  0.0369     CD =  0.02952   =>   CDf =  0.00574    CDp =  0.02377
 plradd ia,ip,cpol           37           0  3.40170749E-02

 Point added to stored polar  1
 Point written to save file  naca23024_Re600k.base.pol                       
 Dump file unspecified or not available
 Calculating wake trajectory ...
 Calculating source influence matrix ...

 Solving BL system ...

 Side 1  free  transition at x/c =  0.1724   59
 Side 2 forced transition at x/c =  1.0000   62

   1   rms: 0.3362E-01   max: 0.2089E+00   D at    6  1   RLX: 0.769
       a = 12.750      CL =  1.1834
      Cm =  0.0384     CD =  0.03016   =>   CDf =  0.00574    CDp =  0.02442

 Side 1  free  transition at x/c =  0.1705   59
 Side 2 forced transition at x/c =  1.0000   62

   2   rms: 0.7550E-02   max: 0.4540E-01   D at    6  1
       a = 12.750      CL =  1.1850
      Cm =  0.0387     CD =  0.03035   =>   CDf =  0.00571    CDp =  0.02464

 Side 1  free  transition at x/c =  0.1700   59
 Side 2 forced transition at x/c =  1.0000   62

   3   rms: 0.1281E-03   max: 0.7984E-03   D at   72  2
       a = 12.750      CL =  1.1849
      Cm =  0.0388     CD =  0.03034   =>   CDf =  0.00569    CDp =  0.02465

 Side 1  free  transition at x/c =  0.1700   59
 Side 2 forced transition at x/c =  1.0000   62

   4   rms: 0.1754E-05   max: 0.1574E-04   D at   57  2
       a = 12.750      CL =  1.1849
      Cm =  0.0388     CD =  0.03034   =>   CDf =  0.00569    CDp =  0.02465
 plradd ia,ip,cpol           38           0  3.03082895E-02

 Point added to stored polar  1
 Point written to save file  naca23024_Re600k.base.pol                       
 Dump file unspecified or not available
 Calculating wake trajectory ...
 Calculating source influence matrix ...

 Solving BL system ...

 Side 1  free  transition at x/c =  0.1700   59
 Side 2 forced transition at x/c =  1.0000   62

   1   rms: 0.3107E-01   max: -.1508E+00   D at    3  2   RLX: 0.740
       a = 13.000      CL =  1.1900
      Cm =  0.0401     CD =  0.03103   =>   CDf =  0.00570    CDp =  0.02533

 Side 1  free  transition at x/c =  0.1680   59
 Side 2 forced transition at x/c =  1.0000   62

   2   rms: 0.8621E-02   max: 0.4230E-01   D at   85  1
       a = 13.000      CL =  1.1898
      Cm =  0.0406     CD =  0.03140   =>   CDf =  0.00568    CDp =  0.02572

 Side 1  free  transition at x/c =  0.1674   59
 Side 2 forced transition at x/c =  1.0000   62

   3   rms: 0.2837E-03   max: 0.2078E-02   D at   85  1
       a = 13.000      CL =  1.1896
      Cm =  0.0406     CD =  0.03139   =>   CDf =  0.00567    CDp =  0.02572

 Side 1  free  transition at x/c =  0.1674   59
 Side 2 forced transition at x/c =  1.0000   62

   4   rms: 0.4709E-05   max: 0.4162E-04   D at   58  2
       a = 13.000      CL =  1.1896
      Cm =  0.0406     CD =  0.03139   =>   CDf =  0.00567    CDp =  0.02572
 plradd ia,ip,cpol           39           0  3.40170749E-02

 Point added to stored polar  1
 Point written to save file  naca23024_Re600k.base.pol                       
 Dump file unspecified or not available
 Calculating wake trajectory ...
 Calculating source influence matrix ...

 Solving BL system ...

 Side 1  free  transition at x/c =  0.1674   59
 Side 2 forced transition at x/c =  1.0000   62

   1   rms: 0.2917E-01   max: 0.9581E-01   D at   84  1   RLX: 0.709
       a = 13.250      CL =  1.1928
      Cm =  0.0419     CD =  0.03222   =>   CDf =  0.00553    CDp =  0.02669

 Side 1  free  transition at x/c =  0.1658   60
 Side 2 forced transition at x/c =  1.0000   61

   2   rms: 0.1091E-01   max: 0.1215E+00   T at    2  1
       a = 13.250      CL =  1.1939
      Cm =  0.0424     CD =  0.03256   =>   CDf =  0.00566    CDp =  0.02690

 Side 1  free  transition at x/c =  0.1652   60
 Side 2 forced transition at x/c =  1.0000   61

   3   rms: 0.4460E-03   max: 0.4440E-02   D at    4  1
       a = 13.250      CL =  1.1937
      Cm =  0.0424     CD =  0.03255   =>   CDf =  0.00566    CDp =  0.02689

 Side 1  free  transition at x/c =  0.1652   60
 Side 2 forced transition at x/c =  1.0000   61

   4   rms: 0.4232E-05   max: 0.3796E-04   D at   71  2
       a = 13.250      CL =  1.1937
      Cm =  0.0424     CD =  0.03255   =>   CDf =  0.00566    CDp =  0.02689
 plradd ia,ip,cpol           40           0  3.40170749E-02

 Point added to stored polar  1
 Point written to save file  naca23024_Re600k.base.pol                       
 Dump file unspecified or not available
 Calculating wake trajectory ...
 Calculating source influence matrix ...

 Solving BL system ...

 Side 1  free  transition at x/c =  0.1652   60
 Side 2 forced transition at x/c =  1.0000   61

   1   rms: 0.3247E-01   max: 0.1832E+00   D at    6  1   RLX: 0.682
       a = 13.500      CL =  1.1964
      Cm =  0.0436     CD =  0.03342   =>   CDf =  0.00566    CDp =  0.02776

 Side 1  free  transition at x/c =  0.1636   60
 Side 2 forced transition at x/c =  1.0000   61

   2   rms: 0.1154E-01   max: 0.5743E-01   D at   85  1
       a = 13.500      CL =  1.1951
      Cm =  0.0442     CD =  0.03399   =>   CDf =  0.00567    CDp =  0.02833

 Side 1  free  transition at x/c =  0.1628   60
 Side 2 forced transition at x/c =  1.0000   61

   3   rms: 0.3088E-03   max: 0.2345E-02   D at   71  2
       a = 13.500      CL =  1.1950
      Cm =  0.0442     CD =  0.03396   =>   CDf =  0.00567    CDp =  0.02829

 Side 1  free  transition at x/c =  0.1628   60
 Side 2 forced transition at x/c =  1.0000   61

   4   rms: 0.2854E-05   max: 0.1316E-04   D at   57  2
       a = 13.500      CL =  1.1950
      Cm =  0.0442     CD =  0.03396   =>   CDf =  0.00567    CDp =  0.02829
 plradd ia,ip,cpol           41           0  3.03082895E-02

 Point added to stored polar  1
 Point written to save file  naca23024_Re600k.base.pol                       
 Dump file unspecified or not available
 Calculating wake trajectory ...
 Calculating source influence matrix ...

 Solving BL system ...

 Side 1  free  transition at x/c =  0.1628   60
 Side 2 forced transition at x/c =  1.0000   61

   1   rms: 0.3402E-01   max: -.1626E+00   D at    6  1   RLX: 0.651
       a = 13.750      CL =  1.1948
      Cm =  0.0454     CD =  0.03504   =>   CDf =  0.00567    CDp =  0.02937

 Side 1  free  transition at x/c =  0.1610   59
 Side 2 forced transition at x/c =  1.0000   61

   2   rms: 0.1135E-01   max: -.6489E-01   C at   59  1
       a = 13.750      CL =  1.1994
      Cm =  0.0457     CD =  0.03525   =>   CDf =  0.00567    CDp =  0.02957

 Side 1  free  transition at x/c =  0.1604   59
 Side 2 forced transition at x/c =  1.0000   61

   3   rms: 0.5213E-03   max: 0.4079E-02   D at   59  1
       a = 13.750      CL =  1.1990
      Cm =  0.0458     CD =  0.03525   =>   CDf =  0.00564    CDp =  0.02961

 Side 1  free  transition at x/c =  0.1604   59
 Side 2 forced transition at x/c =  1.0000   61

   4   rms: 0.2483E-04   max: 0.1359E-03   D at   84  1
       a = 13.750      CL =  1.1990
      Cm =  0.0458     CD =  0.03525   =>   CDf =  0.00564    CDp =  0.02961
 plradd ia,ip,cpol           42           0  3.03082895E-02

 Point added to stored polar  1
 Point written to save file  naca23024_Re600k.base.pol                       
 Dump file unspecified or not available
 Calculating wake trajectory ...
 Calculating source influence matrix ...

 Solving BL system ...

 Side 1  free  transition at x/c =  0.1604   59
 Side 2 forced transition at x/c =  1.0000   61

   1   rms: 0.3005E-01   max: -.1283E+00   D at    5  1   RLX: 0.635
       a = 14.000      CL =  1.2042
      Cm =  0.0465     CD =  0.03599   =>   CDf =  0.00564    CDp =  0.03034

 Side 1  free  transition at x/c =  0.1590   59
 Side 2 forced transition at x/c =  1.0000   61

   2   rms: 0.1111E-01   max: 0.4067E-01   D at    3  2
       a = 14.000      CL =  1.2060
      Cm =  0.0470     CD =  0.03648   =>   CDf =  0.00561    CDp =  0.03087

 Side 1  free  transition at x/c =  0.1582   59
 Side 2 forced transition at x/c =  1.0000   61

   3   rms: 0.2296E-03   max: -.1881E-02   D at   59  1
       a = 14.000      CL =  1.2059
      Cm =  0.0470     CD =  0.03645   =>   CDf =  0.00558    CDp =  0.03086

 Side 1  free  transition at x/c =  0.1582   59
 Side 2 forced transition at x/c =  1.0000   61

   4   rms: 0.6699E-05   max: -.3008E-04   D at   82  1
       a = 14.000      CL =  1.2059
      Cm =  0.0470     CD =  0.03645   =>   CDf =  0.00558    CDp =  0.03086
 plradd ia,ip,cpol           43           0  2.68344618E-02

 Point added to stored polar  1
 Point written to save file  naca23024_Re600k.base.pol                       
 Dump file unspecified or not available
 Calculating wake trajectory ...
 Calculating source influence matrix ...

 Solving BL system ...

 Side 1  free  transition at x/c =  0.1582   59
 Side 2 forced transition at x/c =  1.0000   61

   1   rms: 0.2984E-01   max: 0.1401E+00   D at    5  1   RLX: 0.614
       a = 14.250      CL =  1.2103
      Cm =  0.0477     CD =  0.03723   =>   CDf =  0.00559    CDp =  0.03164

 Side 1  free  transition at x/c =  0.1568   59
 Side 2 forced transition at x/c =  1.0000   61

   2   rms: 0.1152E-01   max: 0.5284E-01   D at    5  1
       a = 14.250      CL =  1.2127
      Cm =  0.0481     CD =  0.03772   =>   CDf =  0.00556    CDp =  0.03215

 Side 1  free  transition at x/c =  0.1559   59
 Side 2 forced transition at x/c =  1.0000   61

   3   rms: 0.5359E-03   max: 0.4246E-02   D at   83  1
       a = 14.250      CL =  1.2123
      Cm =  0.0481     CD =  0.03771   =>   CDf =  0.00555    CDp =  0.03216

 Side 1  free  transition at x/c =  0.1559   59
 Side 2 forced transition at x/c =  1.0000   61

   4   rms: 0.1516E-04   max: 0.1310E-03   D at   83  1
       a = 14.250      CL =  1.2123
      Cm =  0.0481     CD =  0.03771   =>   CDf =  0.00555    CDp =  0.03216
 plradd ia,ip,cpol           44           0  2.68344618E-02

 Point added to stored polar  1
 Point written to save file  naca23024_Re600k.base.pol                       
 Dump file unspecified or not available
 Calculating wake trajectory ...
 Calculating source influence matrix ...

 Solving BL system ...

 Side 1  free  transition at x/c =  0.1559   59
 Side 2 forced transition at x/c =  1.0000   61

   1   rms: 0.3139E-01   max: -.1443E+00   D at    3  2   RLX: 0.594
       a = 14.500      CL =  1.2151
      Cm =  0.0488     CD =  0.03862   =>   CDf =  0.00540    CDp =  0.03322

 Side 1  free  transition at x/c =  0.1544   60
 Side 2 forced transition at x/c =  1.0000   60

   2   rms: 0.1347E-01   max: 0.5768E-01   D at   84  1
       a = 14.500      CL =  1.2150
      Cm =  0.0492     CD =  0.03937   =>   CDf =  0.00554    CDp =  0.03383

 Side 1  free  transition at x/c =  0.1535   60
 Side 2 forced transition at x/c =  1.0000   60

   3   rms: 0.3251E-03   max: 0.2544E-02   D at   71  2
       a = 14.500      CL =  1.2149
      Cm =  0.0493     CD =  0.03932   =>   CDf =  0.00554    CDp =  0.03378

 Side 1  free  transition at x/c =  0.1535   60
 Side 2 forced transition at x/c =  1.0000   60

   4   rms: 0.6257E-05   max: -.2858E-04   D at   74  2
       a = 14.500      CL =  1.2149
      Cm =  0.0493     CD =  0.03932   =>   CDf =  0.00554    CDp =  0.03378
 plradd ia,ip,cpol           45           0  2.68344618E-02

 Point added to stored polar  1
 Point written to save file  naca23024_Re600k.base.pol                       
 Dump file unspecified or not available
 Calculating wake trajectory ...
 Calculating source influence matrix ...

 Solving BL system ...

 Side 1  free  transition at x/c =  0.1535   60
 Side 2 forced transition at x/c =  1.0000   60

   1   rms: 0.3003E-01   max: 0.1065E+00   D at   83  1   RLX: 0.573
       a = 14.750      CL =  1.2170
      Cm =  0.0499     CD =  0.04028   =>   CDf =  0.00554    CDp =  0.03475

 Side 1  free  transition at x/c =  0.1522   60
 Side 2 forced transition at x/c =  1.0000   60

   2   rms: 0.1316E-01   max: 0.5230E-01   D at   83  1
       a = 14.750      CL =  1.2175
      Cm =  0.0503     CD =  0.04102   =>   CDf =  0.00554    CDp =  0.03548

 Side 1  free  transition at x/c =  0.1512   60
 Side 2 forced transition at x/c =  1.0000   60

   3   rms: 0.1366E-02   max: 0.1189E-01   D at   83  1
       a = 14.750      CL =  1.2165
      Cm =  0.0504     CD =  0.04104   =>   CDf =  0.00554    CDp =  0.03550

 Side 1  free  transition at x/c =  0.1512   60
 Side 2 forced transition at x/c =  1.0000   60

   4   rms: 0.6170E-04   max: 0.4601E-03   D at   83  1
       a = 14.750      CL =  1.2164
      Cm =  0.0504     CD =  0.04103   =>   CDf =  0.00554    CDp =  0.03549
 plradd ia,ip,cpol           46           0  2.68344618E-02

 Point added to stored polar  1
 Point written to save file  naca23024_Re600k.base.pol                       
 Dump file unspecified or not available
 Calculating wake trajectory ...
 Calculating source influence matrix ...

 Solving BL system ...

 Side 1  free  transition at x/c =  0.1512   60
 Side 2 forced transition at x/c =  1.0000   60

   1   rms: 0.3129E-01   max: 0.1358E+00   D at   82  1   RLX: 0.551
       a = 15.000      CL =  1.2155
      Cm =  0.0510     CD =  0.04225   =>   CDf =  0.00554    CDp =  0.03670

 Side 1  free  transition at x/c =  0.1498   59
 Side 2 forced transition at x/c =  1.0000   60

   2   rms: 0.1288E-01   max: -.7426E-01   C at   59  1
       a = 15.000      CL =  1.2199
      Cm =  0.0513     CD =  0.04274   =>   CDf =  0.00554    CDp =  0.03719

 Side 1  free  transition at x/c =  0.1488   59
 Side 2 forced transition at x/c =  1.0000   60

   3   rms: 0.3609E-03   max: 0.1953E-02   D at   71  2
       a = 15.000      CL =  1.2195
      Cm =  0.0513     CD =  0.04270   =>   CDf =  0.00550    CDp =  0.03720

 Side 1  free  transition at x/c =  0.1488   59
 Side 2 forced transition at x/c =  1.0000   60

   4   rms: 0.7279E-05   max: 0.3362E-04   D at   82  1
       a = 15.000      CL =  1.2195
      Cm =  0.0513     CD =  0.04270   =>   CDf =  0.00550    CDp =  0.03720
 plradd ia,ip,cpol           47           0  2.68344618E-02

 Point added to stored polar  1
 Point written to save file  naca23024_Re600k.base.pol                       
 Dump file unspecified or not available
 Calculating wake trajectory ...
 Calculating source influence matrix ...

 Solving BL system ...

 Side 1  free  transition at x/c =  0.1488   59
 Side 2 forced transition at x/c =  1.0000   60

   1   rms: 0.2844E-01   max: 0.1261E+00   D at    6  1   RLX: 0.539
       a = 15.250      CL =  1.2237
      Cm =  0.0517     CD =  0.04349   =>   CDf =  0.00550    CDp =  0.03799

 Side 1  free  transition at x/c =  0.1477   59
 Side 2 forced transition at x/c =  1.0000   60

   2   rms: 0.1303E-01   max: 0.5645E-01   D at    6  1
       a = 15.250      CL =  1.2265
      Cm =  0.0520     CD =  0.04417   =>   CDf =  0.00547    CDp =  0.03870

 Side 1  free  transition at x/c =  0.1467   59
 Side 2 forced transition at x/c =  1.0000   60

   3   rms: 0.1168E-02   max: 0.1109E-01   D at   82  1
       a = 15.250      CL =  1.2256
      Cm =  0.0521     CD =  0.04419   =>   CDf =  0.00545    CDp =  0.03874

 Side 1  free  transition at x/c =  0.1467   59
 Side 2 forced transition at x/c =  1.0000   60

   4   rms: 0.5206E-04   max: 0.3843E-03   D at   82  1
       a = 15.250      CL =  1.2256
      Cm =  0.0521     CD =  0.04418   =>   CDf =  0.00544    CDp =  0.03874
 plradd ia,ip,cpol           48           0  2.68344618E-02

 Point added to stored polar  1
 Point written to save file  naca23024_Re600k.base.pol                       
 Dump file unspecified or not available
 Calculating wake trajectory ...
 Calculating source influence matrix ...

 Solving BL system ...

 Side 1  free  transition at x/c =  0.1467   59
 Side 2 forced transition at x/c =  1.0000   60

   1   rms: 0.2904E-01   max: 0.1202E+00   D at    3  2   RLX: 0.523
       a = 15.500      CL =  1.2282
      Cm =  0.0524     CD =  0.04511   =>   CDf =  0.00545    CDp =  0.03967

 Side 1  free  transition at x/c =  0.1455   59
 Side 2 forced transition at x/c =  1.0000   60

   2   rms: 0.1406E-01   max: 0.6031E-01   D at    3  2
       a = 15.500      CL =  1.2296
      Cm =  0.0527     CD =  0.04597   =>   CDf =  0.00542    CDp =  0.04055

 Side 1  free  transition at x/c =  0.1444   59
 Side 2 forced transition at x/c =  1.0000   60

   3   rms: 0.8541E-03   max: -.8837E-02   D at   59  1
       a = 15.500      CL =  1.2292
      Cm =  0.0528     CD =  0.04591   =>   CDf =  0.00541    CDp =  0.04051

 Side 1  free  transition at x/c =  0.1445   59
 Side 2 forced transition at x/c =  1.0000   60

   4   rms: 0.3844E-04   max: -.2484E-03   D at   82  1
       a = 15.500      CL =  1.2292
      Cm =  0.0528     CD =  0.04591   =>   CDf =  0.00540    CDp =  0.04051
 plradd ia,ip,cpol           49           0  2.05597077E-02

 Point added to stored polar  1
 Point written to save file  naca23024_Re600k.base.pol                       
 Dump file unspecified or not available
 Calculating wake trajectory ...
 Calculating source influence matrix ...

 Solving BL system ...

 Side 1  free  transition at x/c =  0.1445   59
 Side 2 forced transition at x/c =  1.0000   60

   1   rms: 0.3241E-01   max: -.2743E+00   D at    3  2   RLX: 0.508
       a = 15.750      CL =  1.2314
      Cm =  0.0531     CD =  0.04686   =>   CDf =  0.00525    CDp =  0.04162

 Side 1  free  transition at x/c =  0.1433   60
 Side 2 forced transition at x/c =  1.0000   59

   2   rms: 0.1518E-01   max: 0.7333E-01   D at    3  1
       a = 15.750      CL =  1.2326
      Cm =  0.0534     CD =  0.04779   =>   CDf =  0.00540    CDp =  0.04239

 Side 1  free  transition at x/c =  0.1422   60
 Side 2 forced transition at x/c =  1.0000   59

   3   rms: 0.1912E-02   max: 0.1715E-01   D at   82  1
       a = 15.750      CL =  1.2312
      Cm =  0.0534     CD =  0.04784   =>   CDf =  0.00539    CDp =  0.04245

 Side 1  free  transition at x/c =  0.1422   60
 Side 2 forced transition at x/c =  1.0000   59

   4   rms: 0.9873E-04   max: 0.6263E-03   D at   82  1
       a = 15.750      CL =  1.2311
      Cm =  0.0534     CD =  0.04783   =>   CDf =  0.00539    CDp =  0.04244
 plradd ia,ip,cpol           50           0  2.05597077E-02

 Point added to stored polar  1
 Point written to save file  naca23024_Re600k.base.pol                       
 Dump file unspecified or not available
 Calculating wake trajectory ...
 Calculating source influence matrix ...

 Solving BL system ...

 Side 1  free  transition at x/c =  0.1422   60
 Side 2 forced transition at x/c =  1.0000   59

   1   rms: 0.3798E-01   max: -.3701E+00   D at    3  1   RLX: 0.491
       a = 16.000      CL =  1.2307
      Cm =  0.0537     CD =  0.04902   =>   CDf =  0.00539    CDp =  0.04363

 Side 1  free  transition at x/c =  0.1411   60
 Side 2 forced transition at x/c =  1.0000   59

   2   rms: 0.1928E-01   max: -.1765E+00   D at    3  1
       a = 16.000      CL =  1.2301
      Cm =  0.0540     CD =  0.05016   =>   CDf =  0.00539    CDp =  0.04477

 Side 1  free  transition at x/c =  0.1400   60
 Side 2 forced transition at x/c =  1.0000   59

   3   rms: 0.9335E-03   max: -.7538E-02   D at   60  1
       a = 16.000      CL =  1.2294
      Cm =  0.0541     CD =  0.05007   =>   CDf =  0.00539    CDp =  0.04467

 Side 1  free  transition at x/c =  0.1398   60
 Side 2 forced transition at x/c =  1.0000   59

   4   rms: 0.2583E-04   max: 0.3261E-03   D at   71  2
       a = 16.000      CL =  1.2294
      Cm =  0.0541     CD =  0.05007   =>   CDf =  0.00540    CDp =  0.04467
 plradd ia,ip,cpol           51           0  2.68344618E-02

 Point added to stored polar  1
 Point written to save file  naca23024_Re600k.base.pol                       
 Dump file unspecified or not available

.OPERva   c>  
 Polar accumulation disabled

.OPERv   c>  
 XFOIL   c>  
 XFOIL   c>  