
 ===================================================
  XFOIL Version 6.99
  Copyright (C) 2000   Mark Drela, Harold Youngren

  This software comes with ABSOLUTELY NO WARRANTY,
    subject to the GNU General Public License.

  Caveat computor
 ===================================================

 File  xfoil.def  not found

   QUIT    Exit program

  .OPER    Direct operating point(s)
  .MDES    Complex mapping design routine
  .QDES    Surface speed design routine
  .GDES    Geometry design routine

   SAVE f  Write airfoil to labeled coordinate file
   PSAV f  Write airfoil to plain coordinate file
   ISAV f  Write airfoil to ISES coordinate file
   MSAV f  Write airfoil to MSES coordinate file
   REVE    Reverse written-airfoil node ordering

   LOAD f  Read buffer airfoil from coordinate file
   NACA i  Set NACA 4,5-digit airfoil and buffer airfoil
   INTE    Set buffer airfoil by interpolating two airfoils
   NORM    Buffer airfoil normalization toggle
   XYCM rr Change CM reference location, currently  0.25000 0.00000

   BEND    Display structural properties of current airfoil

   PCOP    Set current-airfoil panel nodes directly from buffer airfoil points
   PANE    Set current-airfoil panel nodes ( 160 ) based on curvature
  .PPAR    Show/change paneling

  .PLOP    Plotting options

   WDEF f  Write  current-settings file
   RDEF f  Reread current-settings file
   NAME s  Specify new airfoil name
   NINC    Increment name version number

   Z       Zoom    | (available in all menus)
   U       Unzoom  | 

 XFOIL   c>  
 Labeled airfoil file.  Name:  NACA 747A415                                    

 Number of input coordinate points:  51
 Counterclockwise ordering
 Max thickness =     0.149941  at x =   0.399
 Max camber    =     0.027659  at x =   0.351

  LE  x,y  =  -0.00061   0.00430  |   Chord =   1.00061
  TE  x,y  =   1.00000   0.00000  |

 Current airfoil nodes set from buffer airfoil nodes (  51 )

 WARNING: Poor input coordinate distribution
          Excessive panel angle   47.3  at i =  26
          Repaneling with PANE and/or PPAR suggested
           (doing GDES,CADD before repaneling _may_
            improve excessively coarse LE spacing

 XFOIL   c>  
 XFOIL   c>  
 Sharp trailing edge

 Paneling parameters used...
   Number of panel nodes       160
   Panel bunching parameter    1.000
   TE/LE panel density ratio   0.150
   Refined-area/LE panel density ratio    0.200
   Top    side refined area x/c limits  1.000 1.000
   Bottom side refined area x/c limits  1.000 1.000

 XFOIL   c>  
.OPERi   c>  
 Xtr/c     =  1.0000    top    side
 Xtr/c     =  1.0000    bottom side
 Ncrit     =    9.00   ( 0.070 % turb. level )
 Vacc      =  0.0100

 Klag  =  5.6000     Uxwt  =    1.00
 A     =  6.7000     B     =  0.7500       KCt = 0.01485
 CtiniK=  1.8000     CtiniX=  3.3000

..VPAR   c>  
..VPAR   c>  
.OPERi   c>  
 M  =    0.0000
 Re =    600000

.OPERv   c>  
.OPERv   c>  
.OPERv   c>  
 Polar  1 newly created for accumulation
 Airfoil archived with polar: NACA 747A415                                    

Enter  polar save filename  OR  <return> for no file   s>  
 New polar save file available

Enter  polar dump filename  OR  <return> for no file   s>  
 Polar dump file will NOT be written

 Polar accumulation enabled

.OPERva   c>   Calculating unit vorticity distributions ...
 Calculating wake trajectory ...
 Calculating source influence matrix ...

 Solving BL system ...

 Initializing BL ...
    side            1  ...
 MRCHUE: Inverse mode at  27     Hk =   4.310
 MRCHUE: Inverse mode at  28     Hk =   5.408
 MRCHUE: Convergence failed at  29  side 1    Res =  0.4630E+01
 MRCHUE: Inverse mode at  30     Hk =   6.595
 MRCHUE: Inverse mode at  31     Hk =   7.811
 MRCHUE: Inverse mode at  32     Hk =   9.095
 MRCHUE: Inverse mode at  33     Hk =   2.593
 MRCHUE: Inverse mode at  34     Hk =   2.500
 MRCHUE: Inverse mode at  77     Hk =   2.500
 MRCHUE: Inverse mode at  78     Hk =   2.500
 MRCHUE: Inverse mode at  79     Hk =   2.500
 MRCHUE: Inverse mode at  80     Hk =   2.500
 MRCHUE: Inverse mode at  81     Hk =   2.500
 MRCHUE: Inverse mode at  82     Hk =   2.500
 MRCHUE: Inverse mode at  83     Hk =   2.500
 MRCHUE: Inverse mode at  84     Hk =   2.500
 MRCHUE: Inverse mode at  85     Hk =   2.500
 MRCHUE: Inverse mode at  86     Hk =   2.500
 MRCHUE: Inverse mode at  87     Hk =   2.500
 MRCHUE: Inverse mode at  88     Hk =   2.500
 MRCHUE: Inverse mode at  89     Hk =   2.500
 MRCHUE: Inverse mode at  90     Hk =   2.500
 MRCHUE: Inverse mode at  91     Hk =   2.500
 MRCHUE: Convergence failed at  92  side 1    Res =  0.4584E+01
 MRCHUE: Inverse mode at  93     Hk =   2.500
 MRCHUE: Inverse mode at  94     Hk =   2.500
 MRCHUE: Inverse mode at  95     Hk =   2.500
 MRCHUE: Inverse mode at  96     Hk =   2.500
 MRCHUE: Inverse mode at  97     Hk =   2.500
 MRCHUE: Inverse mode at  98     Hk =   2.500
 MRCHUE: Convergence failed at  99  side 1    Res =  0.4725E+01
 MRCHUE: Inverse mode at 100     Hk =   2.500
 MRCHUE: Inverse mode at 101     Hk =   2.500
 MRCHUE: Inverse mode at 102     Hk =   2.500
    side            2  ...
 MRCHUE: Inverse mode at  49     Hk =   4.363
 MRCHUE: Inverse mode at  50     Hk =   5.103
 MRCHUE: Inverse mode at  51     Hk =   5.808
 MRCHUE: Inverse mode at  52     Hk =   6.481
 MRCHUE: Inverse mode at  53     Hk =   7.122
 MRCHUE: Inverse mode at  54     Hk =   7.725
 MRCHUE: Inverse mode at  55     Hk =   8.282
 MRCHUE: Inverse mode at  56     Hk =   8.787
 MRCHUE: Inverse mode at  57     Hk =   9.241
 MRCHUE: Inverse mode at  58     Hk =   8.569
 MRCHUE: Inverse mode at  59     Hk =   7.048
 MRCHUE: Inverse mode at  60     Hk =   6.377

 MRCHDU: Convergence failed at  33  side 1    Res =  0.2398E+01
 MRCHDU: Convergence failed at  34  side 1    Res =  0.1719E+03
 MRCHDU: Convergence failed at  35  side 1    Res =  0.1224E+02
 MRCHDU: Convergence failed at  36  side 1    Res =  0.2822E+02
 MRCHDU: Convergence failed at  37  side 1    Res =  0.3082E+02
 MRCHDU: Convergence failed at  38  side 1    Res =  0.2283E+02
 MRCHDU: Convergence failed at  39  side 1    Res =  0.2749E+02
 MRCHDU: Convergence failed at  40  side 1    Res =  0.3694E+02
 MRCHDU: Convergence failed at  41  side 1    Res =  0.4798E+02
 MRCHDU: Convergence failed at  42  side 1    Res =  0.5972E+02
 MRCHDU: Convergence failed at  43  side 1    Res =  0.5777E+02
 MRCHDU: Convergence failed at  44  side 1    Res =  0.5182E+02
 MRCHDU: Convergence failed at  45  side 1    Res =  0.6850E+02
 MRCHDU: Convergence failed at  46  side 1    Res =  0.5641E+02
 MRCHDU: Convergence failed at  47  side 1    Res =  0.4195E+02
 MRCHDU: Convergence failed at  48  side 1    Res =  0.5077E+02
 MRCHDU: Convergence failed at  49  side 1    Res =  0.4952E+02
 MRCHDU: Convergence failed at  50  side 1    Res =  0.5898E+02
 MRCHDU: Convergence failed at  51  side 1    Res =  0.6945E+02
 MRCHDU: Convergence failed at  52  side 1    Res =  0.1037E+04
 MRCHDU: Convergence failed at  53  side 1    Res =  0.1449E+04
 MRCHDU: Convergence failed at  54  side 1    Res =  0.3807E+03
 MRCHDU: Convergence failed at  55  side 1    Res =  0.2243E+03
 MRCHDU: Convergence failed at  56  side 1    Res =  0.1622E+03
 MRCHDU: Convergence failed at  57  side 1    Res =  0.1294E+03
 MRCHDU: Convergence failed at  58  side 1    Res =  0.1095E+03
 MRCHDU: Convergence failed at  59  side 1    Res =  0.9562E+02
 MRCHDU: Convergence failed at  60  side 1    Res =  0.8506E+02
 MRCHDU: Convergence failed at  61  side 1    Res =  0.7807E+02
 MRCHDU: Convergence failed at  62  side 1    Res =  0.5742E+02
 MRCHDU: Convergence failed at  63  side 1    Res =  0.1689E+05
 MRCHDU: Convergence failed at  64  side 1    Res =  0.7575E+02
 MRCHDU: Convergence failed at  65  side 1    Res =  0.9609E+02
 MRCHDU: Convergence failed at  66  side 1    Res =  0.1318E+03
 MRCHDU: Convergence failed at  67  side 1    Res =  0.9194E+02
 MRCHDU: Convergence failed at  68  side 1    Res =  0.1349E+03
 MRCHDU: Convergence failed at  69  side 1    Res =  0.2352E+03
 MRCHDU: Convergence failed at  70  side 1    Res =  0.4338E+02
 MRCHDU: Convergence failed at  71  side 1    Res =  0.1778E+04
 MRCHDU: Convergence failed at  72  side 1    Res =  0.3026E+04
 MRCHDU: Convergence failed at  73  side 1    Res =  0.1555E+04
 MRCHDU: Convergence failed at  74  side 1    Res =  0.7534E+03
 MRCHDU: Convergence failed at  75  side 1    Res =  0.3117E+02
 MRCHDU: Convergence failed at  76  side 1    Res =  0.3116E+02
 MRCHDU: Convergence failed at  77  side 1    Res =  0.6535E+03
 MRCHDU: Convergence failed at  78  side 1    Res =  0.3511E+04
 MRCHDU: Convergence failed at  79  side 1    Res =  0.1070E+04
 MRCHDU: Convergence failed at  80  side 1    Res =  0.5093E+03
 MRCHDU: Convergence failed at  81  side 1    Res =  0.3577E+03
 MRCHDU: Convergence failed at  82  side 1    Res =  0.2769E+03
 MRCHDU: Convergence failed at  83  side 1    Res =  0.2172E+03
 MRCHDU: Convergence failed at  84  side 1    Res =  0.1728E+03
 MRCHDU: Convergence failed at  85  side 1    Res =  0.1432E+03
 MRCHDU: Convergence failed at  86  side 1    Res =  0.1243E+03
 MRCHDU: Convergence failed at  87  side 1    Res =  0.1114E+03
 MRCHDU: Convergence failed at  88  side 1    Res =  0.1011E+03
 MRCHDU: Convergence failed at  89  side 1    Res =  0.9195E+02
 MRCHDU: Convergence failed at  90  side 1    Res =  0.8381E+02
 MRCHDU: Convergence failed at  91  side 1    Res =  0.7681E+02
 MRCHDU: Convergence failed at  92  side 1    Res =  0.4416E+02
 MRCHDU: Convergence failed at  93  side 1    Res =  0.4244E+02
 MRCHDU: Convergence failed at  94  side 1    Res =  0.4093E+02
 MRCHDU: Convergence failed at  95  side 1    Res =  0.3955E+02
 MRCHDU: Convergence failed at  96  side 1    Res =  0.3805E+02
 MRCHDU: Convergence failed at  97  side 1    Res =  0.3632E+02
 MRCHDU: Convergence failed at  98  side 1    Res =  0.3453E+02
 MRCHDU: Convergence failed at  99  side 1    Res =  0.2690E+02
 MRCHDU: Convergence failed at 100  side 1    Res =  0.2618E+02
 MRCHDU: Convergence failed at 101  side 1    Res =  0.2561E+02
 MRCHDU: Convergence failed at 102  side 1    Res =  0.2417E+02
 Side 1  free  transition at x/c =  0.0158   33
 Side 2  free  transition at x/c =  0.9804   58

   1   rms: 0.4136E+01   max: 0.1164E+02   D at  102  1   RLX: 0.110
       a = 16.250      CL = 10.2108
      Cm = -2.5397     CD =  0.00175   =>   CDf = -0.00107    CDp =  0.00282

 MRCHDU: Convergence failed at  41  side 1    Res =  0.9693E-01
 MRCHDU: Convergence failed at  49  side 1    Res =  0.2573E+00
 MRCHDU: Convergence failed at  50  side 1    Res =  0.2401E+00
 MRCHDU: Convergence failed at  51  side 1    Res =  0.2208E+00
 MRCHDU: Convergence failed at  52  side 1    Res =  0.1923E+00
 MRCHDU: Convergence failed at  53  side 1    Res =  0.1386E+00
 Side 1  free  transition at x/c =  0.0149   32
 Side 2  free  transition at x/c =  0.9980   60

   2   rms: 0.1957E+01   max: -.7008E+01   T at   60  2   RLX: 0.068
       a = 16.250      CL =  8.1196
      Cm = -1.9758     CD =  0.01839   =>   CDf =  0.00549    CDp =  0.01289

 MRCHDU: Convergence failed at  41  side 1    Res =  0.4497E-01
 MRCHDU: Convergence failed at  54  side 1    Res =  0.3331E-01
 Side 1  free  transition at x/c =  0.0142   32
 Side 2 forced transition at x/c =  1.0000   60

   3   rms: 0.2767E+01   max: -.1285E+02   D at   59  2   RLX: 0.039
       a = 16.250      CL =  7.7119
      Cm = -1.8724     CD =  0.02053   =>   CDf =  0.00555    CDp =  0.01498

 MRCHDU: Convergence failed at  41  side 1    Res =  0.4800E-01
 MRCHDU: Convergence failed at  54  side 1    Res =  0.4185E-01
 Side 1  free  transition at x/c =  0.0144   32
 Side 2 forced transition at x/c =  1.0000   60

   4   rms: 0.2040E+01   max: -.7178E+01   D at   59  2   RLX: 0.070
       a = 16.250      CL =  7.1342
      Cm = -1.6866     CD =  0.02196   =>   CDf =  0.00552    CDp =  0.01644

 MRCHDU: Convergence failed at  41  side 1    Res =  0.4728E-01
 MRCHDU: Convergence failed at  54  side 1    Res =  0.6259E-01
 Side 1  free  transition at x/c =  0.0143   32
 Side 2 forced transition at x/c =  1.0000   60

   5   rms: 0.1755E+01   max: -.2717E+01   D at   59  2   RLX: 0.091
       a = 16.250      CL =  6.4841
      Cm = -1.4777     CD =  0.02456   =>   CDf =  0.00538    CDp =  0.01918

 MRCHDU: Convergence failed at  41  side 1    Res =  0.5347E-01
 MRCHDU: Convergence failed at  54  side 1    Res =  0.1020E+00
 MRCHDU: Convergence failed at  55  side 1    Res =  0.7598E+00
 Side 1  free  transition at x/c =  0.0142   32
 Side 2 forced transition at x/c =  1.0000   60

   6   rms: 0.1516E+01   max: 0.1617E+01   D at   69  2   RLX: 0.106
       a = 16.250      CL =  5.6285
      Cm = -1.2230     CD =  0.02682   =>   CDf =  0.00448    CDp =  0.02234

 MRCHDU: Convergence failed at  41  side 1    Res =  0.6406E-01
 Side 1  free  transition at x/c =  0.0140   32
 Side 2 forced transition at x/c =  1.0000   60
 idif Ue xi dudx           1  8.98421854E-02  1.20860338E-02   7.4335542    
 Uenew xinew           2  3.44711845E-03  4.63724136E-04

   7   rms: 0.1395E+01   max: 0.1348E+01   D at   70  2   RLX: 0.126
       a = 16.250      CL =  4.9859
      Cm = -1.0228     CD =  0.03052   =>   CDf =  0.00501    CDp =  0.02551

 MRCHDU: Convergence failed at  40  side 1    Res =  0.7096E-01
 Side 1  free  transition at x/c =  0.0140   31
 Side 2 forced transition at x/c =  1.0000   61

   8   rms: 0.1292E+01   max: -.3160E+01   D at    2  2   RLX: 0.147
       a = 16.250      CL =  4.3590
      Cm = -0.8299     CD =  0.03457   =>   CDf =  0.00444    CDp =  0.03013

 MRCHDU: Convergence failed at  40  side 1    Res =  0.4297E-01
 Side 1  free  transition at x/c =  0.0140   31
 Side 2 forced transition at x/c =  1.0000   61

   9   rms: 0.3582E+02   max: 0.1906E+03   D at   44  1   RLX: 0.001
       a = 16.250      CL =  4.3374
      Cm = -0.8202     CD =  0.03752   =>   CDf =  0.00453    CDp =  0.03299

 MRCHDU: Convergence failed at  40  side 1    Res =  0.3483E-01
 Side 1  free  transition at x/c =  0.0141   31
 Side 2 forced transition at x/c =  1.0000   61

  10   rms: 0.2783E+01   max: -.1066E+02   D at   55  1   RLX: 0.047
       a = 16.250      CL =  4.1704
      Cm = -0.7791     CD =  0.03797   =>   CDf =  0.00438    CDp =  0.03359

 MRCHDU: Convergence failed at  40  side 1    Res =  0.2912E-01
 Side 1  free  transition at x/c =  0.0139   31
 Side 2 forced transition at x/c =  1.0000   61

  11   rms: 0.1521E+01   max: 0.1010E+01   D at   74  2   RLX: 0.141
       a = 16.250      CL =  3.6875
      Cm = -0.6347     CD =  0.04078   =>   CDf =  0.00452    CDp =  0.03626

 Side 1  free  transition at x/c =  0.0140   31
 Side 2 forced transition at x/c =  1.0000   61
 idif Ue xi dudx           1  8.75910074E-02  1.05235577E-02   8.3233271    
 Uenew xinew           2  3.86270438E-03  4.64081764E-04

  12   rms: 0.9633E+00   max: -.7635E+00   U at  101  1   RLX: 0.201
       a = 16.250      CL =  3.0954
      Cm = -0.4722     CD =  0.04631   =>   CDf =  0.00418    CDp =  0.04213

 Side 1  free  transition at x/c =  0.0142   30
 Side 2 forced transition at x/c =  1.0000   62

  13   rms: 0.3135E+01   max: 0.1120E+02   D at   43  1   RLX: 0.025
       a = 16.250      CL =  3.0707
      Cm = -0.4553     CD =  0.04963   =>   CDf =  0.00364    CDp =  0.04599

 MRCHDU: Convergence failed at  35  side 1    Res =  0.4962E+00
 Side 1  free  transition at x/c =  0.0144   30
 Side 2 forced transition at x/c =  1.0000   62

  14   rms: 0.8791E+00   max: -.8162E+00   C at   62  2   RLX: 0.259
       a = 16.250      CL =  2.5372
      Cm = -0.3154     CD =  0.05432   =>   CDf =  0.00426    CDp =  0.05006

 Side 1  free  transition at x/c =  0.0147   30
 Side 2 forced transition at x/c =  1.0000   62
 idif Ue xi dudx           1  0.10236906      1.01152658E-02   10.120254    
 Uenew xinew           2  1.53059550E-02  1.51240826E-03

  15   rms: 0.8592E+00   max: 0.1973E+01   D at   74  1   RLX: 0.206
       a = 16.250      CL =  2.1709
      Cm = -0.2460     CD =  0.06466   =>   CDf =  0.00457    CDp =  0.06010

 Side 1  free  transition at x/c =  0.0150   29
 Side 2 forced transition at x/c =  1.0000   63

  16   rms: 0.7245E+00   max: 0.1410E+01   D at   73  1   RLX: 0.196
       a = 16.250      CL =  1.9412
      Cm = -0.2001     CD =  0.07271   =>   CDf =  0.00421    CDp =  0.06850

 Side 1  free  transition at x/c =  0.0153   30
 Side 2 forced transition at x/c =  1.0000   63

  17   rms: 0.1836E+01   max: -.1153E+02   D at   41  1   RLX: 0.043
       a = 16.250      CL =  1.9010
      Cm = -0.1932     CD =  0.07681   =>   CDf =  0.00446    CDp =  0.07234

 MRCHDU: Convergence failed at  40  side 1    Res =  0.4822E+00
 Side 1  free  transition at x/c =  0.0154   30
 Side 2 forced transition at x/c =  1.0000   63
 idif Ue xi dudx           1  0.11247601      9.46319103E-03   11.885633    
 Uenew xinew           2  2.58013457E-02  2.17080116E-03

  18   rms: 0.4728E+00   max: -.8853E+00   C at   63  2   RLX: 0.503
       a = 16.250      CL =  1.4841
      Cm = -0.0881     CD =  0.07955   =>   CDf =  0.00576    CDp =  0.07379

 Side 1  free  transition at x/c =  0.0157   29
 Side 2 forced transition at x/c =  1.0000   64

  19   rms: 0.2458E+00   max: -.8286E+00   D at   51  1   RLX: 0.603
       a = 16.250      CL =  1.2566
      Cm = -0.0259     CD =  0.07952   =>   CDf =  0.00496    CDp =  0.07456

 Side 1  free  transition at x/c =  0.0156   29
 Side 2 forced transition at x/c =  1.0000   64

  20   rms: 0.1117E+00   max: -.5933E+00   D at   59  1   RLX: 0.843
       a = 16.250      CL =  1.1622
      Cm =  0.0053     CD =  0.07604   =>   CDf =  0.00519    CDp =  0.07085

 Side 1  free  transition at x/c =  0.0154   29
 Side 2 forced transition at x/c =  1.0000   64

  21   rms: 0.8532E-01   max: -.4427E+00   D at   62  1
       a = 16.250      CL =  1.1945
      Cm =  0.0110     CD =  0.06876   =>   CDf =  0.00527    CDp =  0.06349

 Side 1  free  transition at x/c =  0.0150   28
 Side 2 forced transition at x/c =  1.0000   64

  22   rms: 0.1939E-01   max: -.2057E+00   D at   62  1
       a = 16.250      CL =  1.2036
      Cm =  0.0104     CD =  0.07010   =>   CDf =  0.00543    CDp =  0.06467

 Side 1  free  transition at x/c =  0.0150   28
 Side 2 forced transition at x/c =  1.0000   64

  23   rms: 0.3231E-02   max: -.3604E-01   D at   62  1
       a = 16.250      CL =  1.2028
      Cm =  0.0101     CD =  0.07086   =>   CDf =  0.00545    CDp =  0.06541

 Side 1  free  transition at x/c =  0.0150   28
 Side 2 forced transition at x/c =  1.0000   64

  24   rms: 0.5156E-03   max: 0.2682E-02   D at   65  1
       a = 16.250      CL =  1.2024
      Cm =  0.0101     CD =  0.07085   =>   CDf =  0.00545    CDp =  0.06541

 Side 1  free  transition at x/c =  0.0150   28
 Side 2 forced transition at x/c =  1.0000   64

  25   rms: 0.4516E-04   max: 0.3420E-03   D at   79  2
       a = 16.250      CL =  1.2024
      Cm =  0.0101     CD =  0.07084   =>   CDf =  0.00544    CDp =  0.06540
 plradd ia,ip,cpol            1           0  3.95246228E-04

 Point added to stored polar  1
 Point written to save file  naca747a415_Re600k.ext.pol                      
 Dump file unspecified or not available
 Calculating wake trajectory ...
 Calculating source influence matrix ...

 Solving BL system ...

 Side 1  free  transition at x/c =  0.0150   28
 Side 2 forced transition at x/c =  1.0000   64

   1   rms: 0.2898E-01   max: 0.6773E-01   D at   62  1   RLX: 0.493
       a = 16.500      CL =  1.2069
      Cm =  0.0100     CD =  0.07203   =>   CDf =  0.00545    CDp =  0.06658

 Side 1  free  transition at x/c =  0.0150   28
 Side 2 forced transition at x/c =  1.0000   64

   2   rms: 0.1461E-01   max: 0.3713E-01   D at   61  1
       a = 16.500      CL =  1.2104
      Cm =  0.0099     CD =  0.07321   =>   CDf =  0.00541    CDp =  0.06780

 Side 1  free  transition at x/c =  0.0149   28
 Side 2 forced transition at x/c =  1.0000   64

   3   rms: 0.1883E-02   max: 0.7892E-02   D at   79  2
       a = 16.500      CL =  1.2091
      Cm =  0.0099     CD =  0.07312   =>   CDf =  0.00536    CDp =  0.06776

 Side 1  free  transition at x/c =  0.0149   28
 Side 2 forced transition at x/c =  1.0000   64

   4   rms: 0.1529E-03   max: 0.1111E-02   D at   79  2
       a = 16.500      CL =  1.2090
      Cm =  0.0099     CD =  0.07308   =>   CDf =  0.00536    CDp =  0.06772

 Side 1  free  transition at x/c =  0.0149   28
 Side 2 forced transition at x/c =  1.0000   64

   5   rms: 0.6381E-05   max: -.9065E-04   C at   64  2
       a = 16.500      CL =  1.2090
      Cm =  0.0099     CD =  0.07308   =>   CDf =  0.00536    CDp =  0.06772
 plradd ia,ip,cpol            2           0  3.95246228E-04

 Point added to stored polar  1
 Point written to save file  naca747a415_Re600k.ext.pol                      
 Dump file unspecified or not available
 Calculating wake trajectory ...
 Calculating source influence matrix ...

 Solving BL system ...

 Side 1  free  transition at x/c =  0.0149   28
 Side 2 forced transition at x/c =  1.0000   64

   1   rms: 0.2828E-01   max: 0.7177E-01   D at   62  1   RLX: 0.482
       a = 16.750      CL =  1.2129
      Cm =  0.0097     CD =  0.07434   =>   CDf =  0.00536    CDp =  0.06897

 Side 1  free  transition at x/c =  0.0149   28
 Side 2 forced transition at x/c =  1.0000   64

   2   rms: 0.1457E-01   max: 0.3926E-01   D at   61  1
       a = 16.750      CL =  1.2162
      Cm =  0.0095     CD =  0.07562   =>   CDf =  0.00493    CDp =  0.07068

 Side 1  free  transition at x/c =  0.0148   29
 Side 2 forced transition at x/c =  1.0000   63
 idif Ue xi dudx           1  8.42657238E-02  7.30144978E-03   11.540957    
 Uenew xinew           2  1.04559993E-04  9.05990601E-06

   3   rms: 0.8748E-02   max: -.1493E+00   T at    2  1
       a = 16.750      CL =  1.2150
      Cm =  0.0095     CD =  0.07550   =>   CDf =  0.00561    CDp =  0.06989

 Side 1  free  transition at x/c =  0.0148   28
 Side 2 forced transition at x/c =  1.0000   64

   4   rms: 0.1036E-02   max: 0.1653E-01   T at    2  2
       a = 16.750      CL =  1.2149
      Cm =  0.0096     CD =  0.07547   =>   CDf =  0.00527    CDp =  0.07020

 Side 1  free  transition at x/c =  0.0148   28
 Side 2 forced transition at x/c =  1.0000   64

   5   rms: 0.3870E-03   max: 0.4562E-02   D at    4  2
       a = 16.750      CL =  1.2149
      Cm =  0.0096     CD =  0.07546   =>   CDf =  0.00527    CDp =  0.07020

 Side 1  free  transition at x/c =  0.0148   28
 Side 2 forced transition at x/c =  1.0000   64

   6   rms: 0.5591E-04   max: -.1027E-02   T at    2  2
       a = 16.750      CL =  1.2149
      Cm =  0.0096     CD =  0.07546   =>   CDf =  0.00527    CDp =  0.07020
 plradd ia,ip,cpol            3           0  3.95246228E-04

 Point added to stored polar  1
 Point written to save file  naca747a415_Re600k.ext.pol                      
 Dump file unspecified or not available
 Calculating wake trajectory ...
 Calculating source influence matrix ...

 Solving BL system ...

 Side 1  free  transition at x/c =  0.0148   28
 Side 2 forced transition at x/c =  1.0000   64

   1   rms: 0.1300E+00   max: -.2418E+01   D at    2  2   RLX: 0.207
       a = 17.000      CL =  1.2165
      Cm =  0.0095     CD =  0.07599   =>   CDf =  0.00488    CDp =  0.07111

 Side 1  free  transition at x/c =  0.0148   29
 Side 2 forced transition at x/c =  1.0000   63

   2   rms: 0.3131E-01   max: 0.3691E+00   T at    2  1
       a = 17.000      CL =  1.2230
      Cm =  0.0092     CD =  0.07802   =>   CDf =  0.00525    CDp =  0.07277

 Side 1  free  transition at x/c =  0.0147   29
 Side 2 forced transition at x/c =  1.0000   63

   3   rms: 0.2983E-02   max: 0.1286E-01   D at   79  2
       a = 17.000      CL =  1.2210
      Cm =  0.0092     CD =  0.07791   =>   CDf =  0.00517    CDp =  0.07273

 Side 1  free  transition at x/c =  0.0147   29
 Side 2 forced transition at x/c =  1.0000   63

   4   rms: 0.2008E-03   max: 0.1721E-02   D at   79  2
       a = 17.000      CL =  1.2209
      Cm =  0.0092     CD =  0.07784   =>   CDf =  0.00517    CDp =  0.07267

 Side 1  free  transition at x/c =  0.0147   29
 Side 2 forced transition at x/c =  1.0000   63

   5   rms: 0.4911E-05   max: 0.5715E-04   D at   79  2
       a = 17.000      CL =  1.2209
      Cm =  0.0092     CD =  0.07784   =>   CDf =  0.00517    CDp =  0.07267
 plradd ia,ip,cpol            4           0  3.95246228E-04

 Point added to stored polar  1
 Point written to save file  naca747a415_Re600k.ext.pol                      
 Dump file unspecified or not available
 Calculating wake trajectory ...
 Calculating source influence matrix ...

 Solving BL system ...

 Side 1  free  transition at x/c =  0.0147   29
 Side 2 forced transition at x/c =  1.0000   63

   1   rms: 0.2925E-01   max: 0.7348E-01   D at   61  1   RLX: 0.461
       a = 17.250      CL =  1.2246
      Cm =  0.0090     CD =  0.07909   =>   CDf =  0.00517    CDp =  0.07392

 Side 1  free  transition at x/c =  0.0146   29
 Side 2 forced transition at x/c =  1.0000   63

   2   rms: 0.1571E-01   max: 0.4352E-01   D at   61  1
       a = 17.250      CL =  1.2276
      Cm =  0.0088     CD =  0.08057   =>   CDf =  0.00513    CDp =  0.07544

 Side 1  free  transition at x/c =  0.0146   29
 Side 2 forced transition at x/c =  1.0000   63

   3   rms: 0.2535E-02   max: 0.1103E-01   D at   79  2
       a = 17.250      CL =  1.2258
      Cm =  0.0088     CD =  0.08049   =>   CDf =  0.00507    CDp =  0.07542

 Side 1  free  transition at x/c =  0.0146   29
 Side 2 forced transition at x/c =  1.0000   63

   4   rms: 0.2325E-03   max: 0.2369E-02   D at   79  2
       a = 17.250      CL =  1.2257
      Cm =  0.0088     CD =  0.08042   =>   CDf =  0.00507    CDp =  0.07536

 Side 1  free  transition at x/c =  0.0146   29
 Side 2 forced transition at x/c =  1.0000   63

   5   rms: 0.8534E-05   max: 0.1321E-03   D at   79  2
       a = 17.250      CL =  1.2257
      Cm =  0.0088     CD =  0.08042   =>   CDf =  0.00507    CDp =  0.07535
 plradd ia,ip,cpol            5           0  3.95246228E-04

 Point added to stored polar  1
 Point written to save file  naca747a415_Re600k.ext.pol                      
 Dump file unspecified or not available
 Calculating wake trajectory ...
 Calculating source influence matrix ...

 Solving BL system ...

 Side 1  free  transition at x/c =  0.0146   29
 Side 2 forced transition at x/c =  1.0000   63

   1   rms: 0.2758E-01   max: 0.8309E-01   D at   62  1   RLX: 0.451
       a = 17.500      CL =  1.2284
      Cm =  0.0085     CD =  0.08185   =>   CDf =  0.00507    CDp =  0.07679

 Side 1  free  transition at x/c =  0.0145   29
 Side 2 forced transition at x/c =  1.0000   63

   2   rms: 0.1514E-01   max: 0.4811E-01   D at   62  1
       a = 17.500      CL =  1.2305
      Cm =  0.0080     CD =  0.08354   =>   CDf =  0.00502    CDp =  0.07852

 Side 1  free  transition at x/c =  0.0144   29
 Side 2 forced transition at x/c =  1.0000   63

   3   rms: 0.2163E-02   max: 0.1206E-01   D at   79  2
       a = 17.500      CL =  1.2290
      Cm =  0.0081     CD =  0.08333   =>   CDf =  0.00496    CDp =  0.07837

 Side 1  free  transition at x/c =  0.0144   29
 Side 2 forced transition at x/c =  1.0000   63

   4   rms: 0.1154E-03   max: 0.1070E-02   D at   79  2
       a = 17.500      CL =  1.2290
      Cm =  0.0081     CD =  0.08328   =>   CDf =  0.00496    CDp =  0.07832

 Side 1  free  transition at x/c =  0.0144   29
 Side 2 forced transition at x/c =  1.0000   63

   5   rms: 0.4327E-05   max: -.2354E-04   C at   63  2
       a = 17.500      CL =  1.2290
      Cm =  0.0081     CD =  0.08328   =>   CDf =  0.00496    CDp =  0.07832
 plradd ia,ip,cpol            6           0  3.95246228E-04

 Point added to stored polar  1
 Point written to save file  naca747a415_Re600k.ext.pol                      
 Dump file unspecified or not available
 Calculating wake trajectory ...
 Calculating source influence matrix ...

 Solving BL system ...

 Side 1  free  transition at x/c =  0.0144   29
 Side 2 forced transition at x/c =  1.0000   63

   1   rms: 0.2809E-01   max: 0.7793E-01   D at   61  1   RLX: 0.441
       a = 17.750      CL =  1.2320
      Cm =  0.0078     CD =  0.08459   =>   CDf =  0.00496    CDp =  0.07963

 Side 1  free  transition at x/c =  0.0144   29
 Side 2 forced transition at x/c =  1.0000   63

   2   rms: 0.1570E-01   max: 0.4683E-01   D at   61  1
       a = 17.750      CL =  1.2346
      Cm =  0.0075     CD =  0.08625   =>   CDf =  0.00492    CDp =  0.08134

 Side 1  free  transition at x/c =  0.0143   29
 Side 2 forced transition at x/c =  1.0000   63

   3   rms: 0.2519E-02   max: 0.9961E-02   D at   79  2
       a = 17.750      CL =  1.2328
      Cm =  0.0075     CD =  0.08614   =>   CDf =  0.00485    CDp =  0.08128

 Side 1  free  transition at x/c =  0.0143   29
 Side 2 forced transition at x/c =  1.0000   63

   4   rms: 0.2298E-03   max: 0.1682E-02   D at   79  2
       a = 17.750      CL =  1.2327
      Cm =  0.0075     CD =  0.08608   =>   CDf =  0.00485    CDp =  0.08122

 Side 1  free  transition at x/c =  0.0143   29
 Side 2 forced transition at x/c =  1.0000   63

   5   rms: 0.1002E-04   max: 0.1022E-03   D at   79  2
       a = 17.750      CL =  1.2327
      Cm =  0.0075     CD =  0.08607   =>   CDf =  0.00485    CDp =  0.08122
 plradd ia,ip,cpol            7           0  3.95246228E-04

 Point added to stored polar  1
 Point written to save file  naca747a415_Re600k.ext.pol                      
 Dump file unspecified or not available
 Calculating wake trajectory ...
 Calculating source influence matrix ...

 Solving BL system ...

 Side 1  free  transition at x/c =  0.0143   29
 Side 2 forced transition at x/c =  1.0000   63

   1   rms: 0.2753E-01   max: 0.8434E-01   D at   60  1   RLX: 0.431
       a = 18.000      CL =  1.2350
      Cm =  0.0072     CD =  0.08752   =>   CDf =  0.00486    CDp =  0.08266

 Side 1  free  transition at x/c =  0.0143   29
 Side 2 forced transition at x/c =  1.0000   63

   2   rms: 0.1582E-01   max: 0.5288E-01   D at   60  1
       a = 18.000      CL =  1.2365
      Cm =  0.0067     CD =  0.08946   =>   CDf =  0.00481    CDp =  0.08465

 Side 1  free  transition at x/c =  0.0142   29
 Side 2 forced transition at x/c =  1.0000   63

   3   rms: 0.2801E-02   max: 0.1185E-01   D at   80  2
       a = 18.000      CL =  1.2346
      Cm =  0.0067     CD =  0.08929   =>   CDf =  0.00474    CDp =  0.08455

 Side 1  free  transition at x/c =  0.0142   29
 Side 2 forced transition at x/c =  1.0000   63

   4   rms: 0.2070E-03   max: 0.1664E-02   D at   80  2
       a = 18.000      CL =  1.2345
      Cm =  0.0067     CD =  0.08920   =>   CDf =  0.00474    CDp =  0.08447

 Side 1  free  transition at x/c =  0.0142   29
 Side 2 forced transition at x/c =  1.0000   63

   5   rms: 0.5733E-05   max: 0.4903E-04   D at   79  2
       a = 18.000      CL =  1.2345
      Cm =  0.0067     CD =  0.08920   =>   CDf =  0.00474    CDp =  0.08446
 plradd ia,ip,cpol            8           0  3.95246228E-04

 Point added to stored polar  1
 Point written to save file  naca747a415_Re600k.ext.pol                      
 Dump file unspecified or not available

.OPERva   c>   Calculating wake trajectory ...
 Calculating source influence matrix ...

 Solving BL system ...

 Side 1  free  transition at x/c =  0.0142   29
 Side 2 forced transition at x/c =  1.0000   63

   1   rms: 0.2769E-01   max: 0.8916E-01   D at   61  1   RLX: 0.421
       a = 18.250      CL =  1.2363
      Cm =  0.0063     CD =  0.09071   =>   CDf =  0.00474    CDp =  0.08597

 Side 1  free  transition at x/c =  0.0142   29
 Side 2 forced transition at x/c =  1.0000   63

   2   rms: 0.1619E-01   max: 0.5456E-01   D at   60  1
       a = 18.250      CL =  1.2378
      Cm =  0.0057     CD =  0.09275   =>   CDf =  0.00469    CDp =  0.08806

 Side 1  free  transition at x/c =  0.0141   29
 Side 2 forced transition at x/c =  1.0000   63

   3   rms: 0.2791E-02   max: 0.1227E-01   D at   80  2
       a = 18.250      CL =  1.2358
      Cm =  0.0057     CD =  0.09255   =>   CDf =  0.00462    CDp =  0.08793

 Side 1  free  transition at x/c =  0.0141   29
 Side 2 forced transition at x/c =  1.0000   63

   4   rms: 0.2036E-03   max: 0.1724E-02   D at   80  2
       a = 18.250      CL =  1.2357
      Cm =  0.0057     CD =  0.09247   =>   CDf =  0.00462    CDp =  0.08785

 Side 1  free  transition at x/c =  0.0141   29
 Side 2 forced transition at x/c =  1.0000   63

   5   rms: 0.6360E-05   max: 0.3287E-04   D at   80  2
       a = 18.250      CL =  1.2357
      Cm =  0.0057     CD =  0.09246   =>   CDf =  0.00462    CDp =  0.08785
 plradd ia,ip,cpol            9           0  3.95246228E-04

 Point added to stored polar  1
 Point written to save file  naca747a415_Re600k.ext.pol                      
 Dump file unspecified or not available
 Calculating wake trajectory ...
 Calculating source influence matrix ...

 Solving BL system ...

 Side 1  free  transition at x/c =  0.0141   29
 Side 2 forced transition at x/c =  1.0000   63

   1   rms: 0.5511E-01   max: 0.1847E+00   D at   60  1   RLX: 0.403
       a = 18.750      CL =  1.2388
      Cm =  0.0049     CD =  0.09552   =>   CDf =  0.00462    CDp =  0.09089

 Side 1  free  transition at x/c =  0.0140   29
 Side 2 forced transition at x/c =  1.0000   63

   2   rms: 0.3299E-01   max: 0.1284E+00   D at   63  1
       a = 18.750      CL =  1.2381
      Cm =  0.0032     CD =  0.10066   =>   CDf =  0.00413    CDp =  0.09653

 Side 1  free  transition at x/c =  0.0139   30
 Side 2 forced transition at x/c =  1.0000   62
 idif Ue xi dudx           1  8.60897601E-02  8.64171982E-03   9.9621096    
 Uenew xinew           2  3.87149776E-04  3.88622284E-05

   3   rms: 0.1052E-01   max: -.1411E+00   D at    2  1
       a = 18.750      CL =  1.2338
      Cm =  0.0032     CD =  0.10007   =>   CDf =  0.00470    CDp =  0.09537

 Side 1  free  transition at x/c =  0.0139   29
 Side 2 forced transition at x/c =  1.0000   63

   4   rms: 0.6752E-03   max: 0.5755E-02   D at   80  2
       a = 18.750      CL =  1.2337
      Cm =  0.0032     CD =  0.09984   =>   CDf =  0.00436    CDp =  0.09548

 Side 1  free  transition at x/c =  0.0139   29
 Side 2 forced transition at x/c =  1.0000   63

   5   rms: 0.2928E-03   max: 0.3346E-02   D at    4  2
       a = 18.750      CL =  1.2337
      Cm =  0.0032     CD =  0.09984   =>   CDf =  0.00436    CDp =  0.09548

 Side 1  free  transition at x/c =  0.0139   29
 Side 2 forced transition at x/c =  1.0000   63

   6   rms: 0.3298E-05   max: 0.5303E-04   C at   63  2
       a = 18.750      CL =  1.2337
      Cm =  0.0032     CD =  0.09985   =>   CDf =  0.00436    CDp =  0.09549
 plradd ia,ip,cpol           10           0  3.95246228E-04

 Point added to stored polar  1
 Point written to save file  naca747a415_Re600k.ext.pol                      
 Dump file unspecified or not available
 Calculating wake trajectory ...
 Calculating source influence matrix ...

 Solving BL system ...

 Side 1  free  transition at x/c =  0.0139   29
 Side 2 forced transition at x/c =  1.0000   63

   1   rms: 0.5490E-01   max: -.2370E+00   D at    3  2   RLX: 0.383
       a = 19.250      CL =  1.2343
      Cm =  0.0020     CD =  0.10338   =>   CDf =  0.00398    CDp =  0.09939

 Side 1  free  transition at x/c =  0.0138   30
 Side 2 forced transition at x/c =  1.0000   62

   2   rms: 0.3488E-01   max: 0.1425E+00   D at   62  1
       a = 19.250      CL =  1.2321
      Cm = -0.0003     CD =  0.10936   =>   CDf =  0.00426    CDp =  0.10510

 Side 1  free  transition at x/c =  0.0136   30
 Side 2 forced transition at x/c =  1.0000   62

   3   rms: 0.6264E-02   max: 0.3617E-01   D at   62  1
       a = 19.250      CL =  1.2280
      Cm = -0.0003     CD =  0.10836   =>   CDf =  0.00411    CDp =  0.10425

 Side 1  free  transition at x/c =  0.0137   30
 Side 2 forced transition at x/c =  1.0000   62

   4   rms: 0.5157E-03   max: 0.3710E-02   D at   80  2
       a = 19.250      CL =  1.2277
      Cm = -0.0002     CD =  0.10817   =>   CDf =  0.00411    CDp =  0.10406

 Side 1  free  transition at x/c =  0.0137   30
 Side 2 forced transition at x/c =  1.0000   62

   5   rms: 0.2832E-04   max: 0.2455E-03   D at   79  2
       a = 19.250      CL =  1.2277
      Cm = -0.0002     CD =  0.10815   =>   CDf =  0.00411    CDp =  0.10405
 plradd ia,ip,cpol           11           0  3.95246228E-04

 Point added to stored polar  1
 Point written to save file  naca747a415_Re600k.ext.pol                      
 Dump file unspecified or not available
 Calculating wake trajectory ...
 Calculating source influence matrix ...

 Solving BL system ...

 Side 1  free  transition at x/c =  0.0137   30
 Side 2 forced transition at x/c =  1.0000   62

   1   rms: 0.5484E-01   max: 0.2357E+00   D at   59  1   RLX: 0.364
       a = 19.750      CL =  1.2267
      Cm = -0.0018     CD =  0.11211   =>   CDf =  0.00411    CDp =  0.10799

 Side 1  free  transition at x/c =  0.0135   30
 Side 2 forced transition at x/c =  1.0000   62

   2   rms: 0.3529E-01   max: 0.1471E+00   D at   60  1
       a = 19.750      CL =  1.2243
      Cm = -0.0044     CD =  0.11849   =>   CDf =  0.00402    CDp =  0.11447

 Side 1  free  transition at x/c =  0.0134   30
 Side 2 forced transition at x/c =  1.0000   62

   3   rms: 0.9437E-02   max: 0.5819E-01   D at   61  1
       a = 19.750      CL =  1.2184
      Cm = -0.0046     CD =  0.11784   =>   CDf =  0.00387    CDp =  0.11398

 Side 1  free  transition at x/c =  0.0134   30
 Side 2 forced transition at x/c =  1.0000   62

   4   rms: 0.8592E-03   max: 0.7214E-02   D at   80  2
       a = 19.750      CL =  1.2180
      Cm = -0.0045     CD =  0.11740   =>   CDf =  0.00385    CDp =  0.11354

 Side 1  free  transition at x/c =  0.0134   30
 Side 2 forced transition at x/c =  1.0000   62

   5   rms: 0.3594E-04   max: 0.3875E-03   D at   80  2
       a = 19.750      CL =  1.2180
      Cm = -0.0045     CD =  0.11737   =>   CDf =  0.00385    CDp =  0.11351
 plradd ia,ip,cpol           12           0  3.95246228E-04

 Point added to stored polar  1
 Point written to save file  naca747a415_Re600k.ext.pol                      
 Dump file unspecified or not available
 Calculating wake trajectory ...
 Calculating source influence matrix ...

 Solving BL system ...

 Side 1  free  transition at x/c =  0.0134   30
 Side 2 forced transition at x/c =  1.0000   62

   1   rms: 0.5767E-01   max: 0.2610E+00   D at   57  1   RLX: 0.347
       a = 20.250      CL =  1.2156
      Cm = -0.0063     CD =  0.12170   =>   CDf =  0.00386    CDp =  0.11783

 Side 1  free  transition at x/c =  0.0134   30
 Side 2 forced transition at x/c =  1.0000   62

   2   rms: 0.4161E-01   max: 0.1882E+00   D at   59  1
       a = 20.250      CL =  1.2081
      Cm = -0.0100     CD =  0.13020   =>   CDf =  0.00376    CDp =  0.12643

 Side 1  free  transition at x/c =  0.0133   30
 Side 2 forced transition at x/c =  1.0000   62

   3   rms: 0.1302E-01   max: 0.8110E-01   D at   59  1
       a = 20.250      CL =  1.2004
      Cm = -0.0103     CD =  0.12918   =>   CDf =  0.00356    CDp =  0.12562

 Side 1  free  transition at x/c =  0.0133   30
 Side 2 forced transition at x/c =  1.0000   62

   4   rms: 0.1145E-02   max: 0.8301E-02   D at   80  2
       a = 20.250      CL =  1.2000
      Cm = -0.0102     CD =  0.12844   =>   CDf =  0.00354    CDp =  0.12490

 Side 1  free  transition at x/c =  0.0133   30
 Side 2 forced transition at x/c =  1.0000   62

   5   rms: 0.7354E-04   max: -.2398E-03   T at   80  2
       a = 20.250      CL =  1.2000
      Cm = -0.0102     CD =  0.12840   =>   CDf =  0.00355    CDp =  0.12486
 plradd ia,ip,cpol           13           0  3.95246228E-04

 Point added to stored polar  1
 Point written to save file  naca747a415_Re600k.ext.pol                      
 Dump file unspecified or not available
 Calculating wake trajectory ...
 Calculating source influence matrix ...

 Solving BL system ...

 Side 1  free  transition at x/c =  0.0133   30
 Side 2 forced transition at x/c =  1.0000   62

   1   rms: 0.7044E-01   max: 0.3342E+00   D at   55  1   RLX: 0.327
       a = 20.750      CL =  1.1944
      Cm = -0.0124     CD =  0.13371   =>   CDf =  0.00355    CDp =  0.13016

 Side 1  free  transition at x/c =  0.0133   30
 Side 2 forced transition at x/c =  1.0000   62

   2   rms: 0.5480E-01   max: 0.2519E+00   D at   57  1
       a = 20.750      CL =  1.1790
      Cm = -0.0178     CD =  0.14522   =>   CDf =  0.00343    CDp =  0.14179

 Side 1  free  transition at x/c =  0.0134   30
 Side 2 forced transition at x/c =  1.0000   62

   3   rms: 0.2112E-01   max: 0.1251E+00   D at   57  1
       a = 20.750      CL =  1.1676
      Cm = -0.0186     CD =  0.14456   =>   CDf =  0.00317    CDp =  0.14138

 Side 1  free  transition at x/c =  0.0134   30
 Side 2 forced transition at x/c =  1.0000   62

   4   rms: 0.2318E-02   max: 0.1749E-01   D at   56  1
       a = 20.750      CL =  1.1666
      Cm = -0.0185     CD =  0.14333   =>   CDf =  0.00314    CDp =  0.14019

 Side 1  free  transition at x/c =  0.0134   30
 Side 2 forced transition at x/c =  1.0000   62

   5   rms: 0.2168E-03   max: 0.1198E-02   D at   81  2
       a = 20.750      CL =  1.1666
      Cm = -0.0185     CD =  0.14317   =>   CDf =  0.00315    CDp =  0.14003

 Side 1  free  transition at x/c =  0.0134   30
 Side 2 forced transition at x/c =  1.0000   62

   6   rms: 0.2785E-04   max: -.1361E-03   D at   82  2
       a = 20.750      CL =  1.1666
      Cm = -0.0185     CD =  0.14318   =>   CDf =  0.00315    CDp =  0.14003
 plradd ia,ip,cpol           14           0 -1.65071629E-04

 Point added to stored polar  1
 Point written to save file  naca747a415_Re600k.ext.pol                      
 Dump file unspecified or not available
 Calculating wake trajectory ...
 Calculating source influence matrix ...

 Solving BL system ...

 Side 1  free  transition at x/c =  0.0134   30
 Side 2 forced transition at x/c =  1.0000   62

   1   rms: 0.8984E-01   max: 0.4281E+00   D at   53  1   RLX: 0.307
       a = 21.250      CL =  1.1582
      Cm = -0.0215     CD =  0.14992   =>   CDf =  0.00315    CDp =  0.14677

 Side 1  free  transition at x/c =  0.0135   30
 Side 2 forced transition at x/c =  1.0000   62

   2   rms: 0.8404E-01   max: 0.3795E+00   D at   54  1
       a = 21.250      CL =  1.1298
      Cm = -0.0301     CD =  0.16833   =>   CDf =  0.00303    CDp =  0.16530

 Side 1  free  transition at x/c =  0.0136   30
 Side 2 forced transition at x/c =  1.0000   62

   3   rms: 0.3749E-01   max: 0.2576E+00   D at   53  1
       a = 21.250      CL =  1.1133
      Cm = -0.0317     CD =  0.16734   =>   CDf =  0.00273    CDp =  0.16462

 Side 1  free  transition at x/c =  0.0137   30
 Side 2 forced transition at x/c =  1.0000   62

   4   rms: 0.4788E-02   max: 0.3543E-01   D at   52  1
       a = 21.250      CL =  1.1128
      Cm = -0.0312     CD =  0.16407   =>   CDf =  0.00267    CDp =  0.16140

 Side 1  free  transition at x/c =  0.0137   30
 Side 2 forced transition at x/c =  1.0000   62

   5   rms: 0.8565E-03   max: -.3720E-02   D at   52  1
       a = 21.250      CL =  1.1131
      Cm = -0.0311     CD =  0.16363   =>   CDf =  0.00268    CDp =  0.16095

 Side 1  free  transition at x/c =  0.0137   30
 Side 2 forced transition at x/c =  1.0000   62

   6   rms: 0.1201E-03   max: -.7011E-03   D at   81  2
       a = 21.250      CL =  1.1132
      Cm = -0.0311     CD =  0.16371   =>   CDf =  0.00268    CDp =  0.16103

 Side 1  free  transition at x/c =  0.0137   30
 Side 2 forced transition at x/c =  1.0000   62

   7   rms: 0.1520E-04   max: 0.6438E-04   T at   81  2
       a = 21.250      CL =  1.1132
      Cm = -0.0311     CD =  0.16372   =>   CDf =  0.00268    CDp =  0.16104
 plradd ia,ip,cpol           15           0 -1.65071629E-04

 Point added to stored polar  1
 Point written to save file  naca747a415_Re600k.ext.pol                      
 Dump file unspecified or not available
 Calculating wake trajectory ...
 Calculating source influence matrix ...

 Solving BL system ...

 Side 1  free  transition at x/c =  0.0137   30
 Side 2 forced transition at x/c =  1.0000   62

   1   rms: 0.1813E+00   max: 0.8040E+00   D at   49  1   RLX: 0.283
       a = 21.750      CL =  1.0951
      Cm = -0.0363     CD =  0.17536   =>   CDf =  0.00269    CDp =  0.17267

 Side 1  free  transition at x/c =  0.0138   30
 Side 2 forced transition at x/c =  1.0000   62
 idif Ue xi dudx           1  0.11790016      1.20171309E-02   9.8110075    
 Uenew xinew           2  3.34974602E-02  3.41427326E-03

   2   rms: 0.2216E+00   max: 0.9493E+00   D at   49  1
       a = 21.750      CL =  1.0215
      Cm = -0.0558     CD =  0.22129   =>   CDf =  0.00281    CDp =  0.21848

 MRCHDU: Convergence failed at  42  side 1    Res =  0.2682E+01
 MRCHDU: Convergence failed at  43  side 1    Res =  0.6186E+01
 MRCHDU: Convergence failed at  44  side 1    Res =  0.4150E+01
 MRCHDU: Convergence failed at  45  side 1    Res =  0.1595E+01
 MRCHDU: Convergence failed at  46  side 1    Res =  0.2116E+01
 MRCHDU: Convergence failed at  47  side 1    Res =  0.3006E+01
 Side 1  free  transition at x/c =  0.0144   29
 Side 2 forced transition at x/c =  1.0000   63

   3   rms: 0.1528E+00   max: 0.1046E+01   D at   47  1
       a = 21.750      CL =  1.0466
      Cm = -0.0455     CD =  0.18854   =>   CDf =  0.00222    CDp =  0.18632

 Side 1  free  transition at x/c =  0.0143   29
 Side 2 forced transition at x/c =  1.0000   63

   4   rms: 0.1464E+00   max: -.6268E+00   D at   40  1   RLX: 0.798
       a = 21.750      CL =  1.0849
      Cm = -0.0483     CD =  0.17704   =>   CDf =  0.00185    CDp =  0.17518

 Side 1  free  transition at x/c =  0.0139   30
 Side 2 forced transition at x/c =  1.0000   62
 idif Ue xi dudx           1  8.92693475E-02  9.18734074E-03   9.7165604    
 Uenew xinew           2  5.67916594E-03  5.84483147E-04

   5   rms: 0.2496E+01   max: -.2825E+02   T at    2  1   RLX: 0.018
       a = 21.750      CL =  1.0955
      Cm = -0.0556     CD =  0.19290   =>   CDf =  0.00260    CDp =  0.19030

 Side 1  free  transition at x/c =  0.0140   29
 Side 2 forced transition at x/c =  1.0000   63

   6   rms: 0.3457E+00   max: 0.1470E+01   D at    2  2   RLX: 0.370
       a = 21.750      CL =  1.1227
      Cm = -0.0434     CD =  0.16575   =>   CDf =  0.00199    CDp =  0.16376

 Side 1  free  transition at x/c =  0.0136   30
 Side 2 forced transition at x/c =  1.0000   62
 idif Ue xi dudx           1  0.14977142      1.52508020E-02   9.8205605    
 Uenew xinew           2  6.52865395E-02  6.64794445E-03

   7   rms: 0.4228E+00   max: 0.1814E+01   D at   49  1   RLX: 0.827
       a = 21.750      CL =  0.9899
      Cm = -0.0665     CD =  0.23568   =>   CDf =  0.00277    CDp =  0.23291

 MRCHDU: Convergence failed at  40  side 1    Res =  0.9588E+00
 MRCHDU: Convergence failed at  41  side 1    Res =  0.2243E+01
 MRCHDU: Convergence failed at  42  side 1    Res =  0.2620E+02
 MRCHDU: Convergence failed at  43  side 1    Res =  0.2638E+01
 MRCHDU: Convergence failed at  44  side 1    Res =  0.1504E+01
 MRCHDU: Convergence failed at  45  side 1    Res =  0.2531E+01
 MRCHDU: Convergence failed at  46  side 1    Res =  0.1613E+03
 MRCHDU: Convergence failed at  47  side 1    Res =  0.3175E+01
 MRCHDU: Convergence failed at  48  side 1    Res =  0.1675E+01
 Side 1  free  transition at x/c =  0.0148   29
 Side 2 forced transition at x/c =  1.0000   63

   8   rms: 0.2587E+00   max: 0.1292E+01   D at   48  1
       a = 21.750      CL =  1.0601
      Cm = -0.0408     CD =  0.17501   =>   CDf =  0.00225    CDp =  0.17276

 MRCHDU: Convergence failed at  48  side 1    Res =  0.1198E+01
 Side 1  free  transition at x/c =  0.0145   29
 Side 2 forced transition at x/c =  1.0000   63

   9   rms: 0.2279E+02   max: 0.8930E+02   D at   46  1   RLX: 0.009
       a = 21.750      CL =  1.2308
      Cm = -0.1249     CD =  0.22534   =>   CDf =  0.00202    CDp =  0.22332

 Side 1  free  transition at x/c =  0.0161   30
 Side 2 forced transition at x/c =  1.0000   63

  10   rms: 0.4156E+00   max: 0.2109E+01   D at   48  1   RLX: 0.711
       a = 21.750      CL =  1.1651
      Cm = -0.0383     CD =  0.16016   =>   CDf =  0.00199    CDp =  0.15817

 MRCHDU: Convergence failed at  50  side 1    Res =  0.8869E+00
 MRCHDU: Convergence failed at  51  side 1    Res =  0.9689E+00
 MRCHDU: Convergence failed at  52  side 1    Res =  0.8219E+00
 MRCHDU: Convergence failed at  53  side 1    Res =  0.9809E+00
 MRCHDU: Convergence failed at  54  side 1    Res =  0.1771E+01
 MRCHDU: Convergence failed at  55  side 1    Res =  0.2873E+01
 MRCHDU: Convergence failed at  56  side 1    Res =  0.1391E+02
 MRCHDU: Convergence failed at  57  side 1    Res =  0.1929E+01
 MRCHDU: Convergence failed at  58  side 1    Res =  0.1536E+01
 MRCHDU: Convergence failed at  59  side 1    Res =  0.1301E+01
 MRCHDU: Convergence failed at  60  side 1    Res =  0.1016E+01
 MRCHDU: Convergence failed at  61  side 1    Res =  0.9631E+00
 MRCHDU: Convergence failed at  62  side 1    Res =  0.2170E+01
 MRCHDU: Convergence failed at  63  side 1    Res =  0.2516E+01
 MRCHDU: Convergence failed at  66  side 1    Res =  0.5150E+02
 MRCHDU: Convergence failed at  67  side 1    Res =  0.1243E+02
 MRCHDU: Convergence failed at  68  side 1    Res =  0.5905E+01
 MRCHDU: Convergence failed at  69  side 1    Res =  0.3411E+01
 MRCHDU: Convergence failed at  70  side 1    Res =  0.2621E+01
 MRCHDU: Convergence failed at  71  side 1    Res =  0.1889E+01
 MRCHDU: Convergence failed at  72  side 1    Res =  0.2065E+01
 MRCHDU: Convergence failed at  73  side 1    Res =  0.2389E+01
 MRCHDU: Convergence failed at  74  side 1    Res =  0.3927E+01
 MRCHDU: Convergence failed at  75  side 1    Res =  0.8295E+01
 MRCHDU: Convergence failed at  76  side 1    Res =  0.7711E+00
 MRCHDU: Convergence failed at  77  side 1    Res =  0.5123E+00
 MRCHDU: Convergence failed at  78  side 1    Res =  0.3071E+01
 MRCHDU: Convergence failed at  79  side 1    Res =  0.2126E+01
 MRCHDU: Convergence failed at  80  side 1    Res =  0.1746E+01
 MRCHDU: Convergence failed at  82  side 1    Res =  0.7304E+00
 MRCHDU: Convergence failed at  83  side 1    Res =  0.9844E+00
 MRCHDU: Convergence failed at  87  side 1    Res =  0.5539E-03
 Side 1  free  transition at x/c =  0.0159   31
 Side 2 forced transition at x/c =  1.0000   62

  11   rms: 0.5592E+00   max: 0.2740E+01   D at   64  1   RLX: 0.547
       a = 21.750      CL =  1.4650
      Cm = -0.0925     CD =  0.12770   =>   CDf =  0.00200    CDp =  0.12571

 MRCHDU: Convergence failed at  65  side 1    Res =  0.1414E+02
 Side 1  free  transition at x/c =  0.0155   32
 Side 2 forced transition at x/c =  1.0000   61
 idif Ue xi dudx           1  9.83324647E-02  1.17030144E-02   8.4023190    
 Uenew xinew           2  1.38095347E-02  1.64353848E-03

  12   rms: 0.1696E+01   max: -.7207E+01   D at    2  1   RLX: 0.069
       a = 21.750      CL =  1.4979
      Cm = -0.1362     CD =  0.14906   =>   CDf =  0.00210    CDp =  0.14696

 Side 1  free  transition at x/c =  0.0155   31
 Side 2 forced transition at x/c =  1.0000   62
 idif Ue xi dudx           1  8.97774324E-02  9.57107544E-03   9.3800774    
 Uenew xinew           2  9.08195879E-03  9.68217850E-04

  13   rms: 0.1058E+01   max: 0.2804E+01   D at   54  1   RLX: 0.288
       a = 21.750      CL =  1.2933
      Cm = -0.1281     CD =  0.20373   =>   CDf =  0.00204    CDp =  0.20169

 Side 1  free  transition at x/c =  0.0155   30
 Side 2 forced transition at x/c =  1.0000   63

  14   rms: 0.3780E+00   max: 0.1471E+01   D at   47  1   RLX: 0.711
       a = 21.750      CL =  1.1549
      Cm = -0.0399     CD =  0.16537   =>   CDf =  0.00233    CDp =  0.16304

 Side 1  free  transition at x/c =  0.0147   30
 Side 2 forced transition at x/c =  1.0000   62
 idif Ue xi dudx           1  9.72691029E-02  9.87517834E-03   9.8498583    
 Uenew xinew           2  1.25321792E-02  1.27232075E-03

  15   rms: 0.4945E+00   max: 0.1961E+01   D at   48  1   RLX: 0.428
       a = 21.750      CL =  1.0901
      Cm = -0.0576     CD =  0.20168   =>   CDf =  0.00278    CDp =  0.19891

 MRCHDU: Convergence failed at  44  side 1    Res =  0.8166E+00
 MRCHDU: Convergence failed at  45  side 1    Res =  0.1145E+01
 MRCHDU: Convergence failed at  46  side 1    Res =  0.1795E+01
 MRCHDU: Convergence failed at  47  side 1    Res =  0.4712E+01
 MRCHDU: Convergence failed at  48  side 1    Res =  0.1243E+01
 MRCHDU: Convergence failed at  49  side 1    Res =  0.2548E+01
 MRCHDU: Convergence failed at  50  side 1    Res =  0.2155E+02
 MRCHDU: Convergence failed at  51  side 1    Res =  0.6507E+00
 Side 1  free  transition at x/c =  0.0150   29
 Side 2 forced transition at x/c =  1.0000   63

  16   rms: 0.2532E+00   max: 0.1517E+01   D at   51  1   RLX: 0.989
       a = 21.750      CL =  1.0587
      Cm = -0.0436     CD =  0.20246   =>   CDf =  0.00219    CDp =  0.20027

 Side 1  free  transition at x/c =  0.0151   29
 Side 2 forced transition at x/c =  1.0000   63

  17   rms: 0.3269E+00   max: -.2328E+01   T at   29  1   RLX: 0.215
       a = 21.750      CL =  1.0182
      Cm = -0.0161     CD =  0.16682   =>   CDf =  0.00278    CDp =  0.16404

 Side 1  free  transition at x/c =  0.0150   29
 Side 2 forced transition at x/c =  1.0000   63

  18   rms: 0.2687E+00   max: 0.1557E+01   D at   49  1   RLX: 0.963
       a = 21.750      CL =  1.0776
      Cm = -0.0362     CD =  0.20092   =>   CDf =  0.00254    CDp =  0.19839

 MRCHDU: Convergence failed at  50  side 1    Res =  0.1097E+01
 Side 1  free  transition at x/c =  0.0147   30
 Side 2 forced transition at x/c =  1.0000   62

  19   rms: 0.4694E+00   max: 0.6168E+01   T at   30  1   RLX: 0.157
       a = 21.750      CL =  1.0852
      Cm = -0.0321     CD =  0.16422   =>   CDf =  0.00256    CDp =  0.16166

 Side 1  free  transition at x/c =  0.0140   30
 Side 2 forced transition at x/c =  1.0000   62
 idif Ue xi dudx           1  0.12597947      1.28551722E-02   9.7999048    
 Uenew xinew           2  4.16722782E-02  4.25231457E-03

  20   rms: 0.2754E+00   max: 0.1164E+01   D at   51  1   RLX: 0.951
       a = 21.750      CL =  1.0143
      Cm = -0.0598     CD =  0.23317   =>   CDf =  0.00275    CDp =  0.23042

 MRCHDU: Convergence failed at  41  side 1    Res =  0.2244E+01
 MRCHDU: Convergence failed at  42  side 1    Res =  0.2389E+01
 MRCHDU: Convergence failed at  43  side 1    Res =  0.1543E+02
 MRCHDU: Convergence failed at  44  side 1    Res =  0.3281E+01
 MRCHDU: Convergence failed at  45  side 1    Res =  0.1643E+01
 MRCHDU: Convergence failed at  46  side 1    Res =  0.1985E+03
 Side 1  free  transition at x/c =  0.0145   29
 Side 2 forced transition at x/c =  1.0000   63

  21   rms: 0.1614E+00   max: 0.1007E+01   D at   46  1
       a = 21.750      CL =  1.0325
      Cm = -0.0471     CD =  0.18970   =>   CDf =  0.00221    CDp =  0.18749

 Side 1  free  transition at x/c =  0.0144   29
 Side 2 forced transition at x/c =  1.0000   63

  22   rms: 0.1757E+00   max: -.7079E+00   D at   40  1   RLX: 0.706
       a = 21.750      CL =  1.0857
      Cm = -0.0495     CD =  0.17546   =>   CDf =  0.00213    CDp =  0.17333

 Side 1  free  transition at x/c =  0.0139   29
 Side 2 forced transition at x/c =  1.0000   63
 idif Ue xi dudx           1  9.86397862E-02  8.87084007E-03   11.119555    
 Uenew xinew           2  1.75516624E-02  1.57845020E-03

  23   rms: 0.3713E+01   max: 0.1573E+02   D at   46  1   RLX: 0.095
       a = 21.750      CL =  0.9947
      Cm = -0.0794     CD =  0.25851   =>   CDf =  0.00259    CDp =  0.25592

 MRCHDU: Convergence failed at  38  side 1    Res =  0.1714E+01
 MRCHDU: Convergence failed at  39  side 1    Res =  0.5017E+01
 MRCHDU: Convergence failed at  40  side 1    Res =  0.3311E+01
 MRCHDU: Convergence failed at  41  side 1    Res =  0.1126E+01
 MRCHDU: Convergence failed at  42  side 1    Res =  0.2198E+01
 MRCHDU: Convergence failed at  43  side 1    Res =  0.7769E+02
 MRCHDU: Convergence failed at  44  side 1    Res =  0.1794E+01
 Side 1  free  transition at x/c =  0.0151   28
 Side 2 forced transition at x/c =  1.0000   64

  24   rms: 0.2142E+00   max: 0.1053E+01   D at   44  1
       a = 21.750      CL =  1.0056
      Cm = -0.0489     CD =  0.18244   =>   CDf =  0.00207    CDp =  0.18037

 MRCHDU: Convergence failed at  43  side 1    Res =  0.1454E+01
 MRCHDU: Convergence failed at  44  side 1    Res =  0.3777E+01
 MRCHDU: Convergence failed at  45  side 1    Res =  0.5984E+01
 MRCHDU: Convergence failed at  46  side 1    Res =  0.1344E+01
 Side 1  free  transition at x/c =  0.0149   29
 Side 2 forced transition at x/c =  1.0000   63

  25   rms: 0.1616E+00   max: 0.8734E+00   D at   46  1
       a = 21.750      CL =  1.0072
      Cm = -0.0527     CD =  0.19737   =>   CDf =  0.00208    CDp =  0.19529

 Side 1  free  transition at x/c =  0.0149   29
 Side 2 forced transition at x/c =  1.0000   63
 idif Ue xi dudx           1  9.00838301E-02  8.14104080E-03   11.065394    
 Uenew xinew           2  9.39065684E-03  8.48650932E-04

  26   rms: 0.1923E+00   max: -.8375E+00   T at   29  1   RLX: 0.597
       a = 21.750      CL =  0.9981
      Cm = -0.0676     CD =  0.22576   =>   CDf =  0.00228    CDp =  0.22347

 Side 1  free  transition at x/c =  0.0154   29
 Side 2 forced transition at x/c =  1.0000   64

  27   rms: 0.4133E+00   max: 0.1323E+01   T at    2  2   RLX: 0.623
       a = 21.750      CL =  1.0258
      Cm = -0.0252     CD =  0.17568   =>   CDf =  0.00251    CDp =  0.17317

 Side 1  free  transition at x/c =  0.0145   29
 Side 2 forced transition at x/c =  1.0000   63

  28   rms: 0.1674E+00   max: 0.9861E+00   D at   44  1
       a = 21.750      CL =  1.0813
      Cm = -0.0441     CD =  0.19688   =>   CDf =  0.00245    CDp =  0.19443

 Side 1  free  transition at x/c =  0.0139   30
 Side 2 forced transition at x/c =  1.0000   62

  29   rms: 0.1149E+00   max: 0.7232E+00   D at   47  1
       a = 21.750      CL =  1.0765
      Cm = -0.0443     CD =  0.19474   =>   CDf =  0.00273    CDp =  0.19201

 MRCHDU: Convergence failed at  47  side 1    Res =  0.2023E+01
 Side 1  free  transition at x/c =  0.0139   30
 Side 2 forced transition at x/c =  1.0000   62
 idif Ue xi dudx           2  0.16506514      1.68162584E-02   9.8158064    
 Uenew xinew           3  8.06211531E-02  8.21340084E-03

  30   rms: 0.2944E+01   max: 0.1182E+02   D at   45  1   RLX: 0.123
       a = 21.750      CL =  1.0403
      Cm = -0.0874     CD =  0.24556   =>   CDf =  0.00277    CDp =  0.24279

 MRCHDU: Convergence failed at  38  side 1    Res =  0.1444E+02
 MRCHDU: Convergence failed at  39  side 1    Res =  0.5695E+01
 MRCHDU: Convergence failed at  40  side 1    Res =  0.2048E+01
 MRCHDU: Convergence failed at  41  side 1    Res =  0.1443E+01
 MRCHDU: Convergence failed at  42  side 1    Res =  0.1026E+02
 MRCHDU: Convergence failed at  43  side 1    Res =  0.1833E+01
 Side 1  free  transition at x/c =  0.0152   29
 Side 2 forced transition at x/c =  1.0000   64

  31   rms: 0.1771E+00   max: 0.9843E+00   D at   43  1
       a = 21.750      CL =  0.9985
      Cm = -0.0519     CD =  0.20356   =>   CDf =  0.00193    CDp =  0.20162

 Side 1  free  transition at x/c =  0.0159   30
 Side 2 forced transition at x/c =  1.0000   63
 idif Ue xi dudx           1  9.79490578E-02  8.78572464E-03   11.148660    
 Uenew xinew           2  1.66486818E-02  1.49333477E-03

  32   rms: 0.1607E+00   max: 0.9962E+00   D at   44  1
       a = 21.750      CL =  0.9692
      Cm = -0.0647     CD =  0.23457   =>   CDf =  0.00222    CDp =  0.23235

 Side 1  free  transition at x/c =  0.0152   29
 Side 2 forced transition at x/c =  1.0000   64

  33   rms: 0.1221E+00   max: -.3898E+00   D at   43  1
       a = 21.750      CL =  0.9871
      Cm = -0.0567     CD =  0.20557   =>   CDf =  0.00192    CDp =  0.20365

 Side 1  free  transition at x/c =  0.0148   29
 Side 2 forced transition at x/c =  1.0000   63

  34   rms: 0.1513E+00   max: 0.7600E+00   T at   29  1
       a = 21.750      CL =  1.0492
      Cm = -0.0468     CD =  0.18663   =>   CDf =  0.00234    CDp =  0.18428

 Side 1  free  transition at x/c =  0.0141   29
 Side 2 forced transition at x/c =  1.0000   63

  35   rms: 0.8013E-01   max: 0.5926E+00   D at   44  1
       a = 21.750      CL =  1.0619
      Cm = -0.0453     CD =  0.19094   =>   CDf =  0.00249    CDp =  0.18845

 Side 1  free  transition at x/c =  0.0141   29
 Side 2 forced transition at x/c =  1.0000   63

  36   rms: 0.2359E+00   max: -.9418E+00   D at   42  1   RLX: 0.531
       a = 21.750      CL =  1.1254
      Cm = -0.0452     CD =  0.16531   =>   CDf =  0.00193    CDp =  0.16337

 Side 1  free  transition at x/c =  0.0137   30
 Side 2 forced transition at x/c =  1.0000   62
 idif Ue xi dudx           1  0.15151422      1.54230595E-02   9.8238754    
 Uenew xinew           2  6.70008138E-02  6.82020187E-03

  37   rms: 0.6899E+00   max: 0.2874E+01   D at   49  1   RLX: 0.522
       a = 21.750      CL =  1.0086
      Cm = -0.0733     CD =  0.24388   =>   CDf =  0.00272    CDp =  0.24117

 MRCHDU: Convergence failed at  39  side 1    Res =  0.7825E+00
 MRCHDU: Convergence failed at  40  side 1    Res =  0.1444E+01
 MRCHDU: Convergence failed at  41  side 1    Res =  0.2985E+01
 MRCHDU: Convergence failed at  42  side 1    Res =  0.4399E+02
 MRCHDU: Convergence failed at  43  side 1    Res =  0.3212E+01
 MRCHDU: Convergence failed at  44  side 1    Res =  0.1888E+01
 MRCHDU: Convergence failed at  45  side 1    Res =  0.3212E+01
 MRCHDU: Convergence failed at  46  side 1    Res =  0.2277E+02
 MRCHDU: Convergence failed at  47  side 1    Res =  0.2774E+01
 MRCHDU: Convergence failed at  48  side 1    Res =  0.1664E+01
 Side 1  free  transition at x/c =  0.0149   29
 Side 2 forced transition at x/c =  1.0000   63

  38   rms: 0.2855E+00   max: 0.1385E+01   D at   48  1
       a = 21.750      CL =  1.0543
      Cm = -0.0415     CD =  0.17671   =>   CDf =  0.00223    CDp =  0.17448

 Side 1  free  transition at x/c =  0.0147   29
 Side 2 forced transition at x/c =  1.0000   63

  39   rms: 0.6854E+00   max: 0.2718E+01   D at   48  1   RLX: 0.236
       a = 21.750      CL =  1.1061
      Cm = -0.0935     CD =  0.22033   =>   CDf =  0.00209    CDp =  0.21824

 MRCHDU: Convergence failed at  47  side 1    Res =  0.3245E+01
 Side 1  free  transition at x/c =  0.0149   29
 Side 2 forced transition at x/c =  1.0000   63
 idif Ue xi dudx           1  9.97189954E-02  8.93402100E-03   11.161715    
 Uenew xinew           2  1.83234178E-02  1.64163113E-03

  40   rms: 0.1263E+00   max: 0.1057E+01   D at   48  1
       a = 21.750      CL =  0.9627
      Cm = -0.0623     CD =  0.22148   =>   CDf =  0.00229    CDp =  0.21919

 Side 1  free  transition at x/c =  0.0153   29
 Side 2 forced transition at x/c =  1.0000   64

  41   rms: 0.3383E+00   max: 0.9750E+00   D at   41  1   RLX: 0.845
       a = 21.750      CL =  1.0411
      Cm = -0.0345     CD =  0.18148   =>   CDf =  0.00229    CDp =  0.17919

 Side 1  free  transition at x/c =  0.0145   29
 Side 2 forced transition at x/c =  1.0000   63

  42   rms: 0.2287E+00   max: 0.1139E+01   D at   47  1
       a = 21.750      CL =  1.0183
      Cm = -0.0571     CD =  0.22419   =>   CDf =  0.00259    CDp =  0.22160

 MRCHDU: Convergence failed at  42  side 1    Res =  0.5901E+01
 Side 1  free  transition at x/c =  0.0145   29
 Side 2 forced transition at x/c =  1.0000   63
 idif Ue xi dudx           1  9.22437981E-02  8.31997395E-03   11.087029    
 Uenew xinew           2  1.13928551E-02  1.02758408E-03

  43   rms: 0.3390E+00   max: 0.1861E+01   D at   46  1   RLX: 0.647
       a = 21.750      CL =  0.9529
      Cm = -0.0595     CD =  0.23747   =>   CDf =  0.00253    CDp =  0.23494

 Side 1  free  transition at x/c =  0.0151   28
 Side 2 forced transition at x/c =  1.0000   64

  44   rms: 0.4701E-01   max: 0.2913E+00   D at   41  1
       a = 21.750      CL =  0.9662
      Cm = -0.0597     CD =  0.21891   =>   CDf =  0.00215    CDp =  0.21676

 Side 1  free  transition at x/c =  0.0151   28
 Side 2 forced transition at x/c =  1.0000   64

  45   rms: 0.2437E+00   max: 0.2104E+01   T at   28  1   RLX: 0.364
       a = 21.750      CL =  0.9271
      Cm = -0.0324     CD =  0.20058   =>   CDf =  0.00211    CDp =  0.19847

 Side 1  free  transition at x/c =  0.0146   29
 Side 2 forced transition at x/c =  1.0000   63
 idif Ue xi dudx           1  0.12975751      1.14809275E-02   11.302006    
 Uenew xinew           2  4.73388769E-02  4.18853760E-03

  46   rms: 0.4630E+00   max: 0.2606E+01   D at   41  1   RLX: 0.576
       a = 21.750      CL =  0.9274
      Cm = -0.0658     CD =  0.25038   =>   CDf =  0.00239    CDp =  0.24799

 Side 1  free  transition at x/c =  0.0164   29
 Side 2 forced transition at x/c =  1.0000   64

  47   rms: 0.2232E+00   max: 0.8390E+00   T at   29  1
       a = 21.750      CL =  0.9932
      Cm = -0.0584     CD =  0.21527   =>   CDf =  0.00194    CDp =  0.21333

 Side 1  free  transition at x/c =  0.0149   29
 Side 2 forced transition at x/c =  1.0000   63

  48   rms: 0.2454E+00   max: 0.1038E+01   T at   29  1   RLX: 0.548
       a = 21.750      CL =  1.0597
      Cm = -0.0603     CD =  0.18402   =>   CDf =  0.00213    CDp =  0.18190

 Side 1  free  transition at x/c =  0.0143   29
 Side 2 forced transition at x/c =  1.0000   63

  49   rms: 0.1170E+00   max: -.4947E+00   D at   40  1
       a = 21.750      CL =  1.0520
      Cm = -0.0443     CD =  0.16986   =>   CDf =  0.00219    CDp =  0.16767

 Side 1  free  transition at x/c =  0.0140   29
 Side 2 forced transition at x/c =  1.0000   63

  50   rms: 0.2064E+01   max: -.8456E+01   D at   44  1   RLX: 0.059
       a = 21.750      CL =  1.1240
      Cm = -0.0429     CD =  0.17352   =>   CDf =  0.00203    CDp =  0.17149

 Side 1  free  transition at x/c =  0.0136   30
 Side 2 forced transition at x/c =  1.0000   62
 idif Ue xi dudx           1  0.12389443      1.25795603E-02   9.8488684    
 Uenew xinew           2  3.91660221E-02  3.97670269E-03

  51   rms: 0.2507E+00   max: 0.1073E+01   D at   49  1
       a = 21.750      CL =  1.0131
      Cm = -0.0557     CD =  0.20963   =>   CDf =  0.00282    CDp =  0.20681

 MRCHDU: Convergence failed at  44  side 1    Res =  0.1093E+01
 MRCHDU: Convergence failed at  45  side 1    Res =  0.6492E+00
 Side 1  free  transition at x/c =  0.0145   29
 Side 2 forced transition at x/c =  1.0000   63

  52   rms: 0.4935E+00   max: -.1988E+01   D at   40  1   RLX: 0.251
       a = 21.750      CL =  1.1097
      Cm = -0.0652     CD =  0.17651   =>   CDf =  0.00217    CDp =  0.17434

 Side 1  free  transition at x/c =  0.0141   29
 Side 2 forced transition at x/c =  1.0000   63

  53   rms: 0.6511E-01   max: 0.7708E+00   D at   47  1
       a = 21.750      CL =  1.0659
      Cm = -0.0427     CD =  0.17872   =>   CDf =  0.00239    CDp =  0.17634

 Side 1  free  transition at x/c =  0.0140   29
 Side 2 forced transition at x/c =  1.0000   63

  54   rms: 0.1328E+02   max: -.5208E+02   D at   47  1   RLX: 0.010
       a = 21.750      CL =  1.1479
      Cm = -0.0447     CD =  0.16410   =>   CDf =  0.00201    CDp =  0.16210

 Side 1  free  transition at x/c =  0.0136   30
 Side 2 forced transition at x/c =  1.0000   62
 idif Ue xi dudx           1  0.14311112      1.45422220E-02   9.8410769    
 Uenew xinew           2  5.84497415E-02  5.93936443E-03

  55   rms: 0.4259E+00   max: 0.1819E+01   D at   50  1   RLX: 0.825
       a = 21.750      CL =  0.9969
      Cm = -0.0654     CD =  0.23559   =>   CDf =  0.00280    CDp =  0.23279

 MRCHDU: Convergence failed at  40  side 1    Res =  0.7671E+00
 MRCHDU: Convergence failed at  41  side 1    Res =  0.1171E+01
 MRCHDU: Convergence failed at  42  side 1    Res =  0.2120E+01
 MRCHDU: Convergence failed at  43  side 1    Res =  0.6497E+01
 MRCHDU: Convergence failed at  44  side 1    Res =  0.4177E+01
 MRCHDU: Convergence failed at  45  side 1    Res =  0.1749E+01
 MRCHDU: Convergence failed at  46  side 1    Res =  0.2569E+01
 MRCHDU: Convergence failed at  47  side 1    Res =  0.4880E+01
 MRCHDU: Convergence failed at  48  side 1    Res =  0.6228E+01
 MRCHDU: Convergence failed at  49  side 1    Res =  0.1443E+01
 Side 1  free  transition at x/c =  0.0148   29
 Side 2 forced transition at x/c =  1.0000   63

  56   rms: 0.2761E+00   max: 0.1384E+01   D at   49  1
       a = 21.750      CL =  1.0686
      Cm = -0.0394     CD =  0.17333   =>   CDf =  0.00224    CDp =  0.17109

 MRCHDU: Convergence failed at  49  side 1    Res =  0.1214E+01
 Side 1  free  transition at x/c =  0.0145   29
 Side 2 forced transition at x/c =  1.0000   63

  57   rms: 0.8688E+00   max: -.3042E+01   D at   42  1   RLX: 0.164
       a = 21.750      CL =  1.2782
      Cm = -0.0945     CD =  0.16819   =>   CDf =  0.00176    CDp =  0.16643

 Side 1  free  transition at x/c =  0.0138   30
 Side 2 forced transition at x/c =  1.0000   62
 idif Ue xi dudx           1  9.33496803E-02  9.61279869E-03   9.7109785    
 Uenew xinew           2  9.80751589E-03  1.00994110E-03

  58   rms: 0.1578E+00   max: 0.7252E+00   D at   50  1
       a = 21.750      CL =  1.0514
      Cm = -0.0464     CD =  0.18107   =>   CDf =  0.00242    CDp =  0.17865

 Side 1  free  transition at x/c =  0.0141   29
 Side 2 forced transition at x/c =  1.0000   63

  59   rms: 0.7410E+00   max: -.2772E+01   D at   45  1   RLX: 0.180
       a = 21.750      CL =  1.0994
      Cm = -0.0346     CD =  0.16528   =>   CDf =  0.00203    CDp =  0.16325

 Side 1  free  transition at x/c =  0.0136   30
 Side 2 forced transition at x/c =  1.0000   62
 idif Ue xi dudx           1  0.10360096      1.05986595E-02   9.7749119    
 Uenew xinew           2  1.95087884E-02  1.99580193E-03

  60   rms: 0.1843E+00   max: 0.1133E+01   D at   50  1
       a = 21.750      CL =  1.0410
      Cm = -0.0499     CD =  0.19985   =>   CDf =  0.00281    CDp =  0.19704

 Side 1  free  transition at x/c =  0.0142   29
 Side 2 forced transition at x/c =  1.0000   63

  61   rms: 0.2169E+00   max: -.8601E+00   D at   41  1   RLX: 0.581
       a = 21.750      CL =  1.0952
      Cm = -0.0440     CD =  0.16942   =>   CDf =  0.00193    CDp =  0.16749

 Side 1  free  transition at x/c =  0.0138   30
 Side 2 forced transition at x/c =  1.0000   62
 idif Ue xi dudx           1  0.14834373      1.50372982E-02   9.8650522    
 Uenew xinew           2  6.34760931E-02  6.43444061E-03

  62   rms: 0.5949E+00   max: 0.2652E+01   D at   49  1   RLX: 0.494
       a = 21.750      CL =  1.0054
      Cm = -0.0694     CD =  0.23524   =>   CDf =  0.00266    CDp =  0.23258

 MRCHDU: Convergence failed at  41  side 1    Res =  0.2054E+01
 MRCHDU: Convergence failed at  42  side 1    Res =  0.1772E+01
 MRCHDU: Convergence failed at  43  side 1    Res =  0.1302E+01
 MRCHDU: Convergence failed at  44  side 1    Res =  0.1703E+01
 MRCHDU: Convergence failed at  45  side 1    Res =  0.4004E+01
 MRCHDU: Convergence failed at  46  side 1    Res =  0.2955E+01
 MRCHDU: Convergence failed at  47  side 1    Res =  0.1302E+01
 Side 1  free  transition at x/c =  0.0148   29
 Side 2 forced transition at x/c =  1.0000   63

  63   rms: 0.1774E+00   max: 0.1198E+01   D at   47  1
       a = 21.750      CL =  1.0246
      Cm = -0.0481     CD =  0.19107   =>   CDf =  0.00219    CDp =  0.18888

 Side 1  free  transition at x/c =  0.0147   29
 Side 2 forced transition at x/c =  1.0000   63

  64   rms: 0.1521E+01   max: -.5192E+01   D at   42  1   RLX: 0.096
       a = 21.750      CL =  1.1606
      Cm = -0.0742     CD =  0.17614   =>   CDf =  0.00205    CDp =  0.17409

 Side 1  free  transition at x/c =  0.0141   29
 Side 2 forced transition at x/c =  1.0000   63

  65   rms: 0.1305E+00   max: 0.6864E+00   D at   47  1
       a = 21.750      CL =  1.0246
      Cm = -0.0515     CD =  0.19193   =>   CDf =  0.00214    CDp =  0.18979

 Side 1  free  transition at x/c =  0.0143   29
 Side 2 forced transition at x/c =  1.0000   63

  66   rms: 0.1924E+00   max: -.7365E+00   D at   41  1   RLX: 0.679
       a = 21.750      CL =  1.0685
      Cm = -0.0411     CD =  0.17326   =>   CDf =  0.00196    CDp =  0.17130

 Side 1  free  transition at x/c =  0.0139   30
 Side 2 forced transition at x/c =  1.0000   62
 idif Ue xi dudx           1  9.38161835E-02  9.58526134E-03   9.7875462    
 Uenew xinew           2  9.61532164E-03  9.82403755E-04

  67   rms: 0.4046E+00   max: -.3242E+01   D at    2  1   RLX: 0.154
       a = 21.750      CL =  1.0848
      Cm = -0.0543     CD =  0.19654   =>   CDf =  0.00264    CDp =  0.19390

 Side 1  free  transition at x/c =  0.0141   29
 Side 2 forced transition at x/c =  1.0000   63

  68   rms: 0.3390E+00   max: -.1348E+01   D at   43  1   RLX: 0.371
       a = 21.750      CL =  1.1166
      Cm = -0.0436     CD =  0.16782   =>   CDf =  0.00199    CDp =  0.16583

 Side 1  free  transition at x/c =  0.0137   30
 Side 2 forced transition at x/c =  1.0000   62
 idif Ue xi dudx           1  0.14972225      1.52490139E-02   9.8184872    
 Uenew xinew           2  6.52552024E-02  6.64615631E-03

  69   rms: 0.3541E+00   max: 0.1574E+01   D at   48  1   RLX: 0.953
       a = 21.750      CL =  0.9839
      Cm = -0.0640     CD =  0.23237   =>   CDf =  0.00276    CDp =  0.22961

 MRCHDU: Convergence failed at  39  side 1    Res =  0.7517E+00
 MRCHDU: Convergence failed at  40  side 1    Res =  0.1188E+01
 MRCHDU: Convergence failed at  41  side 1    Res =  0.2747E+01
 MRCHDU: Convergence failed at  42  side 1    Res =  0.1614E+02
 MRCHDU: Convergence failed at  43  side 1    Res =  0.2661E+01
 MRCHDU: Convergence failed at  44  side 1    Res =  0.1774E+01
 MRCHDU: Convergence failed at  45  side 1    Res =  0.3181E+01
 MRCHDU: Convergence failed at  46  side 1    Res =  0.9254E+02
 MRCHDU: Convergence failed at  47  side 1    Res =  0.3614E+01
 Side 1  free  transition at x/c =  0.0148   29
 Side 2 forced transition at x/c =  1.0000   63

  70   rms: 0.2585E+00   max: 0.1300E+01   D at   47  1
       a = 21.750      CL =  1.0441
      Cm = -0.0439     CD =  0.17990   =>   CDf =  0.00223    CDp =  0.17767

 MRCHDU: Convergence failed at  47  side 1    Res =  0.1796E+02
 Side 1  free  transition at x/c =  0.0146   29
 Side 2 forced transition at x/c =  1.0000   63

  71   rms: 0.1529E+01   max: -.5572E+01   D at   45  1   RLX: 0.090
       a = 21.750      CL =  1.2443
      Cm = -0.0924     CD =  0.17426   =>   CDf =  0.00180    CDp =  0.17246

 Side 1  free  transition at x/c =  0.0139   30
 Side 2 forced transition at x/c =  1.0000   62
 idif Ue xi dudx           1  9.64783579E-02  9.90378857E-03   9.7415609    
 Uenew xinew           2  1.26730986E-02  1.30093098E-03

  72   rms: 0.1267E+00   max: 0.3352E+00   D at   49  1
       a = 21.750      CL =  1.0472
      Cm = -0.0468     CD =  0.18053   =>   CDf =  0.00242    CDp =  0.17811

 Side 1  free  transition at x/c =  0.0141   29
 Side 2 forced transition at x/c =  1.0000   63

  73   rms: 0.1036E+01   max: -.3992E+01   D at   45  1   RLX: 0.125
       a = 21.750      CL =  1.0944
      Cm = -0.0361     CD =  0.16853   =>   CDf =  0.00202    CDp =  0.16651

 Side 1  free  transition at x/c =  0.0137   30
 Side 2 forced transition at x/c =  1.0000   62
 idif Ue xi dudx           1  0.13214915      1.34245157E-02   9.8438673    
 Uenew xinew           2  4.74637635E-02  4.82165813E-03

  74   rms: 0.2748E+00   max: 0.1289E+01   D at   48  1
       a = 21.750      CL =  1.0025
      Cm = -0.0585     CD =  0.22001   =>   CDf =  0.00279    CDp =  0.21721

 MRCHDU: Convergence failed at  41  side 1    Res =  0.2624E+01
 MRCHDU: Convergence failed at  42  side 1    Res =  0.5783E+01
 MRCHDU: Convergence failed at  43  side 1    Res =  0.3837E+01
 MRCHDU: Convergence failed at  44  side 1    Res =  0.1700E+01
 MRCHDU: Convergence failed at  45  side 1    Res =  0.1593E+01
 MRCHDU: Convergence failed at  46  side 1    Res =  0.3971E+01
 MRCHDU: Convergence failed at  47  side 1    Res =  0.1669E+02
 Side 1  free  transition at x/c =  0.0146   29
 Side 2 forced transition at x/c =  1.0000   63

  75   rms: 0.1812E+00   max: 0.1121E+01   D at   47  1
       a = 21.750      CL =  1.0423
      Cm = -0.0457     CD =  0.18661   =>   CDf =  0.00221    CDp =  0.18440

 Side 1  free  transition at x/c =  0.0144   29
 Side 2 forced transition at x/c =  1.0000   63

  76   rms: 0.1563E+00   max: -.6656E+00   D at   39  1   RLX: 0.751
       a = 21.750      CL =  1.0865
      Cm = -0.0508     CD =  0.17738   =>   CDf =  0.00210    CDp =  0.17528

 Side 1  free  transition at x/c =  0.0140   29
 Side 2 forced transition at x/c =  1.0000   63

  77   rms: 0.1860E+01   max: -.7431E+01   D at   45  1   RLX: 0.067
       a = 21.750      CL =  1.1493
      Cm = -0.0458     CD =  0.16687   =>   CDf =  0.00202    CDp =  0.16486

 Side 1  free  transition at x/c =  0.0136   30
 Side 2 forced transition at x/c =  1.0000   62
 idif Ue xi dudx           1  0.13947476      1.41801834E-02   9.8358927    
 Uenew xinew           2  5.48579767E-02  5.57732582E-03

  78   rms: 0.3314E+00   max: 0.1403E+01   D at   49  1
       a = 21.750      CL =  0.9914
      Cm = -0.0605     CD =  0.22412   =>   CDf =  0.00282    CDp =  0.22130

 MRCHDU: Convergence failed at  41  side 1    Res =  0.2310E+01
 MRCHDU: Convergence failed at  42  side 1    Res =  0.4379E+01
 MRCHDU: Convergence failed at  43  side 1    Res =  0.1382E+02
 MRCHDU: Convergence failed at  44  side 1    Res =  0.3468E+01
 MRCHDU: Convergence failed at  45  side 1    Res =  0.2133E+01
 MRCHDU: Convergence failed at  46  side 1    Res =  0.2319E+01
 MRCHDU: Convergence failed at  47  side 1    Res =  0.1382E+02
 MRCHDU: Convergence failed at  48  side 1    Res =  0.2285E+01
 Side 1  free  transition at x/c =  0.0147   29
 Side 2 forced transition at x/c =  1.0000   63

  79   rms: 0.2097E+00   max: 0.1223E+01   D at   48  1
       a = 21.750      CL =  1.0500
      Cm = -0.0436     CD =  0.18261   =>   CDf =  0.00221    CDp =  0.18040

 Side 1  free  transition at x/c =  0.0145   29
 Side 2 forced transition at x/c =  1.0000   63

  80   rms: 0.2103E+00   max: -.8842E+00   D at   39  1   RLX: 0.565
       a = 21.750      CL =  1.1231
      Cm = -0.0608     CD =  0.17727   =>   CDf =  0.00205    CDp =  0.17522

 Side 1  free  transition at x/c =  0.0140   29
 Side 2 forced transition at x/c =  1.0000   63

  81   rms: 0.2867E+00   max: -.1088E+01   D at   42  1   RLX: 0.459
       a = 21.750      CL =  1.1557
      Cm = -0.0475     CD =  0.16322   =>   CDf =  0.00196    CDp =  0.16126

 Side 1  free  transition at x/c =  0.0136   30
 Side 2 forced transition at x/c =  1.0000   62
 idif Ue xi dudx           1  0.14472313      1.47325993E-02   9.8233261    
 Uenew xinew           2  6.02144524E-02  6.12974167E-03

  82   rms: 0.4894E+00   max: 0.2029E+01   D at   49  1   RLX: 0.721
       a = 21.750      CL =  1.0052
      Cm = -0.0687     CD =  0.23459   =>   CDf =  0.00277    CDp =  0.23181

 MRCHDU: Convergence failed at  40  side 1    Res =  0.2486E+01
 MRCHDU: Convergence failed at  41  side 1    Res =  0.1941E+01
 MRCHDU: Convergence failed at  42  side 1    Res =  0.4952E+01
 MRCHDU: Convergence failed at  43  side 1    Res =  0.1161E+02
 MRCHDU: Convergence failed at  44  side 1    Res =  0.3357E+01
 MRCHDU: Convergence failed at  45  side 1    Res =  0.1876E+01
 MRCHDU: Convergence failed at  46  side 1    Res =  0.2727E+01
 MRCHDU: Convergence failed at  47  side 1    Res =  0.9829E+01
 MRCHDU: Convergence failed at  48  side 1    Res =  0.3115E+01
 MRCHDU: Convergence failed at  49  side 1    Res =  0.4165E+01
 Side 1  free  transition at x/c =  0.0148   29
 Side 2 forced transition at x/c =  1.0000   63

  83   rms: 0.2730E+00   max: 0.1405E+01   D at   49  1
       a = 21.750      CL =  1.0662
[...]
 Side 2 forced transition at x/c =  1.0000   62
 idif Ue xi dudx           1  0.11359157      1.18203163E-02   9.6098595    
 Uenew xinew           2  3.09193265E-02  3.21745872E-03

  98   rms: 0.2403E+01   max: 0.1609E+02   C at   62  2   RLX: 0.093
       a = 21.750      CL =  3.8746
      Cm = -0.8622     CD =  1.06369   =>   CDf =  0.00285    CDp =  1.06083

 Side 1  free  transition at x/c =  0.0239   32
 Side 2 forced transition at x/c =  1.0000   63

  99   rms: 0.1996E+01   max: 0.1196E+02   C at   63  2   RLX: 0.103
       a = 21.750      CL =  3.3857
      Cm = -0.7397     CD =  3.68763   =>   CDf =  0.00260    CDp =  3.68503

 Side 1  free  transition at x/c =  0.0240   32
 Side 2 forced transition at x/c =  1.0000   63
 idif Ue xi dudx           1  8.40111524E-02  8.08155537E-03   10.395419    
 Uenew xinew           2  8.20370577E-03  7.89165497E-04

 100   rms: 0.2302E+01   max: 0.2428E+02   C at   63  2   RLX: 0.062
       a = 21.750      CL =  3.1658
      Cm = -0.6809     CD =  3.12924   =>   CDf =  0.00284    CDp =  3.12640

 MRCHDU: Convergence failed at  98  side 1    Res =  0.4935E-01
 Side 1  free  transition at x/c =  0.0239   31
 Side 2 forced transition at x/c =  1.0000   64

 101   rms: 0.2180E+02   max: 0.1335E+03   T at   86  2   RLX: 0.011
       a = 21.750      CL =  3.2143
      Cm = -0.6854     CD =  2.15376   =>   CDf =  0.00233    CDp =  2.15143

 Side 1  free  transition at x/c =  0.0232   32
 Side 2 forced transition at x/c =  1.0000   63

 102   rms: 0.2317E+02   max: 0.1463E+03   C at   63  2   RLX: 0.010
       a = 21.750      CL =  3.3042
      Cm = -0.7046     CD =  0.93846   =>   CDf =  0.00270    CDp =  0.93576

 MRCHDU: Convergence failed at  85  side 2    Res =  0.9237E+00
 Side 1  free  transition at x/c =  0.0223   31
 Side 2 forced transition at x/c =  1.0000   63

 103   rms: 0.6382E+02   max: 0.5448E+03   T at   32  1   RLX: 0.003
       a = 21.750      CL =  3.4408
      Cm = -0.7364     CD =  0.69052   =>   CDf =  0.00273    CDp =  0.68779

 Side 1  free  transition at x/c =  0.0214   31
 Side 2 forced transition at x/c =  1.0000   63

 104   rms: 0.3373E+01   max: 0.3309E+02   C at   63  2   RLX: 0.045
       a = 21.750      CL =  3.4189
      Cm = -0.7143     CD =  0.62097   =>   CDf =  0.00237    CDp =  0.61861

 MRCHDU: Convergence failed at  99  side 1    Res =  0.3098E-02
 MRCHDU: Convergence failed at  80  side 2    Res =  0.1492E+01
 MRCHDU: Convergence failed at  81  side 2    Res =  0.1882E+01
 MRCHDU: Convergence failed at  82  side 2    Res =  0.1504E+01
 MRCHDU: Convergence failed at  83  side 2    Res =  0.1545E+01
 MRCHDU: Convergence failed at  84  side 2    Res =  0.2340E+01
 Side 1  free  transition at x/c =  0.0207   32
 Side 2 forced transition at x/c =  1.0000   62
 idif Ue xi dudx           1  9.47909653E-02  9.47678089E-03   10.002443    
 Uenew xinew           2  8.74136854E-03  8.73923302E-04

 105   rms: 0.1936E+01   max: -.1650E+02   T at    2  1   RLX: 0.030
       a = 21.750      CL =  3.2992
      Cm = -0.6813     CD =  0.66196   =>   CDf =  0.00294    CDp =  0.65902

 Side 1  free  transition at x/c =  0.0207   31
 Side 2 forced transition at x/c =  1.0000   63

 106   rms: 0.2049E+01   max: 0.4285E+02   C at   63  2   RLX: 0.035
       a = 21.750      CL =  3.3301
      Cm = -0.6815     CD =  0.68211   =>   CDf =  0.00273    CDp =  0.67938

 Side 1  free  transition at x/c =  0.0204   31
 Side 2 forced transition at x/c =  1.0000   63

 107   rms: 0.2842E+01   max: 0.2720E+02   C at   63  2   RLX: 0.034
       a = 21.750      CL =  3.3554
      Cm = -0.6767     CD =  0.50644   =>   CDf =  0.00279    CDp =  0.50365

 Side 1  free  transition at x/c =  0.0203   31
 Side 2 forced transition at x/c =  1.0000   63

 108   rms: 0.1932E+01   max: 0.3690E+02   C at   63  2   RLX: 0.041
       a = 21.750      CL =  3.3377
      Cm = -0.6625     CD =  0.71119   =>   CDf =  0.00291    CDp =  0.70828

 Side 1  free  transition at x/c =  0.0201   31
 Side 2 forced transition at x/c =  1.0000   63

 109   rms: 0.1706E+01   max: 0.3464E+02   C at   63  2   RLX: 0.043
       a = 21.750      CL =  3.3035
      Cm = -0.6452     CD =  0.60941   =>   CDf =  0.00301    CDp =  0.60640

 Side 1  free  transition at x/c =  0.0199   31
 Side 2 forced transition at x/c =  1.0000   63

 110   rms: 0.3919E+01   max: 0.5269E+02   C at   97  1   RLX: 0.028
       a = 21.750      CL =  3.2112
      Cm = -0.6233     CD =  0.78718   =>   CDf =  0.00310    CDp =  0.78409

 Side 1  free  transition at x/c =  0.0198   31
 Side 2 forced transition at x/c =  1.0000   63

 111   rms: 0.2059E+01   max: 0.2878E+02   C at   63  2   RLX: 0.032
       a = 21.750      CL =  3.2342
      Cm = -0.6201     CD =  0.70068   =>   CDf =  0.00308    CDp =  0.69760

 Side 1  free  transition at x/c =  0.0194   31
 Side 2 forced transition at x/c =  1.0000   63

 112   rms: 0.1804E+01   max: 0.3487E+02   C at   63  2   RLX: 0.026
       a = 21.750      CL =  3.2235
      Cm = -0.6126     CD =  0.70272   =>   CDf =  0.00316    CDp =  0.69956

 Side 1  free  transition at x/c =  0.0194   31
 Side 2 forced transition at x/c =  1.0000   63

 113   rms: 0.2401E+03   max: -.3467E+04   C at   97  1   RLX: 0.000
       a = 21.750      CL =  3.2457
      Cm = -0.6153     CD =  0.71472   =>   CDf =  0.00321    CDp =  0.71151

 Side 1  free  transition at x/c =  0.0193   31
 Side 2 forced transition at x/c =  1.0000   63

 114   rms: 0.4353E+01   max: -.3871E+02   C at   97  1   RLX: 0.013
       a = 21.750      CL =  3.2697
      Cm = -0.6160     CD =  0.55400   =>   CDf =  0.00323    CDp =  0.55077

 Side 1  free  transition at x/c =  0.0193   31
 Side 2 forced transition at x/c =  1.0000   63

 115   rms: 0.1000E+02   max: -.1234E+03   C at   97  1   RLX: 0.004
       a = 21.750      CL =  3.2801
      Cm = -0.6160     CD =  0.50781   =>   CDf =  0.00327    CDp =  0.50453

 Side 1  free  transition at x/c =  0.0193   31
 Side 2 forced transition at x/c =  1.0000   63

 116   rms: 0.9217E+02   max: 0.1154E+04   C at   97  1   RLX: 0.001
       a = 21.750      CL =  3.2499
      Cm = -0.6120     CD =  0.69448   =>   CDf =  0.00330    CDp =  0.69119

 Side 1  free  transition at x/c =  0.0192   31
 Side 2 forced transition at x/c =  1.0000   63

 117   rms: 0.1113E+02   max: 0.1269E+03   C at   97  1   RLX: 0.012
       a = 21.750      CL =  3.1448
      Cm = -0.5932     CD =  0.82227   =>   CDf =  0.00326    CDp =  0.81901

 Side 1  free  transition at x/c =  0.0192   31
 Side 2 forced transition at x/c =  1.0000   63

 118   rms: 0.6845E+02   max: -.9262E+03   C at   97  1   RLX: 0.001
       a = 21.750      CL =  3.1863
      Cm = -0.6003     CD =  0.85183   =>   CDf =  0.00319    CDp =  0.84864

 Side 1  free  transition at x/c =  0.0192   31
 Side 2 forced transition at x/c =  1.0000   63

 119   rms: 0.7238E+01   max: 0.8607E+02   C at   97  1   RLX: 0.017
       a = 21.750      CL =  3.0396
      Cm = -0.5719     CD =  0.85227   =>   CDf =  0.00321    CDp =  0.84906

 Side 1  free  transition at x/c =  0.0192   31
 Side 2 forced transition at x/c =  1.0000   63

 120   rms: 0.4564E+01   max: 0.2692E+02   C at   97  1   RLX: 0.035
       a = 21.750      CL =  2.7438
      Cm = -0.5061     CD =  0.81330   =>   CDf =  0.00315    CDp =  0.81015

 Side 1  free  transition at x/c =  0.0195   31
 Side 2 forced transition at x/c =  1.0000   63
 idif Ue xi dudx           1  8.73093158E-02  7.96651840E-03   10.959533    
 Uenew xinew           2  7.38813356E-03  6.74128532E-04

 121   rms: 0.1981E+01   max: 0.3021E+02   C at   63  2   RLX: 0.050
       a = 21.750      CL =  2.6193
      Cm = -0.4811     CD =  0.81122   =>   CDf =  0.00346    CDp =  0.80776

 Side 1  free  transition at x/c =  0.0197   30
 Side 2 forced transition at x/c =  1.0000   64

 122   rms: 0.1727E+01   max: 0.1639E+02   C at   64  2   RLX: 0.092
       a = 21.750      CL =  2.3345
      Cm = -0.4193     CD =  0.73841   =>   CDf =  0.00318    CDp =  0.73523

 Side 1  free  transition at x/c =  0.0199   30
 Side 2 forced transition at x/c =  1.0000   64

 123   rms: 0.1562E+01   max: 0.2673E+02   C at   64  2   RLX: 0.056
       a = 21.750      CL =  2.2111
      Cm = -0.3911     CD =  0.83048   =>   CDf =  0.00308    CDp =  0.82741

 Side 1  free  transition at x/c =  0.0201   30
 Side 2 forced transition at x/c =  1.0000   64

 124   rms: 0.1601E+01   max: 0.2781E+02   C at   64  2   RLX: 0.054
       a = 21.750      CL =  2.0902
      Cm = -0.3646     CD =  0.86923   =>   CDf =  0.00303    CDp =  0.86620

 Side 1  free  transition at x/c =  0.0201   30
 Side 2 forced transition at x/c =  1.0000   64

 125   rms: 0.1663E+01   max: 0.3151E+02   C at   64  2   RLX: 0.048
       a = 21.750      CL =  1.9913
      Cm = -0.3433     CD =  0.92046   =>   CDf =  0.00298    CDp =  0.91749

 Side 1  free  transition at x/c =  0.0202   30
 Side 2 forced transition at x/c =  1.0000   64
 idif Ue xi dudx           1  8.56678709E-02  6.99341297E-03   12.249794    
 Uenew xinew           2  1.01095820E-02  8.25285912E-04

 126   rms: 0.1349E+01   max: 0.1836E+02   C at   64  2   RLX: 0.082
       a = 21.750      CL =  1.8357
      Cm = -0.3116     CD =  0.89923   =>   CDf =  0.00315    CDp =  0.89607

 Side 1  free  transition at x/c =  0.0203   29
 Side 2 forced transition at x/c =  1.0000   65

 127   rms: 0.1414E+01   max: 0.2575E+02   C at   65  2   RLX: 0.058
       a = 21.750      CL =  1.7394
      Cm = -0.2917     CD =  1.01909   =>   CDf =  0.00282    CDp =  1.01627

 Side 1  free  transition at x/c =  0.0203   29
 Side 2 forced transition at x/c =  1.0000   65

 128   rms: 0.1179E+01   max: 0.1791E+02   C at   65  2   RLX: 0.084
       a = 21.750      CL =  1.6187
      Cm = -0.2677     CD =  1.04821   =>   CDf =  0.00274    CDp =  1.04547

 Side 1  free  transition at x/c =  0.0204   29
 Side 2 forced transition at x/c =  1.0000   65

 129   rms: 0.1243E+01   max: 0.2425E+02   C at   65  2   RLX: 0.062
       a = 21.750      CL =  1.5416
      Cm = -0.2512     CD =  1.17851   =>   CDf =  0.00264    CDp =  1.17587

 Side 1  free  transition at x/c =  0.0204   29
 Side 2 forced transition at x/c =  1.0000   65

 130   rms: 0.1050E+01   max: 0.1768E+02   C at   65  2   RLX: 0.085
       a = 21.750      CL =  1.4479
      Cm = -0.2321     CD =  1.32696   =>   CDf =  0.00258    CDp =  1.32438

 Side 1  free  transition at x/c =  0.0205   29
 Side 2 forced transition at x/c =  1.0000   65

 131   rms: 0.1164E+01   max: 0.2359E+02   C at   65  2   RLX: 0.064
       a = 21.750      CL =  1.3849
      Cm = -0.2190     CD =  1.61876   =>   CDf =  0.00250    CDp =  1.61626

 Side 1  free  transition at x/c =  0.0205   29
 Side 2 forced transition at x/c =  1.0000   65

 132   rms: 0.1220E+01   max: 0.2612E+02   C at   65  2   RLX: 0.057
       a = 21.750      CL =  1.3325
      Cm = -0.2081     CD =  1.89100   =>   CDf =  0.00244    CDp =  1.88856

 Side 1  free  transition at x/c =  0.0205   29
 Side 2 forced transition at x/c =  1.0000   65

 133   rms: 0.1020E+01   max: 0.1955E+02   C at   65  2   RLX: 0.077
       a = 21.750      CL =  1.2689
      Cm = -0.1954     CD =  2.32387   =>   CDf =  0.00240    CDp =  2.32147

 Side 1  free  transition at x/c =  0.0206   29
 Side 2 forced transition at x/c =  1.0000   65
 idif Ue xi dudx           1  7.48747438E-02  5.42938709E-03   13.790644    
 Uenew xinew           2  2.31800159E-03  1.68085098E-04

 134   rms: 0.9675E+00   max: 0.1836E+02   C at   65  2   RLX: 0.082
       a = 21.750      CL =  1.2054
      Cm = -0.1823     CD =  3.08881   =>   CDf =  0.00250    CDp =  3.08631

 Side 1  free  transition at x/c =  0.0206   28
 Side 2 forced transition at x/c =  1.0000   66

 135   rms: 0.8171E+00   max: 0.1141E+02   C at   66  2   RLX: 0.123
       a = 21.750      CL =  1.1194
      Cm = -0.1646     CD =  5.14165   =>   CDf =  0.00229    CDp =  5.13936

 Side 1  free  transition at x/c =  0.0206   28
 Side 2 forced transition at x/c =  1.0000   66

 136   rms: 0.8712E+00   max: 0.1722E+02   C at   66  2   RLX: 0.087
       a = 21.750      CL =  1.0658
      Cm = -0.1528     CD =  8.53543   =>   CDf =  0.00221    CDp =  8.53322

 Side 1  free  transition at x/c =  0.0206   28
 Side 2 forced transition at x/c =  1.0000   66

 137   rms: 0.8715E+00   max: 0.1780E+02   C at   66  2   RLX: 0.084
       a = 21.750      CL =  1.0203
      Cm = -0.1431     CD = 13.59125   =>   CDf =  0.00217    CDp = 13.58909

 Side 1  free  transition at x/c =  0.0207   28
 Side 2 forced transition at x/c =  1.0000   66

 138   rms: 0.7474E+00   max: 0.1332E+02   C at   66  2   RLX: 0.113
       a = 21.750      CL =  0.9668
      Cm = -0.1321     CD = 35.07909   =>   CDf =  0.00213    CDp = 35.07697

 Side 1  free  transition at x/c =  0.0207   28
 Side 2 forced transition at x/c =  1.0000   66

 139   rms: 0.7806E+00   max: 0.1430E+02   C at   66  2   RLX: 0.105
       a = 21.750      CL =  0.9211
      Cm = -0.1222     CD =107.90926   =>   CDf =  0.00208    CDp =107.90719

 Side 1  free  transition at x/c =  0.0207   28
 Side 2 forced transition at x/c =  1.0000   66

 140   rms: 0.7551E+00   max: 0.1483E+02   C at   66  2   RLX: 0.101
       a = 21.750      CL =  0.8826
      Cm = -0.1136     CD =337.06915   =>   CDf =  0.00204    CDp =337.06711

 Side 1  free  transition at x/c =  0.0207   28
 Side 2 forced transition at x/c =  1.0000   66

 141   rms: 0.7158E+00   max: 0.1413E+02   C at   66  2   RLX: 0.106
       a = 21.750      CL =  0.8475
      Cm = -0.1059     CD =*********   =>   CDf =  0.00201    CDp =*********

 Side 1  free  transition at x/c =  0.0207   28
 Side 2 forced transition at x/c =  1.0000   66

 142   rms: 0.6851E+00   max: 0.1306E+02   C at   66  2   RLX: 0.115
       a = 21.750      CL =  0.8138
      Cm = -0.0985     CD =*********   =>   CDf =  0.00198    CDp =*********

 Side 1  free  transition at x/c =  0.0207   28
 Side 2 forced transition at x/c =  1.0000   66

 143   rms: 0.5836E+00   max: 0.9861E+01   C at   66  2   RLX: 0.152
       a = 21.750      CL =  0.7756
      Cm = -0.0902     CD =*********   =>   CDf =  0.00195    CDp =*********

 Side 1  free  transition at x/c =  0.0207   28
 Side 2 forced transition at x/c =  1.0000   66

 144   rms: 0.4910E+00   max: 0.8206E+01   C at   66  2   RLX: 0.183
       a = 21.750      CL =  0.7384
      Cm = -0.0819     CD =*********   =>   CDf =  0.00192    CDp =*********

 Side 1  free  transition at x/c =  0.0207   28
 Side 2 forced transition at x/c =  1.0000   66

 145   rms: 0.4424E+00   max: 0.7991E+01   C at   66  2   RLX: 0.188
       a = 21.750      CL =  0.7076
      Cm = -0.0745     CD =*********   =>   CDf =  0.00188    CDp =*********

 Side 1  free  transition at x/c =  0.0207   28
 Side 2 forced transition at x/c =  1.0000   66

 146   rms: 0.3811E+00   max: 0.7125E+01   C at   66  2   RLX: 0.211
       a = 21.750      CL =  0.6828
      Cm = -0.0686     CD =428.00583   =>   CDf =  0.00185    CDp =428.00397

 Side 1  free  transition at x/c =  0.0206   28
 Side 2 forced transition at x/c =  1.0000   66

 147   rms: 0.3207E+00   max: 0.5707E+01   C at   66  2   RLX: 0.263
       a = 21.750      CL =  0.6628
      Cm = -0.0638     CD = 84.96864   =>   CDf =  0.00183    CDp = 84.96682

 Side 1  free  transition at x/c =  0.0205   28
 Side 2 forced transition at x/c =  1.0000   66

 148   rms: 0.2623E+00   max: 0.4309E+01   C at   66  2   RLX: 0.348
       a = 21.750      CL =  0.6483
      Cm = -0.0602     CD = 18.41421   =>   CDf =  0.00180    CDp = 18.41241

 Side 1  free  transition at x/c =  0.0203   28
 Side 2 forced transition at x/c =  1.0000   66

 149   rms: 0.1925E+00   max: 0.2220E+01   C at   66  2   RLX: 0.549
       a = 21.750      CL =  0.6439
      Cm = -0.0588     CD =  3.07403   =>   CDf =  0.00177    CDp =  3.07226

 Side 1  free  transition at x/c =  0.0200   28
 Side 2 forced transition at x/c =  1.0000   66

 150   rms: 0.1346E+00   max: 0.9590E+00   C at   66  2   RLX: 0.574
       a = 21.750      CL =  0.6567
      Cm = -0.0605     CD =  0.83433   =>   CDf =  0.00173    CDp =  0.83260

 Side 1  free  transition at x/c =  0.0197   28
 Side 2 forced transition at x/c =  1.0000   66

 151   rms: 0.9684E-01   max: -.7866E+00   D at   87  2   RLX: 0.636
       a = 21.750      CL =  0.6737
      Cm = -0.0634     CD =  0.38419   =>   CDf =  0.00170    CDp =  0.38249

 Side 1  free  transition at x/c =  0.0195   28
 Side 2 forced transition at x/c =  1.0000   66

 152   rms: 0.6283E-01   max: -.6155E+00   D at   87  2   RLX: 0.812
       a = 21.750      CL =  0.6885
      Cm = -0.0665     CD =  0.26532   =>   CDf =  0.00168    CDp =  0.26365

 Side 1  free  transition at x/c =  0.0193   28
 Side 2 forced transition at x/c =  1.0000   66

 153   rms: 0.2413E-01   max: -.2772E+00   D at   87  2
       a = 21.750      CL =  0.6922
      Cm = -0.0678     CD =  0.23327   =>   CDf =  0.00166    CDp =  0.23160

 Side 1  free  transition at x/c =  0.0193   28
 Side 2 forced transition at x/c =  1.0000   66

 154   rms: 0.2144E-02   max: -.2393E-01   C at   66  2
       a = 21.750      CL =  0.6917
      Cm = -0.0679     CD =  0.23022   =>   CDf =  0.00165    CDp =  0.22857

 Side 1  free  transition at x/c =  0.0193   28
 Side 2 forced transition at x/c =  1.0000   66

 155   rms: 0.7254E-04   max: -.6328E-03   D at   87  2
       a = 21.750      CL =  0.6918
      Cm = -0.0679     CD =  0.23026   =>   CDf =  0.00165    CDp =  0.22861
 plradd ia,ip,cpol           16           0 -1.65071629E-04

 Point added to stored polar  1
 Point written to save file  naca747a415_Re600k.ext.pol                      
 Dump file unspecified or not available
 Calculating wake trajectory ...
 Calculating source influence matrix ...

 Solving BL system ...

 Side 1  free  transition at x/c =  0.0193   28
 Side 2 forced transition at x/c =  1.0000   66

   1   rms: 0.4453E-01   max: 0.3782E+00   T at   28  1   RLX: 0.230
       a = 22.250      CL =  0.6933
      Cm = -0.0688     CD =  0.23238   =>   CDf =  0.00164    CDp =  0.23073

 Side 1  free  transition at x/c =  0.0191   28
 Side 2 forced transition at x/c =  1.0000   66

   2   rms: 0.3564E-01   max: 0.2828E+00   T at   28  1
       a = 22.250      CL =  0.7049
      Cm = -0.0715     CD =  0.23831   =>   CDf =  0.00155    CDp =  0.23676

 Side 1  free  transition at x/c =  0.0187   29
 Side 2 forced transition at x/c =  1.0000   65

   3   rms: 0.2670E-01   max: 0.1658E+00   C at   65  2
       a = 22.250      CL =  0.6996
      Cm = -0.0708     CD =  0.23197   =>   CDf =  0.00162    CDp =  0.23035

 Side 1  free  transition at x/c =  0.0188   29
 Side 2 forced transition at x/c =  1.0000   65

   4   rms: 0.9557E-02   max: 0.1017E+00   C at   65  2
       a = 22.250      CL =  0.7025
      Cm = -0.0708     CD =  0.23401   =>   CDf =  0.00162    CDp =  0.23239

 Side 1  free  transition at x/c =  0.0188   29
 Side 2 forced transition at x/c =  1.0000   65

   5   rms: 0.2741E-02   max: -.1547E-01   D at   86  2
       a = 22.250      CL =  0.7040
      Cm = -0.0710     CD =  0.23551   =>   CDf =  0.00162    CDp =  0.23389

 Side 1  free  transition at x/c =  0.0188   29
 Side 2 forced transition at x/c =  1.0000   65

   6   rms: 0.3362E-03   max: -.2425E-02   D at   86  2
       a = 22.250      CL =  0.7042
      Cm = -0.0710     CD =  0.23574   =>   CDf =  0.00162    CDp =  0.23412

 Side 1  free  transition at x/c =  0.0188   29
 Side 2 forced transition at x/c =  1.0000   65

   7   rms: 0.1602E-04   max: -.1280E-03   D at   86  2
       a = 22.250      CL =  0.7042
      Cm = -0.0710     CD =  0.23575   =>   CDf =  0.00162    CDp =  0.23413
 plradd ia,ip,cpol           17           0 -4.96653724E-04

 Point added to stored polar  1
 Point written to save file  naca747a415_Re600k.ext.pol                      
 Dump file unspecified or not available

.OPERva   c>  
 Polar accumulation disabled

.OPERv   c>  
 XFOIL   c>  
 XFOIL   c>  