  
       XFOIL         Version 6.99
  
 Calculated polar for: NACA 0010-35                                    
  
 1 1 Reynolds number fixed          Mach number fixed         
  
 xtrf =   1.000 (top)        1.000 (bottom)  
 Mach =   0.000     Re =     0.600 e 6     Ncrit =   9.000
  
   alpha    CL        CD       CDp       CM     Top_Xtr  Bot_Xtr
  ------ -------- --------- --------- -------- -------- --------
  -4.000  -0.4500   0.01406   0.00756   0.0031   0.9703   0.0125
  -3.500  -0.3958   0.01213   0.00540   0.0031   0.9677   0.0213
  -2.500  -0.3326   0.00755   0.00383   0.0114   0.9558   0.7707
  -2.000  -0.2687   0.00752   0.00404   0.0099   0.9543   0.8768
  -1.500  -0.2249   0.00792   0.00442   0.0131   0.9463   0.9151
  -1.000  -0.1527   0.00845   0.00489   0.0098   0.9447   0.9304
  -0.500  -0.0765   0.00873   0.00512   0.0050   0.9435   0.9372
   0.000  -0.0000   0.00881   0.00518   0.0000   0.9420   0.9420
   0.500   0.0764   0.00873   0.00512  -0.0049   0.9371   0.9435
   1.000   0.1524   0.00848   0.00492  -0.0097   0.9306   0.9448
   1.500   0.2248   0.00792   0.00442  -0.0131   0.9150   0.9463
   2.000   0.2686   0.00752   0.00404  -0.0099   0.8767   0.9543
   2.500   0.3325   0.00756   0.00383  -0.0114   0.7699   0.9558
   3.000   0.3551   0.01070   0.00450  -0.0055   0.1658   0.9611
   3.500   0.3958   0.01213   0.00540  -0.0031   0.0213   0.9677
   4.000   0.4500   0.01402   0.00753  -0.0031   0.0125   0.9703
   4.500   0.5047   0.01560   0.00928  -0.0031   0.0106   0.9738
   5.000   0.5530   0.01997   0.01410  -0.0006   0.0115   0.9777
   5.500   0.6127   0.02543   0.02029   0.0005   0.0152   0.9788
