  
       XFOIL         Version 6.99
  
 Calculated polar for: NACA 63A210                                     
  
 1 1 Reynolds number fixed          Mach number fixed         
  
 xtrf =   1.000 (top)        1.000 (bottom)  
 Mach =   0.000     Re =     0.300 e 6     Ncrit =   9.000
  
   alpha    CL        CD       CDp       CM     Top_Xtr  Bot_Xtr
  ------ -------- --------- --------- -------- -------- --------
  -4.000  -0.2888   0.01271   0.00436  -0.0338   0.6218   0.0490
  -3.500  -0.2401   0.01099   0.00306  -0.0330   0.6203   0.1645
  -3.000  -0.1978   0.00902   0.00263  -0.0315   0.6182   0.5588
  -2.500  -0.1465   0.00877   0.00257  -0.0303   0.6154   0.6559
  -2.000  -0.0940   0.00870   0.00252  -0.0293   0.6132   0.7127
  -1.500  -0.0427   0.00866   0.00254  -0.0278   0.6109   0.7658
  -1.000   0.0101   0.00857   0.00246  -0.0269   0.6087   0.8009
  -0.500   0.0637   0.00842   0.00235  -0.0263   0.6060   0.8299
   0.000   0.1168   0.00829   0.00231  -0.0255   0.6032   0.8617
   0.500   0.1701   0.00822   0.00234  -0.0246   0.5997   0.8992
   1.000   0.2317   0.00823   0.00243  -0.0256   0.5961   0.9414
   1.500   0.3095   0.00824   0.00253  -0.0304   0.5899   0.9751
   2.500   0.4416   0.00870   0.00267  -0.0360   0.5569   1.0000
   3.000   0.4920   0.01208   0.00567  -0.0362   0.5244   1.0000
   3.500   0.5367   0.01281   0.00684  -0.0346   0.4956   1.0000
   4.000   0.5926   0.01104   0.00483  -0.0341   0.4438   1.0000
   4.500   0.6419   0.01118   0.00500  -0.0328   0.3308   1.0000
   5.000   0.6770   0.01339   0.00582  -0.0301   0.0649   1.0000
   5.500   0.7201   0.01500   0.00743  -0.0280   0.0389   1.0000
   6.000   0.7634   0.01651   0.00904  -0.0259   0.0327   1.0000
   6.500   0.7971   0.01980   0.01249  -0.0224   0.0295   1.0000
   7.000   0.8421   0.02216   0.01510  -0.0205   0.0286   1.0000
   7.500   0.8878   0.02475   0.01798  -0.0188   0.0268   1.0000
   8.000   0.9300   0.02911   0.02283  -0.0165   0.0263   1.0000
   8.500   0.9616   0.03541   0.02989  -0.0130   0.0266   1.0000
   9.000   0.9786   0.04280   0.03805  -0.0087   0.0267   1.0000
