  
       XFOIL         Version 6.99
  
 Calculated polar for: NACA 4418                                       
  
 1 1 Reynolds number fixed          Mach number fixed         
  
 xtrf =   1.000 (top)        1.000 (bottom)  
 Mach =   0.000     Re =     0.300 e 6     Ncrit =   9.000
  
   alpha    CL        CD       CDp       CM     Top_Xtr  Bot_Xtr
  ------ -------- --------- --------- -------- -------- --------
-4.000   0.0467   0.01247   0.00537  -0.1028   0.7961   0.2340
-3.500   0.1013   0.01222   0.00508  -0.1022   0.7772   0.2590
-3.000   0.1555   0.01198   0.00486  -0.1016   0.7578   0.2851
-2.500   0.2096   0.01179   0.00467  -0.1009   0.7379   0.3137
-2.000   0.2632   0.01160   0.00448  -0.1002   0.7177   0.3464
-1.000   0.3682   0.01120   0.00429  -0.0985   0.6777   0.4422
0.000   0.4682   0.01077   0.00444  -0.0957   0.6400   0.6432
0.500   0.5174   0.01069   0.00460  -0.0939   0.6225   0.7400
1.000   0.5654   0.01070   0.00482  -0.0915   0.6057   0.8326
2.000   0.6885   0.01129   0.00535  -0.0923   0.5727   0.9618
2.500   0.7780   0.01167   0.00563  -0.0993   0.5555   0.9870
3.000   0.8607   0.01201   0.00586  -0.1053   0.5389   1.0000
3.500   0.8981   0.01229   0.00604  -0.1019   0.5250   1.0000
4.000   0.9380   0.01263   0.00624  -0.0989   0.5108   1.0000
4.500   0.9754   0.01291   0.00648  -0.0953   0.4956   1.0000
5.000   1.0156   0.01326   0.00680  -0.0923   0.4811   1.0000
5.500   1.0586   0.01368   0.00715  -0.0899   0.4675   1.0000
6.000   1.1026   0.01415   0.00752  -0.0878   0.4536   1.0000
6.500   1.1427   0.01454   0.00796  -0.0849   0.4394   1.0000
7.000   1.1828   0.01503   0.00846  -0.0821   0.4250   1.0000
7.500   1.2194   0.01557   0.00898  -0.0788   0.4106   1.0000
8.000   1.2530   0.01619   0.00957  -0.0749   0.3949   1.0000
8.500   1.2844   0.01691   0.01027  -0.0710   0.3778   1.0000
9.000   1.3152   0.01776   0.01111  -0.0672   0.3606   1.0000
9.500   1.3430   0.01876   0.01215  -0.0632   0.3411   1.0000
10.000   1.3679   0.02002   0.01340  -0.0592   0.3191   1.0000
10.250   1.3780   0.02083   0.01415  -0.0570   0.3088   1.0000
10.500   1.3912   0.02154   0.01491  -0.0554   0.2982   1.0000
10.750   1.4020   0.02242   0.01577  -0.0535   0.2884   1.0000
11.000   1.4121   0.02336   0.01671  -0.0516   0.2781   1.0000
11.250   1.4227   0.02434   0.01770  -0.0499   0.2681   1.0000
11.750   1.4399   0.02665   0.02000  -0.0464   0.2484   1.0000
12.000   1.4467   0.02799   0.02132  -0.0446   0.2392   1.0000
12.250   1.4530   0.02942   0.02275  -0.0430   0.2295   1.0000
12.500   1.4600   0.03085   0.02420  -0.0415   0.2205   1.0000
12.750   1.4627   0.03264   0.02595  -0.0398   0.2118   1.0000
13.000   1.4697   0.03420   0.02756  -0.0386   0.2031   1.0000
13.250   1.4716   0.03621   0.02955  -0.0371   0.1953   1.0000
13.500   1.4768   0.03803   0.03141  -0.0361   0.1871   1.0000
13.750   1.4783   0.04021   0.03359  -0.0349   0.1798   1.0000
14.000   1.4810   0.04237   0.03578  -0.0339   0.1721   1.0000
14.250   1.4817   0.04478   0.03821  -0.0330   0.1650   1.0000
14.500   1.4816   0.04733   0.04078  -0.0322   0.1576   1.0000
14.750   1.4816   0.04994   0.04342  -0.0315   0.1506   1.0000
15.000   1.4785   0.05294   0.04643  -0.0309   0.1435   1.0000
15.250   1.4782   0.05573   0.04927  -0.0304   0.1364   1.0000
15.500   1.4716   0.05924   0.05276  -0.0301   0.1300   1.0000
15.750   1.4705   0.06223   0.05583  -0.0299   0.1230   1.0000
16.000   1.4643   0.06584   0.05945  -0.0297   0.1172   1.0000
