
 ===================================================
  XFOIL Version 6.99
  Copyright (C) 2000   Mark Drela, Harold Youngren

  This software comes with ABSOLUTELY NO WARRANTY,
    subject to the GNU General Public License.

  Caveat computor
 ===================================================

 File  xfoil.def  not found

   QUIT    Exit program

  .OPER    Direct operating point(s)
  .MDES    Complex mapping design routine
  .QDES    Surface speed design routine
  .GDES    Geometry design routine

   SAVE f  Write airfoil to labeled coordinate file
   PSAV f  Write airfoil to plain coordinate file
   ISAV f  Write airfoil to ISES coordinate file
   MSAV f  Write airfoil to MSES coordinate file
   REVE    Reverse written-airfoil node ordering

   LOAD f  Read buffer airfoil from coordinate file
   NACA i  Set NACA 4,5-digit airfoil and buffer airfoil
   INTE    Set buffer airfoil by interpolating two airfoils
   NORM    Buffer airfoil normalization toggle
   XYCM rr Change CM reference location, currently  0.25000 0.00000

   BEND    Display structural properties of current airfoil

   PCOP    Set current-airfoil panel nodes directly from buffer airfoil points
   PANE    Set current-airfoil panel nodes ( 160 ) based on curvature
  .PPAR    Show/change paneling

  .PLOP    Plotting options

   WDEF f  Write  current-settings file
   RDEF f  Reread current-settings file
   NAME s  Specify new airfoil name
   NINC    Increment name version number

   Z       Zoom    | (available in all menus)
   U       Unzoom  | 

 XFOIL   c>  
 Labeled airfoil file.  Name:  NACA 2412                                       

 Number of input coordinate points:  35
 Counterclockwise ordering
 Max thickness =     0.120004  at x =   0.300
 Max camber    =     0.019207  at x =   0.400

  LE  x,y  =  -0.00007   0.00132  |   Chord =   1.00007
  TE  x,y  =   1.00000   0.00000  |

 Current airfoil nodes set from buffer airfoil nodes (  35 )

 WARNING: Poor input coordinate distribution
          Excessive panel angle   67.3  at i =  18
          Repaneling with PANE and/or PPAR suggested
           (doing GDES,CADD before repaneling _may_
            improve excessively coarse LE spacing

 XFOIL   c>  
 XFOIL   c>  
 Blunt trailing edge.  Gap =  0.00260

 Paneling parameters used...
   Number of panel nodes       160
   Panel bunching parameter    1.000
   TE/LE panel density ratio   0.150
   Refined-area/LE panel density ratio    0.200
   Top    side refined area x/c limits  1.000 1.000
   Bottom side refined area x/c limits  1.000 1.000

 XFOIL   c>  
.OPERi   c>  
 Xtr/c     =  1.0000    top    side
 Xtr/c     =  1.0000    bottom side
 Ncrit     =    9.00   ( 0.070 % turb. level )
 Vacc      =  0.0100

 Klag  =  5.6000     Uxwt  =    1.00
 A     =  6.7000     B     =  0.7500       KCt = 0.01485
 CtiniK=  1.8000     CtiniX=  3.3000

..VPAR   c>  
..VPAR   c>  
.OPERi   c>  
 M  =    0.0000
 Re =    200000

.OPERv   c>  
.OPERv   c>  
.OPERv   c>  
 Polar  1 newly created for accumulation
 Airfoil archived with polar: NACA 2412                                       

Enter  polar save filename  OR  <return> for no file   s>  
 New polar save file available

Enter  polar dump filename  OR  <return> for no file   s>  
 Polar dump file will NOT be written

 Polar accumulation enabled

.OPERva   c>   Calculating unit vorticity distributions ...
 Calculating wake trajectory ...
 Calculating source influence matrix ...

 Solving BL system ...

 Initializing BL ...
    side            1  ...
 MRCHUE: Inverse mode at  60     Hk =   4.042
 MRCHUE: Inverse mode at  61     Hk =   4.400
 MRCHUE: Inverse mode at  62     Hk =   4.752
 MRCHUE: Inverse mode at  63     Hk =   5.097
 MRCHUE: Inverse mode at  64     Hk =   5.436
 MRCHUE: Inverse mode at  65     Hk =   5.768
 MRCHUE: Inverse mode at  66     Hk =   6.096
 MRCHUE: Inverse mode at  67     Hk =   6.420
 MRCHUE: Inverse mode at  68     Hk =   6.742
 MRCHUE: Inverse mode at  69     Hk =   7.062
 MRCHUE: Inverse mode at  70     Hk =   7.381
 MRCHUE: Inverse mode at  71     Hk =   7.689
 MRCHUE: Inverse mode at  72     Hk =   7.974
 MRCHUE: Inverse mode at  73     Hk =   8.229
 MRCHUE: Inverse mode at  74     Hk =   8.455
 MRCHUE: Inverse mode at  75     Hk =   8.654
 MRCHUE: Inverse mode at  76     Hk =   8.774
    side            2  ...
 MRCHUE: Inverse mode at  21     Hk =   3.800
 MRCHUE: Inverse mode at  22     Hk =   4.495
 MRCHUE: Inverse mode at  23     Hk =   5.200
 MRCHUE: Inverse mode at  24     Hk =   5.932
 MRCHUE: Inverse mode at  25     Hk =   6.703
 MRCHUE: Inverse mode at  26     Hk =   7.518
 MRCHUE: Inverse mode at  27     Hk =   8.379
 MRCHUE: Inverse mode at  28     Hk =   9.285
 MRCHUE: Inverse mode at  29     Hk =  10.232
 MRCHUE: Inverse mode at  30     Hk =   5.924
 MRCHUE: Inverse mode at  31     Hk =   3.659
 MRCHUE: Inverse mode at  32     Hk =   2.500
 MRCHUE: Inverse mode at  86     Hk =   2.500

 Side 1 forced transition at x/c =  1.0000   76
 Side 2  free  transition at x/c =  0.0927   30
 idif Ue xi dudx           1  0.21939003      4.25577164E-03   51.551178    
 Uenew xinew           2  9.84674096E-02  1.91009045E-03

   1   rms: 0.4120E+00   max: 0.1393E+01   D at   89  2   RLX: 0.395
       a = -4.000      CL = -0.3590
      Cm = -0.0296     CD =  0.01210   =>   CDf =  0.00818    CDp =  0.00392

 Side 1  free  transition at x/c =  0.9624   72
 Side 2  free  transition at x/c =  0.0956   31

   2   rms: 0.1657E+00   max: -.1859E+01   T at   31  2   RLX: 0.269
       a = -4.000      CL = -0.3543
      Cm = -0.0289     CD =  0.01485   =>   CDf =  0.00820    CDp =  0.00665

 Side 1  free  transition at x/c =  0.9634   72
 Side 2  free  transition at x/c =  0.1047   31

   3   rms: 0.2236E+00   max: -.2812E+01   T at   31  2   RLX: 0.178
       a = -4.000      CL = -0.3457
      Cm = -0.0294     CD =  0.01728   =>   CDf =  0.00846    CDp =  0.00882

 MRCHDU: Convergence failed at  32  side 2    Res =  0.2093E+01
 MRCHDU: Convergence failed at  33  side 2    Res =  0.3178E+02
 MRCHDU: Convergence failed at  34  side 2    Res =  0.5732E+01
 MRCHDU: Convergence failed at  35  side 2    Res =  0.4619E+01
 MRCHDU: Convergence failed at  36  side 2    Res =  0.7556E+01
 MRCHDU: Convergence failed at  37  side 2    Res =  0.1164E+02
 MRCHDU: Convergence failed at  38  side 2    Res =  0.1637E+02
 MRCHDU: Convergence failed at  39  side 2    Res =  0.2062E+02
 MRCHDU: Convergence failed at  40  side 2    Res =  0.2470E+02
 MRCHDU: Convergence failed at  41  side 2    Res =  0.2689E+02
 MRCHDU: Convergence failed at  42  side 2    Res =  0.2758E+02
 MRCHDU: Convergence failed at  43  side 2    Res =  0.2721E+02
 MRCHDU: Convergence failed at  44  side 2    Res =  0.2636E+02
 MRCHDU: Convergence failed at  45  side 2    Res =  0.2513E+02
 MRCHDU: Convergence failed at  46  side 2    Res =  0.2408E+02
 MRCHDU: Convergence failed at  47  side 2    Res =  0.2307E+02
 MRCHDU: Convergence failed at  48  side 2    Res =  0.2197E+02
 MRCHDU: Convergence failed at  49  side 2    Res =  0.2114E+02
 MRCHDU: Convergence failed at  50  side 2    Res =  0.2027E+02
 MRCHDU: Convergence failed at  51  side 2    Res =  0.1962E+02
 MRCHDU: Convergence failed at  52  side 2    Res =  0.1887E+02
 MRCHDU: Convergence failed at  53  side 2    Res =  0.1834E+02
 MRCHDU: Convergence failed at  54  side 2    Res =  0.1774E+02
 MRCHDU: Convergence failed at  55  side 2    Res =  0.1731E+02
 MRCHDU: Convergence failed at  56  side 2    Res =  0.1690E+02
 MRCHDU: Convergence failed at  57  side 2    Res =  0.1650E+02
 MRCHDU: Convergence failed at  58  side 2    Res =  0.1593E+02
 MRCHDU: Convergence failed at  59  side 2    Res =  0.1560E+02
 MRCHDU: Convergence failed at  60  side 2    Res =  0.1530E+02
 MRCHDU: Convergence failed at  61  side 2    Res =  0.1501E+02
 MRCHDU: Convergence failed at  62  side 2    Res =  0.1476E+02
 MRCHDU: Convergence failed at  63  side 2    Res =  0.1453E+02
 MRCHDU: Convergence failed at  64  side 2    Res =  0.1427E+02
 MRCHDU: Convergence failed at  65  side 2    Res =  0.1408E+02
 MRCHDU: Convergence failed at  66  side 2    Res =  0.1169E+02
 MRCHDU: Convergence failed at  67  side 2    Res =  0.1199E+02
 MRCHDU: Convergence failed at  68  side 2    Res =  0.1228E+02
 MRCHDU: Convergence failed at  69  side 2    Res =  0.1257E+02
 MRCHDU: Convergence failed at  70  side 2    Res =  0.1287E+02
 MRCHDU: Convergence failed at  71  side 2    Res =  0.1318E+02
 MRCHDU: Convergence failed at  72  side 2    Res =  0.1350E+02
 MRCHDU: Convergence failed at  73  side 2    Res =  0.1390E+02
 MRCHDU: Convergence failed at  74  side 2    Res =  0.2407E+02
 MRCHDU: Convergence failed at  75  side 2    Res =  0.2484E+02
 MRCHDU: Convergence failed at  76  side 2    Res =  0.2561E+02
 MRCHDU: Convergence failed at  77  side 2    Res =  0.2641E+02
 MRCHDU: Convergence failed at  78  side 2    Res =  0.1521E+03
 MRCHDU: Convergence failed at  79  side 2    Res =  0.5180E+03
 MRCHDU: Convergence failed at  80  side 2    Res =  0.3121E+02
 MRCHDU: Convergence failed at  81  side 2    Res =  0.2961E+02
 MRCHDU: Convergence failed at  82  side 2    Res =  0.3054E+02
 MRCHDU: Convergence failed at  83  side 2    Res =  0.3171E+02
 MRCHDU: Convergence failed at  84  side 2    Res =  0.2369E+02
 MRCHDU: Convergence failed at  85  side 2    Res =  0.3685E+02
 MRCHDU: Convergence failed at  86  side 2    Res =  0.4127E+02
 MRCHDU: Convergence failed at  87  side 2    Res =  0.2140E+03
 Side 1  free  transition at x/c =  0.9623   72
 Side 2  free  transition at x/c =  0.1133   32

   4   rms: 0.6052E+00   max: 0.2175E+01   D at   90  2   RLX: 0.357
       a = -4.000      CL = -0.7787
      Cm =  0.1377     CD =  0.00813   =>   CDf =  0.00314    CDp =  0.00499

 Side 1  free  transition at x/c =  0.9784   73
 Side 2  free  transition at x/c =  0.1450   34

   5   rms: 0.2908E+00   max: 0.4356E+00   D at   96  2   RLX: 0.574
       a = -4.000      CL = -0.4693
      Cm =  0.0235     CD =  0.01243   =>   CDf =  0.01033    CDp =  0.00210

 Side 1  free  transition at x/c =  0.9709   72
 Side 2  free  transition at x/c =  0.1634   35

   6   rms: 0.1435E+00   max: 0.2286E+00   D at   97  2
       a = -4.000      CL = -0.2886
      Cm = -0.0417     CD =  0.01418   =>   CDf =  0.00880    CDp =  0.00537

 MRCHDU: Convergence failed at  37  side 2    Res =  0.6513E+01
 MRCHDU: Convergence failed at  38  side 2    Res =  0.6180E+01
 MRCHDU: Convergence failed at  39  side 2    Res =  0.3767E+02
 MRCHDU: Convergence failed at  40  side 2    Res =  0.1583E+02
 MRCHDU: Convergence failed at  41  side 2    Res =  0.1524E+02
 MRCHDU: Convergence failed at  42  side 2    Res =  0.1701E+02
 MRCHDU: Convergence failed at  43  side 2    Res =  0.1428E+02
 MRCHDU: Convergence failed at  44  side 2    Res =  0.1654E+02
 MRCHDU: Convergence failed at  45  side 2    Res =  0.2268E+02
 MRCHDU: Convergence failed at  46  side 2    Res =  0.3468E+02
 MRCHDU: Convergence failed at  47  side 2    Res =  0.6699E+02
 MRCHDU: Convergence failed at  48  side 2    Res =  0.2132E+03
 MRCHDU: Convergence failed at  49  side 2    Res =  0.1953E+03
 MRCHDU: Convergence failed at  50  side 2    Res =  0.7114E+02
 MRCHDU: Convergence failed at  51  side 2    Res =  0.4207E+02
 MRCHDU: Convergence failed at  52  side 2    Res =  0.3218E+02
 MRCHDU: Convergence failed at  53  side 2    Res =  0.2832E+02
 MRCHDU: Convergence failed at  54  side 2    Res =  0.2462E+02
 MRCHDU: Convergence failed at  55  side 2    Res =  0.2208E+02
 MRCHDU: Convergence failed at  56  side 2    Res =  0.1909E+02
 MRCHDU: Convergence failed at  57  side 2    Res =  0.1801E+02
 MRCHDU: Convergence failed at  58  side 2    Res =  0.1755E+02
 MRCHDU: Convergence failed at  59  side 2    Res =  0.1827E+02
 MRCHDU: Convergence failed at  60  side 2    Res =  0.2306E+02
 MRCHDU: Convergence failed at  61  side 2    Res =  0.2982E+02
 MRCHDU: Convergence failed at  62  side 2    Res =  0.2884E+02
 MRCHDU: Convergence failed at  63  side 2    Res =  0.2781E+02
 MRCHDU: Convergence failed at  64  side 2    Res =  0.2729E+02
 MRCHDU: Convergence failed at  65  side 2    Res =  0.2714E+02
 MRCHDU: Convergence failed at  66  side 2    Res =  0.2707E+02
 MRCHDU: Convergence failed at  67  side 2    Res =  0.2539E+02
 MRCHDU: Convergence failed at  68  side 2    Res =  0.2242E+02
 MRCHDU: Convergence failed at  69  side 2    Res =  0.1230E+02
 MRCHDU: Convergence failed at  70  side 2    Res =  0.1268E+02
 MRCHDU: Convergence failed at  71  side 2    Res =  0.1135E+02
 MRCHDU: Convergence failed at  72  side 2    Res =  0.1061E+02
 MRCHDU: Convergence failed at  73  side 2    Res =  0.1011E+02
 MRCHDU: Convergence failed at  74  side 2    Res =  0.9713E+01
 MRCHDU: Convergence failed at  75  side 2    Res =  0.9332E+01
 MRCHDU: Convergence failed at  76  side 2    Res =  0.7563E+01
 MRCHDU: Convergence failed at  77  side 2    Res =  0.7957E+01
 MRCHDU: Convergence failed at  78  side 2    Res =  0.8315E+01
 MRCHDU: Convergence failed at  79  side 2    Res =  0.8784E+01
 MRCHDU: Convergence failed at  80  side 2    Res =  0.9204E+01
 MRCHDU: Convergence failed at  81  side 2    Res =  0.9677E+01
 MRCHDU: Convergence failed at  82  side 2    Res =  0.1021E+02
 MRCHDU: Convergence failed at  83  side 2    Res =  0.1082E+02
 MRCHDU: Convergence failed at  84  side 2    Res =  0.1151E+02
 MRCHDU: Convergence failed at  85  side 2    Res =  0.1225E+02
 MRCHDU: Convergence failed at  86  side 2    Res =  0.1315E+02
 MRCHDU: Convergence failed at  87  side 2    Res =  0.1319E+02
 Side 1  free  transition at x/c =  0.9708   72
 Side 2  free  transition at x/c =  0.1885   37

   7   rms: 0.3878E+00   max: 0.8549E+00   D at   92  2   RLX: 0.498
       a = -4.000      CL = -0.4808
      Cm =  0.0450     CD =  0.01013   =>   CDf =  0.00343    CDp =  0.00670

 Side 1  free  transition at x/c =  0.9929   74
 Side 2  free  transition at x/c =  0.2044   38

   8   rms: 0.2066E+00   max: 0.5606E+00   D at   88  2
       a = -4.000      CL = -0.2953
      Cm = -0.0410     CD =  0.01356   =>   CDf =  0.00890    CDp =  0.00466

 Side 1  free  transition at x/c =  0.9653   72
 Side 2  free  transition at x/c =  0.1801   36

   9   rms: 0.4336E-01   max: -.4862E+00   D at   37  2
       a = -4.000      CL = -0.2865
      Cm = -0.0419     CD =  0.01488   =>   CDf =  0.00763    CDp =  0.00725

 Side 1  free  transition at x/c =  0.9703   72
 Side 2  free  transition at x/c =  0.1898   37

  10   rms: 0.1852E-01   max: 0.2832E+00   C at   37  2
       a = -4.000      CL = -0.2849
      Cm = -0.0424     CD =  0.01467   =>   CDf =  0.00749    CDp =  0.00718

 Side 1  free  transition at x/c =  0.9712   72
 Side 2  free  transition at x/c =  0.1862   37

  11   rms: 0.2105E-02   max: -.2845E-01   D at   39  2
       a = -4.000      CL = -0.2847
      Cm = -0.0424     CD =  0.01468   =>   CDf =  0.00754    CDp =  0.00714

 Side 1  free  transition at x/c =  0.9713   72
 Side 2  free  transition at x/c =  0.1855   37

  12   rms: 0.4291E-04   max: -.6239E-03   D at   39  2
       a = -4.000      CL = -0.2847
      Cm = -0.0424     CD =  0.01468   =>   CDf =  0.00755    CDp =  0.00713
 plradd ia,ip,cpol            1           0  1.30262403E-02

 Point added to stored polar  1
 Point written to save file  naca2412_Re200k.base.pol                        
 Dump file unspecified or not available
 Calculating wake trajectory ...
 Calculating source influence matrix ...

 Solving BL system ...

 Side 1  free  transition at x/c =  0.9713   72
 Side 2  free  transition at x/c =  0.1855   37

   1   rms: 0.1172E+00   max: 0.7679E+00   T at   72  1   RLX: 0.706
       a = -3.500      CL = -0.2545
      Cm = -0.0410     CD =  0.01408   =>   CDf =  0.00758    CDp =  0.00650

 Side 1  free  transition at x/c =  0.9525   72
 Side 2  free  transition at x/c =  0.2130   38

   2   rms: 0.1160E+00   max: -.7675E+00   T at   38  2   RLX: 0.651
       a = -3.500      CL = -0.2236
      Cm = -0.0452     CD =  0.01398   =>   CDf =  0.00758    CDp =  0.00640

 Side 1  free  transition at x/c =  0.9589   72
 Side 2  free  transition at x/c =  0.2321   39

   3   rms: 0.7852E+00   max: -.6046E+01   T at   72  1   RLX: 0.083
       a = -3.500      CL = -0.1860
      Cm = -0.0527     CD =  0.01455   =>   CDf =  0.00763    CDp =  0.00691

 Side 1  free  transition at x/c =  0.9815   74
 Side 2  free  transition at x/c =  0.2440   39

   4   rms: 0.1075E+00   max: 0.9119E+00   C at   74  1   RLX: 0.840
       a = -3.500      CL = -0.1821
      Cm = -0.0527     CD =  0.01330   =>   CDf =  0.00769    CDp =  0.00561

 MRCHDU: Convergence failed at  42  side 2    Res =  0.2966E+01
 MRCHDU: Convergence failed at  43  side 2    Res =  0.3218E+02
 MRCHDU: Convergence failed at  44  side 2    Res =  0.1643E+02
 MRCHDU: Convergence failed at  45  side 2    Res =  0.1183E+02
 MRCHDU: Convergence failed at  46  side 2    Res =  0.1401E+02
 MRCHDU: Convergence failed at  47  side 2    Res =  0.2387E+02
 MRCHDU: Convergence failed at  48  side 2    Res =  0.3607E+02
 MRCHDU: Convergence failed at  49  side 2    Res =  0.1526E+03
 MRCHDU: Convergence failed at  50  side 2    Res =  0.5651E+02
 MRCHDU: Convergence failed at  51  side 2    Res =  0.2555E+02
 MRCHDU: Convergence failed at  52  side 2    Res =  0.1725E+02
 MRCHDU: Convergence failed at  53  side 2    Res =  0.1347E+02
 MRCHDU: Convergence failed at  54  side 2    Res =  0.1139E+02
 MRCHDU: Convergence failed at  55  side 2    Res =  0.9610E+01
 MRCHDU: Convergence failed at  56  side 2    Res =  0.8805E+01
 MRCHDU: Convergence failed at  57  side 2    Res =  0.8305E+01
 MRCHDU: Convergence failed at  58  side 2    Res =  0.7869E+01
 MRCHDU: Convergence failed at  59  side 2    Res =  0.7515E+01
 MRCHDU: Convergence failed at  60  side 2    Res =  0.7262E+01
 MRCHDU: Convergence failed at  61  side 2    Res =  0.7076E+01
 MRCHDU: Convergence failed at  62  side 2    Res =  0.6991E+01
 MRCHDU: Convergence failed at  63  side 2    Res =  0.6881E+01
 MRCHDU: Convergence failed at  64  side 2    Res =  0.6787E+01
 MRCHDU: Convergence failed at  65  side 2    Res =  0.6707E+01
 MRCHDU: Convergence failed at  66  side 2    Res =  0.6640E+01
 MRCHDU: Convergence failed at  67  side 2    Res =  0.6584E+01
 MRCHDU: Convergence failed at  68  side 2    Res =  0.6531E+01
 MRCHDU: Convergence failed at  69  side 2    Res =  0.6456E+01
 MRCHDU: Convergence failed at  70  side 2    Res =  0.6407E+01
 MRCHDU: Convergence failed at  71  side 2    Res =  0.6329E+01
 MRCHDU: Convergence failed at  72  side 2    Res =  0.6257E+01
 MRCHDU: Convergence failed at  73  side 2    Res =  0.6163E+01
 MRCHDU: Convergence failed at  74  side 2    Res =  0.6072E+01
 MRCHDU: Convergence failed at  75  side 2    Res =  0.5978E+01
 MRCHDU: Convergence failed at  76  side 2    Res =  0.5879E+01
 MRCHDU: Convergence failed at  77  side 2    Res =  0.5732E+01
 MRCHDU: Convergence failed at  78  side 2    Res =  0.5635E+01
 MRCHDU: Convergence failed at  79  side 2    Res =  0.5541E+01
 MRCHDU: Convergence failed at  80  side 2    Res =  0.6214E+01
 MRCHDU: Convergence failed at  81  side 2    Res =  0.6699E+01
 MRCHDU: Convergence failed at  82  side 2    Res =  0.7481E+01
 MRCHDU: Convergence failed at  83  side 2    Res =  0.8350E+01
 MRCHDU: Convergence failed at  84  side 2    Res =  0.9376E+01
 MRCHDU: Convergence failed at  85  side 2    Res =  0.1069E+02
 MRCHDU: Convergence failed at  86  side 2    Res =  0.1144E+02
 Side 1  free  transition at x/c =  0.9719   73
 Side 2  free  transition at x/c =  0.2781   42

   5   rms: 0.2940E+00   max: 0.1022E+01   D at   90  2   RLX: 0.698
       a = -3.500      CL = -0.2514
      Cm = -0.0178     CD =  0.01017   =>   CDf =  0.00375    CDp =  0.00642

 Side 1  free  transition at x/c =  0.9848   75
 Side 2  free  transition at x/c =  0.2930   42

   6   rms: 0.1020E+00   max: 0.4524E+00   T at   76  1
       a = -3.500      CL = -0.1844
      Cm = -0.0525     CD =  0.01316   =>   CDf =  0.00767    CDp =  0.00549

 Side 1  free  transition at x/c =  0.9727   74
 Side 2  free  transition at x/c =  0.2754   41

   7   rms: 0.3847E-01   max: 0.3382E+00   T at   74  1
       a = -3.500      CL = -0.2011
      Cm = -0.0488     CD =  0.01384   =>   CDf =  0.00720    CDp =  0.00664

 Side 1  free  transition at x/c =  0.9615   73
 Side 2  free  transition at x/c =  0.2660   41

   8   rms: 0.1405E-01   max: -.1998E+00   D at   73  1
       a = -3.500      CL = -0.2093
      Cm = -0.0469     CD =  0.01388   =>   CDf =  0.00719    CDp =  0.00669

 Side 1  free  transition at x/c =  0.9590   73
 Side 2  free  transition at x/c =  0.2619   41

   9   rms: 0.5800E-02   max: -.3460E-01   D at   76  1
       a = -3.500      CL = -0.2078
      Cm = -0.0472     CD =  0.01384   =>   CDf =  0.00722    CDp =  0.00663

 Side 1  free  transition at x/c =  0.9600   73
 Side 2  free  transition at x/c =  0.2629   41

  10   rms: 0.2136E-03   max: -.1880E-02   D at   73  1
       a = -3.500      CL = -0.2077
      Cm = -0.0472     CD =  0.01384   =>   CDf =  0.00720    CDp =  0.00664

 Side 1  free  transition at x/c =  0.9600   73
 Side 2  free  transition at x/c =  0.2629   41

  11   rms: 0.6045E-05   max: -.2110E-04   T at   86  2
       a = -3.500      CL = -0.2077
      Cm = -0.0472     CD =  0.01384   =>   CDf =  0.00720    CDp =  0.00664
 plradd ia,ip,cpol            2           0  1.61436759E-02

 Point added to stored polar  1
 Point written to save file  naca2412_Re200k.base.pol                        
 Dump file unspecified or not available
 Calculating wake trajectory ...
 Calculating source influence matrix ...

 Solving BL system ...

 Side 1  free  transition at x/c =  0.9600   73
 Side 2  free  transition at x/c =  0.2629   41

   1   rms: 0.1777E+00   max: -.1660E+01   C at   41  2   RLX: 0.301
       a = -3.000      CL = -0.1823
      Cm = -0.0492     CD =  0.01350   =>   CDf =  0.00720    CDp =  0.00629

 Side 1  free  transition at x/c =  0.9582   72
 Side 2  free  transition at x/c =  0.2872   42

   2   rms: 0.9242E-01   max: 0.1115E+01   T at   72  1   RLX: 0.591
       a = -3.000      CL = -0.1942
      Cm = -0.0419     CD =  0.01362   =>   CDf =  0.00720    CDp =  0.00642

 Side 1  free  transition at x/c =  0.9334   72
 Side 2  free  transition at x/c =  0.3041   42

   3   rms: 0.1551E+00   max: -.1902E+01   D at    2  1   RLX: 0.263
       a = -3.000      CL = -0.1798
      Cm = -0.0436     CD =  0.01488   =>   CDf =  0.00705    CDp =  0.00783

 Side 1  free  transition at x/c =  0.9373   72
 Side 2  free  transition at x/c =  0.3149   43

   4   rms: 0.1019E+00   max: -.7950E+00   C at   43  2   RLX: 0.629
       a = -3.000      CL = -0.1446
      Cm = -0.0497     CD =  0.01353   =>   CDf =  0.00706    CDp =  0.00646

 Side 1  free  transition at x/c =  0.9477   73
 Side 2  free  transition at x/c =  0.3362   44

   5   rms: 0.3391E-01   max: -.3094E+00   C at   44  2
       a = -3.000      CL = -0.1335
      Cm = -0.0513     CD =  0.01303   =>   CDf =  0.00703    CDp =  0.00600

 Side 1  free  transition at x/c =  0.9475   73
 Side 2  free  transition at x/c =  0.3617   46

   6   rms: 0.1092E-01   max: -.1429E+00   C at   46  2
       a = -3.000      CL = -0.1339
      Cm = -0.0512     CD =  0.01300   =>   CDf =  0.00687    CDp =  0.00613

 Side 1  free  transition at x/c =  0.9475   73
 Side 2  free  transition at x/c =  0.3637   46

   7   rms: 0.8368E-03   max: 0.1225E-01   C at   46  2
       a = -3.000      CL = -0.1339
      Cm = -0.0512     CD =  0.01300   =>   CDf =  0.00678    CDp =  0.00623

 Side 1  free  transition at x/c =  0.9475   73
 Side 2  free  transition at x/c =  0.3634   46

   8   rms: 0.3807E-05   max: -.3567E-04   D at   46  2
       a = -3.000      CL = -0.1339
      Cm = -0.0512     CD =  0.01300   =>   CDf =  0.00678    CDp =  0.00622
 plradd ia,ip,cpol            3           0  1.61436759E-02

 Point added to stored polar  1
 Point written to save file  naca2412_Re200k.base.pol                        
 Dump file unspecified or not available
 Calculating wake trajectory ...
 Calculating source influence matrix ...

 Solving BL system ...

 Side 1  free  transition at x/c =  0.9475   73
 Side 2  free  transition at x/c =  0.3634   46

   1   rms: 0.1682E+00   max: -.1865E+01   C at   46  2   RLX: 0.268
       a = -2.500      CL = -0.1116
      Cm = -0.0528     CD =  0.01270   =>   CDf =  0.00678    CDp =  0.00592

 Side 1  free  transition at x/c =  0.9455   73
 Side 2  free  transition at x/c =  0.3857   47

   2   rms: 0.1053E+00   max: -.7112E+00   C at   47  2   RLX: 0.703
       a = -2.500      CL = -0.0644
      Cm = -0.0566     CD =  0.01242   =>   CDf =  0.00677    CDp =  0.00564

 Side 1  free  transition at x/c =  0.9430   73
 Side 2  free  transition at x/c =  0.4368   49

   3   rms: 0.6601E-01   max: 0.6082E+00   T at   73  1
       a = -2.500      CL = -0.1024
      Cm = -0.0464     CD =  0.01247   =>   CDf =  0.00653    CDp =  0.00593

 Side 1  free  transition at x/c =  0.9156   72
 Side 2  free  transition at x/c =  0.4512   50

   4   rms: 0.8221E-01   max: -.5181E+00   C at   50  2   RLX: 0.965
       a = -2.500      CL = -0.0633
      Cm = -0.0542     CD =  0.01198   =>   CDf =  0.00641    CDp =  0.00557

 Side 1  free  transition at x/c =  0.9354   73
 Side 2  free  transition at x/c =  0.4763   52

   5   rms: 0.1786E-01   max: -.2702E+00   C at   52  2
       a = -2.500      CL = -0.0617
      Cm = -0.0546     CD =  0.01206   =>   CDf =  0.00636    CDp =  0.00570

 Side 1  free  transition at x/c =  0.9347   73
 Side 2  free  transition at x/c =  0.4846   52

   6   rms: 0.1039E-02   max: -.1382E-01   C at   52  2
       a = -2.500      CL = -0.0617
      Cm = -0.0546     CD =  0.01209   =>   CDf =  0.00625    CDp =  0.00584

 Side 1  free  transition at x/c =  0.9346   73
 Side 2  free  transition at x/c =  0.4848   52

   7   rms: 0.8514E-05   max: 0.1365E-03   C at   52  2
       a = -2.500      CL = -0.0617
      Cm = -0.0546     CD =  0.01209   =>   CDf =  0.00625    CDp =  0.00584
 plradd ia,ip,cpol            4           0  1.61436759E-02

 Point added to stored polar  1
 Point written to save file  naca2412_Re200k.base.pol                        
 Dump file unspecified or not available
 Calculating wake trajectory ...
 Calculating source influence matrix ...

 Solving BL system ...

 Side 1  free  transition at x/c =  0.9346   73
 Side 2  free  transition at x/c =  0.4848   52

   1   rms: 0.1656E+00   max: -.2192E+01   C at   52  2   RLX: 0.228
       a = -2.000      CL = -0.0448
      Cm = -0.0554     CD =  0.01187   =>   CDf =  0.00625    CDp =  0.00562

 Side 1  free  transition at x/c =  0.9320   73
 Side 2  free  transition at x/c =  0.5137   54

   2   rms: 0.1382E+00   max: -.1805E+01   C at   54  2   RLX: 0.277
       a = -2.000      CL = -0.0279
      Cm = -0.0563     CD =  0.01170   =>   CDf =  0.00617    CDp =  0.00553

 Side 1  free  transition at x/c =  0.9302   73
 Side 2  free  transition at x/c =  0.5380   55

   3   rms: 0.7945E-01   max: -.7203E+00   C at   55  2   RLX: 0.694
       a = -2.000      CL =  0.0038
      Cm = -0.0581     CD =  0.01145   =>   CDf =  0.00611    CDp =  0.00534

 Side 1  free  transition at x/c =  0.9276   73
 Side 2  free  transition at x/c =  0.5983   58

   4   rms: 0.4573E-01   max: -.4475E+00   C at   58  2
       a = -2.000      CL = -0.0177
      Cm = -0.0516     CD =  0.01145   =>   CDf =  0.00586    CDp =  0.00558

 Side 1  free  transition at x/c =  0.9085   72
 Side 2  free  transition at x/c =  0.6126   59

   5   rms: 0.1561E+00   max: -.9642E+00   T at   72  1   RLX: 0.519
       a = -2.000      CL =  0.0343
      Cm = -0.0613     CD =  0.01156   =>   CDf =  0.00578    CDp =  0.00578

 MRCHDU: Convergence failed at  76  side 1    Res =  0.1021E+01
 MRCHDU: Convergence failed at  77  side 1    Res =  0.1997E+01
 MRCHDU: Convergence failed at  78  side 1    Res =  0.3490E+01
 MRCHDU: Convergence failed at  79  side 1    Res =  0.4995E+01
 Side 1  free  transition at x/c =  0.9429   74
 Side 2  free  transition at x/c =  0.6423   60
 idif Ue xi dudx           1  0.13888247      1.86991692E-03   74.272003    
 Uenew xinew           2  7.43728655E-04  1.00135803E-05

   6   rms: 0.1466E+00   max: 0.8354E+00   D at   79  1
       a = -2.000      CL = -0.0355
      Cm = -0.0479     CD =  0.01027   =>   CDf =  0.00578    CDp =  0.00450

 Side 1  free  transition at x/c =  0.9043   71
 Side 2  free  transition at x/c =  0.5972   59

   7   rms: 0.6709E+00   max: -.1173E+02   D at    2  2   RLX: 0.043
       a = -2.000      CL = -0.0338
      Cm = -0.0476     CD =  0.01376   =>   CDf =  0.00584    CDp =  0.00793

 Side 1  free  transition at x/c =  0.9054   72
 Side 2  free  transition at x/c =  0.5993   58

   8   rms: 0.1950E+00   max: -.2663E+01   D at    2  1   RLX: 0.188
       a = -2.000      CL = -0.0197
      Cm = -0.0505     CD =  0.01319   =>   CDf =  0.00584    CDp =  0.00735

 Side 1  free  transition at x/c =  0.9115   72
 Side 2  free  transition at x/c =  0.6094   59
 idif Ue xi dudx           1  0.16613381      2.26879120E-03   73.225693    
 Uenew xinew           2  2.99410969E-02  4.08887863E-04

   9   rms: 0.1275E+00   max: 0.1066E+01   T at   72  1   RLX: 0.497
       a = -2.000      CL = -0.0628
      Cm = -0.0424     CD =  0.01277   =>   CDf =  0.00585    CDp =  0.00692

 Side 1  free  transition at x/c =  0.8894   70
 Side 2  free  transition at x/c =  0.5801   58

  10   rms: 0.1688E+00   max: -.9475E+00   C at   58  2   RLX: 0.528
       a = -2.000      CL = -0.0122
      Cm = -0.0513     CD =  0.01293   =>   CDf =  0.00587    CDp =  0.00706

 Side 1  free  transition at x/c =  0.9181   73
 Side 2  free  transition at x/c =  0.6120   59

  11   rms: 0.3303E-01   max: -.3251E+00   C at   59  2
       a = -2.000      CL =  0.0056
      Cm = -0.0562     CD =  0.01120   =>   CDf =  0.00582    CDp =  0.00538

 Side 1  free  transition at x/c =  0.9205   73
 Side 2  free  transition at x/c =  0.6319   60

  12   rms: 0.3835E-02   max: -.5050E-01   C at   60  2
       a = -2.000      CL =  0.0038
      Cm = -0.0558     CD =  0.01123   =>   CDf =  0.00570    CDp =  0.00553

 Side 1  free  transition at x/c =  0.9201   73
 Side 2  free  transition at x/c =  0.6325   60

  13   rms: 0.8674E-04   max: 0.1270E-02   C at   60  2
       a = -2.000      CL =  0.0038
      Cm = -0.0558     CD =  0.01123   =>   CDf =  0.00568    CDp =  0.00555
 plradd ia,ip,cpol            5           0  1.97499525E-02

 Point added to stored polar  1
 Point written to save file  naca2412_Re200k.base.pol                        
 Dump file unspecified or not available
 Calculating wake trajectory ...
 Calculating source influence matrix ...

 Solving BL system ...

 Side 1  free  transition at x/c =  0.9201   73
 Side 2  free  transition at x/c =  0.6325   60

   1   rms: 0.1460E+00   max: -.1772E+01   C at   60  2   RLX: 0.282
       a = -1.500      CL =  0.0215
      Cm = -0.0559     CD =  0.01099   =>   CDf =  0.00568    CDp =  0.00531

 Side 1  free  transition at x/c =  0.9157   73
 Side 2  free  transition at x/c =  0.6635   62

   2   rms: 0.1075E+00   max: -.1198E+01   C at   62  2   RLX: 0.417
       a = -1.500      CL =  0.0429
      Cm = -0.0565     CD =  0.01081   =>   CDf =  0.00561    CDp =  0.00520

 Side 1  free  transition at x/c =  0.9128   72
 Side 2  free  transition at x/c =  0.6937   64

   3   rms: 0.6864E-01   max: -.8110E+00   C at   64  2   RLX: 0.617
       a = -1.500      CL =  0.0405
      Cm = -0.0532     CD =  0.01082   =>   CDf =  0.00559    CDp =  0.00523

 Side 1  free  transition at x/c =  0.8965   71
 Side 2  free  transition at x/c =  0.7159   65

   4   rms: 0.1047E+00   max: -.6706E+00   C at   65  2   RLX: 0.746
       a = -1.500      CL =  0.0749
      Cm = -0.0568     CD =  0.01039   =>   CDf =  0.00544    CDp =  0.00495

 MRCHDU: Convergence failed at  75  side 1    Res =  0.5983E+01
 MRCHDU: Convergence failed at  76  side 1    Res =  0.1372E+02
 MRCHDU: Convergence failed at  77  side 1    Res =  0.8104E+01
 MRCHDU: Convergence failed at  78  side 1    Res =  0.6565E+01
 MRCHDU: Convergence failed at  79  side 1    Res =  0.6684E+01
 MRCHDU: Convergence failed at  80  side 1    Res =  0.7499E+01
 Side 1  free  transition at x/c =  0.9306   75
 Side 2  free  transition at x/c =  0.7473   66

   5   rms: 0.1877E+00   max: 0.1397E+01   C at   75  1
       a = -1.500      CL =  0.0547
      Cm = -0.0541     CD =  0.00941   =>   CDf =  0.00532    CDp =  0.00408

 Side 1  free  transition at x/c =  0.8908   72
 Side 2  free  transition at x/c =  0.7589   66

   6   rms: 0.9245E-01   max: -.5791E+00   D at   74  1   RLX: 0.863
       a = -1.500      CL =  0.0902
      Cm = -0.0602     CD =  0.01080   =>   CDf =  0.00521    CDp =  0.00558

 Side 1  free  transition at x/c =  0.9193   74
 Side 2  free  transition at x/c =  0.7748   67

   7   rms: 0.4864E-01   max: 0.3211E+00   D at   75  1
       a = -1.500      CL =  0.0770
      Cm = -0.0577     CD =  0.01026   =>   CDf =  0.00519    CDp =  0.00507

 Side 1  free  transition at x/c =  0.9112   73
 Side 2  free  transition at x/c =  0.7676   67
 idif Ue xi dudx           1  0.14335634      1.78778172E-03   80.186714    
 Uenew xinew           2  2.17945222E-03  2.71797180E-05

   8   rms: 0.3580E-01   max: 0.2313E+00   T at   73  1
       a = -1.500      CL =  0.0506
      Cm = -0.0526     CD =  0.01070   =>   CDf =  0.00522    CDp =  0.00547

 Side 1  free  transition at x/c =  0.8959   71
 Side 2  free  transition at x/c =  0.7559   67

   9   rms: 0.9041E-01   max: -.1204E+01   D at    2  2   RLX: 0.415
       a = -1.500      CL =  0.0618
      Cm = -0.0538     CD =  0.01078   =>   CDf =  0.00524    CDp =  0.00554

 Side 1  free  transition at x/c =  0.9087   73
 Side 2  free  transition at x/c =  0.7611   67

  10   rms: 0.2412E-01   max: 0.1960E+00   D at   74  1
       a = -1.500      CL =  0.0644
      Cm = -0.0552     CD =  0.01049   =>   CDf =  0.00526    CDp =  0.00524

 Side 1  free  transition at x/c =  0.9047   73
 Side 2  free  transition at x/c =  0.7624   67

  11   rms: 0.3723E-02   max: 0.2850E-01   D at   74  1
       a = -1.500      CL =  0.0627
      Cm = -0.0549     CD =  0.01055   =>   CDf =  0.00522    CDp =  0.00532

 Side 1  free  transition at x/c =  0.9033   73
 Side 2  free  transition at x/c =  0.7616   67

  12   rms: 0.2838E-03   max: -.2237E-02   D at   75  1
       a = -1.500      CL =  0.0627
      Cm = -0.0549     CD =  0.01054   =>   CDf =  0.00522    CDp =  0.00532

 Side 1  free  transition at x/c =  0.9033   73
 Side 2  free  transition at x/c =  0.7617   67

  13   rms: 0.3532E-05   max: 0.3409E-04   C at   67  2
       a = -1.500      CL =  0.0627
      Cm = -0.0549     CD =  0.01054   =>   CDf =  0.00522    CDp =  0.00532
 plradd ia,ip,cpol            6           0  1.97499525E-02

 Point added to stored polar  1
 Point written to save file  naca2412_Re200k.base.pol                        
 Dump file unspecified or not available
 Calculating wake trajectory ...
 Calculating source influence matrix ...

 Solving BL system ...

 Side 1  free  transition at x/c =  0.9033   73
 Side 2  free  transition at x/c =  0.7617   67

   1   rms: 0.1363E+00   max: -.1518E+01   C at   67  2   RLX: 0.329
       a = -1.000      CL =  0.0815
      Cm = -0.0542     CD =  0.01031   =>   CDf =  0.00523    CDp =  0.00509

 Side 1  free  transition at x/c =  0.8978   73
 Side 2  free  transition at x/c =  0.7897   68

   2   rms: 0.7286E-01   max: -.3160E+00   T at   68  2
       a = -1.000      CL =  0.1257
      Cm = -0.0547     CD =  0.01005   =>   CDf =  0.00520    CDp =  0.00485

 MRCHDU: Convergence failed at  74  side 2    Res =  0.1684E+01
 MRCHDU: Convergence failed at  75  side 2    Res =  0.1234E+01
 MRCHDU: Convergence failed at  76  side 2    Res =  0.1634E+01
 MRCHDU: Convergence failed at  77  side 2    Res =  0.2098E+01
 MRCHDU: Convergence failed at  78  side 2    Res =  0.2586E+01
 MRCHDU: Convergence failed at  79  side 2    Res =  0.2990E+01
 MRCHDU: Convergence failed at  80  side 2    Res =  0.3296E+01
 MRCHDU: Convergence failed at  81  side 2    Res =  0.3459E+01
 MRCHDU: Convergence failed at  82  side 2    Res =  0.3610E+01
 Side 1  free  transition at x/c =  0.8904   72
 Side 2  free  transition at x/c =  0.8799   74

   3   rms: 0.7829E-01   max: 0.4673E+00   T at   82  2
       a = -1.000      CL =  0.1266
      Cm = -0.0544     CD =  0.01010   =>   CDf =  0.00488    CDp =  0.00522

 Side 1  free  transition at x/c =  0.8831   72
 Side 2  free  transition at x/c =  0.8657   73

   4   rms: 0.1310E-01   max: 0.9520E-01   D at   84  2
       a = -1.000      CL =  0.1193
      Cm = -0.0528     CD =  0.01017   =>   CDf =  0.00501    CDp =  0.00516

 Side 1  free  transition at x/c =  0.8847   72
 Side 2  free  transition at x/c =  0.8693   73

   5   rms: 0.1026E-02   max: -.1088E-01   D at   84  2
       a = -1.000      CL =  0.1195
      Cm = -0.0528     CD =  0.01017   =>   CDf =  0.00499    CDp =  0.00519

 Side 1  free  transition at x/c =  0.8846   72
 Side 2  free  transition at x/c =  0.8688   73

   6   rms: 0.8342E-05   max: -.1132E-03   D at   84  2
       a = -1.000      CL =  0.1195
      Cm = -0.0528     CD =  0.01017   =>   CDf =  0.00499    CDp =  0.00518
 plradd ia,ip,cpol            7           0  1.97499525E-02

 Point added to stored polar  1
 Point written to save file  naca2412_Re200k.base.pol                        
 Dump file unspecified or not available
 Calculating wake trajectory ...
 Calculating source influence matrix ...

 Solving BL system ...

 Side 1  free  transition at x/c =  0.8846   72
 Side 2  free  transition at x/c =  0.8688   73

   1   rms: 0.1135E+00   max: -.5802E+00   C at   73  2   RLX: 0.862
       a = -0.500      CL =  0.1750
      Cm = -0.0520     CD =  0.00987   =>   CDf =  0.00500    CDp =  0.00486

 Side 1  free  transition at x/c =  0.8709   72
 Side 2  free  transition at x/c =  0.9283   76

   2   rms: 0.3278E-01   max: 0.1945E+00   D at   81  2
       a = -0.500      CL =  0.1960
      Cm = -0.0548     CD =  0.01010   =>   CDf =  0.00500    CDp =  0.00511

 Side 1  free  transition at x/c =  0.8633   71
 Side 2  free  transition at x/c =  0.9379   76

   3   rms: 0.2108E-01   max: -.1495E+00   D at   79  2
       a = -0.500      CL =  0.1900
      Cm = -0.0536     CD =  0.01006   =>   CDf =  0.00502    CDp =  0.00504

 Side 1  free  transition at x/c =  0.8651   71
 Side 2  free  transition at x/c =  0.9479   77

   4   rms: 0.9755E-02   max: 0.7208E-01   C at   77  2
       a = -0.500      CL =  0.1933
      Cm = -0.0542     CD =  0.01005   =>   CDf =  0.00503    CDp =  0.00502

 Side 1  free  transition at x/c =  0.8657   72
 Side 2  free  transition at x/c =  0.9446   77

   5   rms: 0.1730E-02   max: -.2738E-01   D at   71  1
       a = -0.500      CL =  0.1931
      Cm = -0.0542     CD =  0.01007   =>   CDf =  0.00503    CDp =  0.00504

 Side 1  free  transition at x/c =  0.8653   72
 Side 2  free  transition at x/c =  0.9446   77

   6   rms: 0.1189E-03   max: 0.8849E-03   T at   73  1
       a = -0.500      CL =  0.1930
      Cm = -0.0542     CD =  0.01007   =>   CDf =  0.00502    CDp =  0.00505

 Side 1  free  transition at x/c =  0.8653   72
 Side 2  free  transition at x/c =  0.9446   77

   7   rms: 0.1543E-05   max: -.1024E-04   D at   81  2
       a = -0.500      CL =  0.1930
      Cm = -0.0542     CD =  0.01007   =>   CDf =  0.00502    CDp =  0.00505
 plradd ia,ip,cpol            8           0  0.22258945    

 Point added to stored polar  1
 Point written to save file  naca2412_Re200k.base.pol                        
 Dump file unspecified or not available
 Calculating wake trajectory ...
 Calculating source influence matrix ...

 Solving BL system ...

 Side 1  free  transition at x/c =  0.8653   72
 Side 2  free  transition at x/c =  0.9446   77

   1   rms: 0.1307E+00   max: 0.4829E+00   D at   81  2
       a =  0.000      CL =  0.2974
      Cm = -0.0622     CD =  0.00986   =>   CDf =  0.00505    CDp =  0.00481

 Side 1  free  transition at x/c =  0.8498   72
 Side 2  free  transition at x/c =  0.9636   77

   2   rms: 0.4182E-01   max: -.2548E+00   D at   79  2
       a =  0.000      CL =  0.2770
      Cm = -0.0587     CD =  0.00998   =>   CDf =  0.00511    CDp =  0.00487

 Side 1  free  transition at x/c =  0.8409   71
 Side 2  free  transition at x/c =  0.9884   79

   3   rms: 0.2851E-01   max: 0.2801E+00   C at   79  2
       a =  0.000      CL =  0.2828
      Cm = -0.0601     CD =  0.00998   =>   CDf =  0.00517    CDp =  0.00481

 Side 1  free  transition at x/c =  0.8387   71
 Side 2  free  transition at x/c =  0.9814   78

   4   rms: 0.4973E-02   max: 0.3345E-01   D at   80  2
       a =  0.000      CL =  0.2864
      Cm = -0.0609     CD =  0.01001   =>   CDf =  0.00517    CDp =  0.00484

 Side 1  free  transition at x/c =  0.8392   71
 Side 2  free  transition at x/c =  0.9785   78

   5   rms: 0.7990E-03   max: -.7534E-02   D at   80  2
       a =  0.000      CL =  0.2860
      Cm = -0.0608     CD =  0.01001   =>   CDf =  0.00516    CDp =  0.00485

 Side 1  free  transition at x/c =  0.8392   71
 Side 2  free  transition at x/c =  0.9789   78

   6   rms: 0.1041E-04   max: -.1059E-03   D at   80  2
       a =  0.000      CL =  0.2860
      Cm = -0.0608     CD =  0.01001   =>   CDf =  0.00516    CDp =  0.00485
 plradd ia,ip,cpol            9           0  0.19216964    

 Point added to stored polar  1
 Point written to save file  naca2412_Re200k.base.pol                        
 Dump file unspecified or not available
 Calculating wake trajectory ...
 Calculating source influence matrix ...

 Solving BL system ...

 Side 1  free  transition at x/c =  0.8392   71
 Side 2  free  transition at x/c =  0.9789   78

   1   rms: 0.1187E+00   max: -.3302E+00   T at   78  2
       a =  0.500      CL =  0.3827
      Cm = -0.0684     CD =  0.00984   =>   CDf =  0.00518    CDp =  0.00466

 Side 1  free  transition at x/c =  0.8119   70
 Side 2 forced transition at x/c =  1.0000   79

   2   rms: 0.1807E-01   max: -.2496E+00   D at   71  1
       a =  0.500      CL =  0.3795
      Cm = -0.0682     CD =  0.00985   =>   CDf =  0.00532    CDp =  0.00452

 Side 1  free  transition at x/c =  0.8082   70
 Side 2 forced transition at x/c =  1.0000   79

   3   rms: 0.5929E-03   max: 0.1127E-01   D at   71  1
       a =  0.500      CL =  0.3797
      Cm = -0.0682     CD =  0.00985   =>   CDf =  0.00535    CDp =  0.00451

 Side 1  free  transition at x/c =  0.8081   70
 Side 2 forced transition at x/c =  1.0000   79

   4   rms: 0.3320E-05   max: 0.5277E-04   D at   71  1
       a =  0.500      CL =  0.3797
      Cm = -0.0682     CD =  0.00985   =>   CDf =  0.00534    CDp =  0.00451
 plradd ia,ip,cpol           10           0  0.13323775    

 Point added to stored polar  1
 Point written to save file  naca2412_Re200k.base.pol                        
 Dump file unspecified or not available
 Calculating wake trajectory ...
 Calculating source influence matrix ...

 Solving BL system ...

 Side 1  free  transition at x/c =  0.8081   70
 Side 2 forced transition at x/c =  1.0000   79

   1   rms: 0.8711E-01   max: -.1697E+00   n at   78  2
       a =  1.000      CL =  0.4252
      Cm = -0.0662     CD =  0.00974   =>   CDf =  0.00536    CDp =  0.00438

 Side 1  free  transition at x/c =  0.7726   69
 Side 2 forced transition at x/c =  1.0000   78

   2   rms: 0.2690E-01   max: -.3452E+00   D at   70  1
       a =  1.000      CL =  0.4260
      Cm = -0.0662     CD =  0.00974   =>   CDf =  0.00556    CDp =  0.00418

 Side 1  free  transition at x/c =  0.7733   69
 Side 2 forced transition at x/c =  1.0000   78

   3   rms: 0.3407E-02   max: 0.3405E-01   D at   70  1
       a =  1.000      CL =  0.4258
      Cm = -0.0662     CD =  0.00980   =>   CDf =  0.00554    CDp =  0.00426

 Side 1  free  transition at x/c =  0.7719   69
 Side 2 forced transition at x/c =  1.0000   78

   4   rms: 0.8247E-04   max: -.1025E-02   D at   69  1
       a =  1.000      CL =  0.4258
      Cm = -0.0662     CD =  0.00980   =>   CDf =  0.00556    CDp =  0.00424
 plradd ia,ip,cpol           11           0  0.13323775    

 Point added to stored polar  1
 Point written to save file  naca2412_Re200k.base.pol                        
 Dump file unspecified or not available
 Calculating wake trajectory ...
 Calculating source influence matrix ...

 Solving BL system ...

 Side 1  free  transition at x/c =  0.7719   69
 Side 2 forced transition at x/c =  1.0000   78

   1   rms: 0.8876E-01   max: -.1286E+00   n at   77  2
       a =  1.500      CL =  0.4743
      Cm = -0.0643     CD =  0.00980   =>   CDf =  0.00556    CDp =  0.00425

 Side 1  free  transition at x/c =  0.7397   68
 Side 2 forced transition at x/c =  1.0000   77

   2   rms: 0.2748E-01   max: -.3321E+00   D at   69  1
       a =  1.500      CL =  0.4723
      Cm = -0.0641     CD =  0.00979   =>   CDf =  0.00570    CDp =  0.00409

 Side 1  free  transition at x/c =  0.7361   68
 Side 2 forced transition at x/c =  1.0000   77

   3   rms: 0.1904E-02   max: -.1689E-01   D at   72  1
       a =  1.500      CL =  0.4728
      Cm = -0.0642     CD =  0.00988   =>   CDf =  0.00577    CDp =  0.00411

 Side 1  free  transition at x/c =  0.7356   68
 Side 2 forced transition at x/c =  1.0000   77

   4   rms: 0.2452E-04   max: -.3104E-03   D at   68  1
       a =  1.500      CL =  0.4728
      Cm = -0.0642     CD =  0.00988   =>   CDf =  0.00578    CDp =  0.00410
 plradd ia,ip,cpol           12           0  0.11924167    

 Point added to stored polar  1
 Point written to save file  naca2412_Re200k.base.pol                        
 Dump file unspecified or not available
 Calculating wake trajectory ...
 Calculating source influence matrix ...

 Solving BL system ...

 Side 1  free  transition at x/c =  0.7356   68
 Side 2 forced transition at x/c =  1.0000   77

   1   rms: 0.9170E-01   max: -.4136E+00   D at   70  1
       a =  2.000      CL =  0.5235
      Cm = -0.0626     CD =  0.01007   =>   CDf =  0.00577    CDp =  0.00430

 Side 1  free  transition at x/c =  0.7045   67
 Side 2 forced transition at x/c =  1.0000   76

   2   rms: 0.2874E-01   max: -.2903E+00   D at   70  1
       a =  2.000      CL =  0.5194
      Cm = -0.0621     CD =  0.00994   =>   CDf =  0.00586    CDp =  0.00408

 Side 1  free  transition at x/c =  0.6997   66
 Side 2 forced transition at x/c =  1.0000   76

   3   rms: 0.3471E-02   max: 0.4067E-01   D at   67  1
       a =  2.000      CL =  0.5193
      Cm = -0.0621     CD =  0.01005   =>   CDf =  0.00595    CDp =  0.00410

 Side 1  free  transition at x/c =  0.6970   66
 Side 2 forced transition at x/c =  1.0000   76

   4   rms: 0.5257E-03   max: -.5091E-02   C at   66  1
       a =  2.000      CL =  0.5193
      Cm = -0.0621     CD =  0.01005   =>   CDf =  0.00595    CDp =  0.00410

 Side 1  free  transition at x/c =  0.6973   66
 Side 2 forced transition at x/c =  1.0000   76

   5   rms: 0.3307E-05   max: -.3266E-04   D at   69  1
       a =  2.000      CL =  0.5193
      Cm = -0.0621     CD =  0.01005   =>   CDf =  0.00595    CDp =  0.00410
 plradd ia,ip,cpol           13           0  5.83122671E-02

 Point added to stored polar  1
 Point written to save file  naca2412_Re200k.base.pol                        
 Dump file unspecified or not available
 Calculating wake trajectory ...
 Calculating source influence matrix ...

 Solving BL system ...

 Side 1  free  transition at x/c =  0.6973   66
 Side 2 forced transition at x/c =  1.0000   76

   1   rms: 0.8274E-01   max: 0.3813E+00   T at   66  1
       a =  2.500      CL =  0.5651
      Cm = -0.0601     CD =  0.01026   =>   CDf =  0.00596    CDp =  0.00430

 Side 1  free  transition at x/c =  0.6569   64
 Side 2 forced transition at x/c =  1.0000   76

   2   rms: 0.3245E-01   max: -.4086E+00   D at   65  1
       a =  2.500      CL =  0.5668
      Cm = -0.0602     CD =  0.01024   =>   CDf =  0.00620    CDp =  0.00404

 Side 1  free  transition at x/c =  0.6632   64
 Side 2 forced transition at x/c =  1.0000   76

   3   rms: 0.6212E-02   max: 0.6478E-01   C at   64  1
       a =  2.500      CL =  0.5663
      Cm = -0.0601     CD =  0.01030   =>   CDf =  0.00609    CDp =  0.00421

 Side 1  free  transition at x/c =  0.6604   64
 Side 2 forced transition at x/c =  1.0000   76

   4   rms: 0.2590E-03   max: -.3133E-02   D at   64  1
       a =  2.500      CL =  0.5663
      Cm = -0.0601     CD =  0.01030   =>   CDf =  0.00613    CDp =  0.00417

 Side 1  free  transition at x/c =  0.6604   64
 Side 2 forced transition at x/c =  1.0000   76

   5   rms: 0.2167E-05   max: -.1216E-04   D at   86  1
       a =  2.500      CL =  0.5663
      Cm = -0.0601     CD =  0.01030   =>   CDf =  0.00613    CDp =  0.00417
 plradd ia,ip,cpol           14           0  1.97369214E-02

 Point added to stored polar  1
 Point written to save file  naca2412_Re200k.base.pol                        
 Dump file unspecified or not available
 Calculating wake trajectory ...
 Calculating source influence matrix ...

 Solving BL system ...

 Side 1  free  transition at x/c =  0.6604   64
 Side 2 forced transition at x/c =  1.0000   76

   1   rms: 0.8428E-01   max: -.1293E+00   C at   76  2
       a =  3.000      CL =  0.6137
      Cm = -0.0582     CD =  0.01059   =>   CDf =  0.00609    CDp =  0.00450

 Side 1  free  transition at x/c =  0.6266   63
 Side 2 forced transition at x/c =  1.0000   75

   2   rms: 0.2850E-01   max: -.3632E+00   D at   64  1
       a =  3.000      CL =  0.6136
      Cm = -0.0582     CD =  0.01054   =>   CDf =  0.00629    CDp =  0.00425

 Side 1  free  transition at x/c =  0.6272   63
 Side 2 forced transition at x/c =  1.0000   75

   3   rms: 0.4293E-02   max: 0.4692E-01   C at   63  1
       a =  3.000      CL =  0.6136
      Cm = -0.0582     CD =  0.01062   =>   CDf =  0.00626    CDp =  0.00435

 Side 1  free  transition at x/c =  0.6255   63
 Side 2 forced transition at x/c =  1.0000   75

   4   rms: 0.1289E-03   max: -.1517E-02   D at   63  1
       a =  3.000      CL =  0.6136
      Cm = -0.0582     CD =  0.01062   =>   CDf =  0.00630    CDp =  0.00432

 Side 1  free  transition at x/c =  0.6255   63
 Side 2 forced transition at x/c =  1.0000   75

   5   rms: 0.1103E-05   max: -.5043E-05   D at   86  1
       a =  3.000      CL =  0.6136
      Cm = -0.0582     CD =  0.01062   =>   CDf =  0.00630    CDp =  0.00432
 plradd ia,ip,cpol           15           0  1.97369214E-02

 Point added to stored polar  1
 Point written to save file  naca2412_Re200k.base.pol                        
 Dump file unspecified or not available
 Calculating wake trajectory ...
 Calculating source influence matrix ...

 Solving BL system ...

 Side 1  free  transition at x/c =  0.6255   63
 Side 2 forced transition at x/c =  1.0000   75

   1   rms: 0.8519E-01   max: -.1325E+00   C at   75  2
       a =  3.500      CL =  0.6617
      Cm = -0.0564     CD =  0.01100   =>   CDf =  0.00624    CDp =  0.00476

 Side 1  free  transition at x/c =  0.5954   62
 Side 2 forced transition at x/c =  1.0000   74

   2   rms: 0.2807E-01   max: -.3454E+00   D at   63  1
       a =  3.500      CL =  0.6610
      Cm = -0.0563     CD =  0.01088   =>   CDf =  0.00639    CDp =  0.00449

 Side 1  free  transition at x/c =  0.5937   62
 Side 2 forced transition at x/c =  1.0000   74

   3   rms: 0.3386E-02   max: 0.3606E-01   C at   62  1
       a =  3.500      CL =  0.6610
      Cm = -0.0563     CD =  0.01099   =>   CDf =  0.00640    CDp =  0.00459

 Side 1  free  transition at x/c =  0.5924   62
 Side 2 forced transition at x/c =  1.0000   74

   4   rms: 0.9430E-04   max: -.1148E-02   D at   62  1
       a =  3.500      CL =  0.6610
      Cm = -0.0563     CD =  0.01099   =>   CDf =  0.00643    CDp =  0.00456
 plradd ia,ip,cpol           16           0  1.97369214E-02

 Point added to stored polar  1
 Point written to save file  naca2412_Re200k.base.pol                        
 Dump file unspecified or not available
 Calculating wake trajectory ...
 Calculating source influence matrix ...

 Solving BL system ...

 Side 1  free  transition at x/c =  0.5924   62
 Side 2 forced transition at x/c =  1.0000   74

   1   rms: 0.8565E-01   max: 0.3518E+00   T at   62  1
       a =  4.000      CL =  0.7092
      Cm = -0.0545     CD =  0.01146   =>   CDf =  0.00643    CDp =  0.00503

 Side 1  free  transition at x/c =  0.5572   60
 Side 2 forced transition at x/c =  1.0000   74

   2   rms: 0.1939E-01   max: -.2760E+00   D at   60  1
       a =  4.000      CL =  0.7077
      Cm = -0.0543     CD =  0.01147   =>   CDf =  0.00661    CDp =  0.00486

 Side 1  free  transition at x/c =  0.5584   60
 Side 2 forced transition at x/c =  1.0000   74

   3   rms: 0.3066E-02   max: 0.3435E-01   D at   60  1
       a =  4.000      CL =  0.7081
      Cm = -0.0543     CD =  0.01141   =>   CDf =  0.00656    CDp =  0.00485

 Side 1  free  transition at x/c =  0.5577   60
 Side 2 forced transition at x/c =  1.0000   74

   4   rms: 0.7326E-04   max: -.9010E-03   D at   63  1
       a =  4.000      CL =  0.7081
      Cm = -0.0543     CD =  0.01141   =>   CDf =  0.00658    CDp =  0.00483
 plradd ia,ip,cpol           17           0  1.97369214E-02

 Point added to stored polar  1
 Point written to save file  naca2412_Re200k.base.pol                        
 Dump file unspecified or not available
 Calculating wake trajectory ...
 Calculating source influence matrix ...

 Solving BL system ...

 Side 1  free  transition at x/c =  0.5577   60
 Side 2 forced transition at x/c =  1.0000   74

   1   rms: 0.9424E-01   max: -.5066E+00   D at   61  1   RLX: 0.987
       a =  4.500      CL =  0.7551
      Cm = -0.0524     CD =  0.01202   =>   CDf =  0.00649    CDp =  0.00553

 Side 1  free  transition at x/c =  0.5216   58
 Side 2 forced transition at x/c =  1.0000   73

   2   rms: 0.2812E-01   max: 0.4082E+00   D at   60  1
       a =  4.500      CL =  0.7536
      Cm = -0.0522     CD =  0.01191   =>   CDf =  0.00667    CDp =  0.00523

 Side 1  free  transition at x/c =  0.5182   58
 Side 2 forced transition at x/c =  1.0000   73

   3   rms: 0.2550E-02   max: 0.3041E-01   D at   61  1
       a =  4.500      CL =  0.7543
      Cm = -0.0523     CD =  0.01182   =>   CDf =  0.00667    CDp =  0.00515

 Side 1  free  transition at x/c =  0.5178   58
 Side 2 forced transition at x/c =  1.0000   73

   4   rms: 0.2148E-04   max: -.3248E-03   D at   61  1
       a =  4.500      CL =  0.7543
      Cm = -0.0523     CD =  0.01182   =>   CDf =  0.00667    CDp =  0.00515
 plradd ia,ip,cpol           18           0  1.60882510E-02

 Point added to stored polar  1
 Point written to save file  naca2412_Re200k.base.pol                        
 Dump file unspecified or not available
 Calculating wake trajectory ...
 Calculating source influence matrix ...

 Solving BL system ...

 Side 1  free  transition at x/c =  0.5178   58
 Side 2 forced transition at x/c =  1.0000   73

   1   rms: 0.8246E-01   max: 0.3933E+00   T at   58  1
       a =  5.000      CL =  0.8010
      Cm = -0.0503     CD =  0.01221   =>   CDf =  0.00657    CDp =  0.00564

 Side 1  free  transition at x/c =  0.4771   57
 Side 2 forced transition at x/c =  1.0000   72

   2   rms: 0.3832E-01   max: -.4636E+00   D at   58  1
       a =  5.000      CL =  0.8005
      Cm = -0.0502     CD =  0.01220   =>   CDf =  0.00684    CDp =  0.00536

 Side 1  free  transition at x/c =  0.4837   57
 Side 2 forced transition at x/c =  1.0000   72

   3   rms: 0.9152E-02   max: 0.1174E+00   C at   57  1
       a =  5.000      CL =  0.8010
      Cm = -0.0503     CD =  0.01229   =>   CDf =  0.00669    CDp =  0.00560

 Side 1  free  transition at x/c =  0.4800   57
 Side 2 forced transition at x/c =  1.0000   72

   4   rms: 0.5382E-03   max: -.7308E-02   D at   57  1
       a =  5.000      CL =  0.8010
      Cm = -0.0503     CD =  0.01229   =>   CDf =  0.00676    CDp =  0.00554

 Side 1  free  transition at x/c =  0.4799   57
 Side 2 forced transition at x/c =  1.0000   72

   5   rms: 0.6479E-05   max: -.2752E-04   D at   90  1
       a =  5.000      CL =  0.8010
      Cm = -0.0503     CD =  0.01229   =>   CDf =  0.00676    CDp =  0.00554
 plradd ia,ip,cpol           19           0  1.60882510E-02

 Point added to stored polar  1
 Point written to save file  naca2412_Re200k.base.pol                        
 Dump file unspecified or not available
 Calculating wake trajectory ...
 Calculating source influence matrix ...

 Solving BL system ...

 Side 1  free  transition at x/c =  0.4799   57
 Side 2 forced transition at x/c =  1.0000   72

   1   rms: 0.8988E-01   max: -.4447E+00   D at   58  1
       a =  5.500      CL =  0.8467
      Cm = -0.0482     CD =  0.01286   =>   CDf =  0.00676    CDp =  0.00610

 Side 1  free  transition at x/c =  0.4336   54
 Side 2 forced transition at x/c =  1.0000   72

   2   rms: 0.2897E-01   max: 0.4162E+00   D at   56  1
       a =  5.500      CL =  0.8456
      Cm = -0.0482     CD =  0.01294   =>   CDf =  0.00695    CDp =  0.00599

 Side 1  free  transition at x/c =  0.4355   54
 Side 2 forced transition at x/c =  1.0000   72

   3   rms: 0.4633E-02   max: 0.6081E-01   D at   57  1
       a =  5.500      CL =  0.8465
      Cm = -0.0482     CD =  0.01279   =>   CDf =  0.00685    CDp =  0.00595

 Side 1  free  transition at x/c =  0.4349   54
 Side 2 forced transition at x/c =  1.0000   72

   4   rms: 0.8151E-04   max: -.1415E-02   D at   57  1
       a =  5.500      CL =  0.8465
      Cm = -0.0482     CD =  0.01279   =>   CDf =  0.00686    CDp =  0.00593
 plradd ia,ip,cpol           20           0  1.60882510E-02

 Point added to stored polar  1
 Point written to save file  naca2412_Re200k.base.pol                        
 Dump file unspecified or not available
 Calculating wake trajectory ...
 Calculating source influence matrix ...

 Solving BL system ...

 Side 1  free  transition at x/c =  0.4348   54
 Side 2 forced transition at x/c =  1.0000   72

   1   rms: 0.8809E-01   max: -.4102E+00   D at   55  1
       a =  6.000      CL =  0.8915
      Cm = -0.0461     CD =  0.01331   =>   CDf =  0.00672    CDp =  0.00659

 Side 1  free  transition at x/c =  0.3835   52
 Side 2 forced transition at x/c =  1.0000   71

   2   rms: 0.2690E-01   max: -.3804E+00   D at   53  1
       a =  6.000      CL =  0.8906
      Cm = -0.0460     CD =  0.01347   =>   CDf =  0.00704    CDp =  0.00643

 Side 1  free  transition at x/c =  0.3870   52
 Side 2 forced transition at x/c =  1.0000   71

   3   rms: 0.3806E-02   max: 0.4685E-01   C at   52  1
       a =  6.000      CL =  0.8912
      Cm = -0.0461     CD =  0.01338   =>   CDf =  0.00694    CDp =  0.00644

 Side 1  free  transition at x/c =  0.3855   52
 Side 2 forced transition at x/c =  1.0000   71

   4   rms: 0.5692E-04   max: -.1132E-02   D at   54  1
       a =  6.000      CL =  0.8912
      Cm = -0.0461     CD =  0.01338   =>   CDf =  0.00696    CDp =  0.00642
 plradd ia,ip,cpol           21           0  1.60882510E-02

 Point added to stored polar  1
 Point written to save file  naca2412_Re200k.base.pol                        
 Dump file unspecified or not available
 Calculating wake trajectory ...
 Calculating source influence matrix ...

 Solving BL system ...

 Side 1  free  transition at x/c =  0.3855   52
 Side 2 forced transition at x/c =  1.0000   71

   1   rms: 0.9142E-01   max: 0.6133E+00   C at   52  1
       a =  6.500      CL =  0.9347
      Cm = -0.0438     CD =  0.01407   =>   CDf =  0.00696    CDp =  0.00711

 Side 1  free  transition at x/c =  0.3269   48
 Side 2 forced transition at x/c =  1.0000   71

   2   rms: 0.2810E-01   max: -.3171E+00   D at   49  1
       a =  6.500      CL =  0.9335
      Cm = -0.0437     CD =  0.01412   =>   CDf =  0.00719    CDp =  0.00692

 Side 1  free  transition at x/c =  0.3308   48
 Side 2 forced transition at x/c =  1.0000   71

   3   rms: 0.5064E-02   max: 0.7423E-01   C at   48  1
       a =  6.500      CL =  0.9339
      Cm = -0.0438     CD =  0.01415   =>   CDf =  0.00711    CDp =  0.00704

 Side 1  free  transition at x/c =  0.3278   48
 Side 2 forced transition at x/c =  1.0000   71

   4   rms: 0.1778E-03   max: -.2330E-02   D at   51  1
       a =  6.500      CL =  0.9339
      Cm = -0.0438     CD =  0.01415   =>   CDf =  0.00713    CDp =  0.00702

 Side 1  free  transition at x/c =  0.3278   48
 Side 2 forced transition at x/c =  1.0000   71

   5   rms: 0.1506E-05   max: -.1400E-04   D at    4  2
       a =  6.500      CL =  0.9339
      Cm = -0.0438     CD =  0.01415   =>   CDf =  0.00713    CDp =  0.00702
 plradd ia,ip,cpol           22           0  1.29531631E-02

 Point added to stored polar  1
 Point written to save file  naca2412_Re200k.base.pol                        
 Dump file unspecified or not available
 Calculating wake trajectory ...
 Calculating source influence matrix ...

 Solving BL system ...

 Side 1  free  transition at x/c =  0.3278   48
 Side 2 forced transition at x/c =  1.0000   71

   1   rms: 0.9035E-01   max: 0.6183E+00   C at   48  1
       a =  7.000      CL =  0.9787
      Cm = -0.0419     CD =  0.01487   =>   CDf =  0.00697    CDp =  0.00790

 Side 1  free  transition at x/c =  0.2578   45
 Side 2 forced transition at x/c =  1.0000   70

   2   rms: 0.3229E-01   max: -.3894E+00   D at   46  1
       a =  7.000      CL =  0.9733
      Cm = -0.0411     CD =  0.01517   =>   CDf =  0.00746    CDp =  0.00771

 Side 1  free  transition at x/c =  0.2615   45
 Side 2 forced transition at x/c =  1.0000   70

   3   rms: 0.8594E-02   max: 0.1519E+00   C at   45  1
       a =  7.000      CL =  0.9732
      Cm = -0.0411     CD =  0.01525   =>   CDf =  0.00735    CDp =  0.00790

 Side 1  free  transition at x/c =  0.2572   45
 Side 2 forced transition at x/c =  1.0000   70

   4   rms: 0.3239E-03   max: -.4083E-02   C at   45  1
       a =  7.000      CL =  0.9731
      Cm = -0.0411     CD =  0.01526   =>   CDf =  0.00741    CDp =  0.00785

 Side 1  free  transition at x/c =  0.2573   45
 Side 2 forced transition at x/c =  1.0000   70

   5   rms: 0.2235E-05   max: 0.1286E-04   C at   45  1
       a =  7.000      CL =  0.9731
      Cm = -0.0411     CD =  0.01526   =>   CDf =  0.00740    CDp =  0.00785
 plradd ia,ip,cpol           23           0  1.02644488E-02

 Point added to stored polar  1
 Point written to save file  naca2412_Re200k.base.pol                        
 Dump file unspecified or not available
 Calculating wake trajectory ...
 Calculating source influence matrix ...

 Solving BL system ...

 Side 1  free  transition at x/c =  0.2573   45
 Side 2 forced transition at x/c =  1.0000   70

   1   rms: 0.1226E+00   max: 0.1500E+01   C at   45  1   RLX: 0.679
       a =  7.500      CL =  0.9964
      Cm = -0.0389     CD =  0.01633   =>   CDf =  0.00741    CDp =  0.00892

 Side 1  free  transition at x/c =  0.2122   42
 Side 2 forced transition at x/c =  1.0000   70

   2   rms: 0.4513E-01   max: -.3956E+00   D at   42  1
       a =  7.500      CL =  1.0085
      Cm = -0.0380     CD =  0.01682   =>   CDf =  0.00765    CDp =  0.00917

 Side 1  free  transition at x/c =  0.1812   40
 Side 2 forced transition at x/c =  1.0000   70

   3   rms: 0.1511E-01   max: -.1932E+00   D at   42  1
       a =  7.500      CL =  1.0068
      Cm = -0.0378     CD =  0.01692   =>   CDf =  0.00782    CDp =  0.00910

 Side 1  free  transition at x/c =  0.1790   40
 Side 2 forced transition at x/c =  1.0000   70

   4   rms: 0.2033E-02   max: 0.2867E-01   C at   40  1
       a =  7.500      CL =  1.0067
      Cm = -0.0378     CD =  0.01693   =>   CDf =  0.00782    CDp =  0.00911

 Side 1  free  transition at x/c =  0.1783   40
 Side 2 forced transition at x/c =  1.0000   70

   5   rms: 0.3164E-04   max: -.3221E-03   D at   42  1
       a =  7.500      CL =  1.0067
      Cm = -0.0378     CD =  0.01693   =>   CDf =  0.00784    CDp =  0.00909
 plradd ia,ip,cpol           24           0  6.08662702E-03

 Point added to stored polar  1
 Point written to save file  naca2412_Re200k.base.pol                        
 Dump file unspecified or not available
 Calculating wake trajectory ...
 Calculating source influence matrix ...

 Solving BL system ...

 Side 1  free  transition at x/c =  0.1783   40
 Side 2 forced transition at x/c =  1.0000   70

   1   rms: 0.1495E+00   max: 0.1676E+01   C at   40  1   RLX: 0.475
       a =  8.000      CL =  1.0183
      Cm = -0.0357     CD =  0.01816   =>   CDf =  0.00766    CDp =  0.01050

 Side 1  free  transition at x/c =  0.1513   39
 Side 2 forced transition at x/c =  1.0000   69

   2   rms: 0.7674E-01   max: -.6274E+00   D at   39  1   RLX: 0.797
       a =  8.000      CL =  1.0329
      Cm = -0.0344     CD =  0.01888   =>   CDf =  0.00799    CDp =  0.01088

 Side 1  free  transition at x/c =  0.1287   37
 Side 2 forced transition at x/c =  1.0000   69

   3   rms: 0.2973E-01   max: -.3483E+00   D at   39  1
       a =  8.000      CL =  1.0376
      Cm = -0.0342     CD =  0.01897   =>   CDf =  0.00818    CDp =  0.01079

 Side 1  free  transition at x/c =  0.1222   37
 Side 2 forced transition at x/c =  1.0000   69

   4   rms: 0.3569E-02   max: -.4575E-01   D at   39  1
       a =  8.000      CL =  1.0370
      Cm = -0.0341     CD =  0.01896   =>   CDf =  0.00820    CDp =  0.01076

 Side 1  free  transition at x/c =  0.1225   37
 Side 2 forced transition at x/c =  1.0000   69

   5   rms: 0.1177E-03   max: -.1502E-02   D at   38  1
       a =  8.000      CL =  1.0370
      Cm = -0.0341     CD =  0.01896   =>   CDf =  0.00820    CDp =  0.01076

 Side 1  free  transition at x/c =  0.1225   37
 Side 2 forced transition at x/c =  1.0000   69

   6   rms: 0.1601E-05   max: -.6325E-05   C at   69  2
       a =  8.000      CL =  1.0370
      Cm = -0.0341     CD =  0.01896   =>   CDf =  0.00820    CDp =  0.01076
 plradd ia,ip,cpol           25           0  4.49841423E-03

 Point added to stored polar  1
 Point written to save file  naca2412_Re200k.base.pol                        
 Dump file unspecified or not available
 Calculating wake trajectory ...
 Calculating source influence matrix ...

 Solving BL system ...

 Side 1  free  transition at x/c =  0.1225   37
 Side 2 forced transition at x/c =  1.0000   69

   1   rms: 0.1136E+00   max: -.7068E+00   D at   37  1   RLX: 0.707
       a =  8.500      CL =  1.0562
      Cm = -0.0313     CD =  0.02067   =>   CDf =  0.00820    CDp =  0.01247

 Side 1  free  transition at x/c =  0.1063   36
 Side 2 forced transition at x/c =  1.0000   69

   2   rms: 0.4670E-01   max: -.4520E+00   D at   37  1
       a =  8.500      CL =  1.0639
      Cm = -0.0300     CD =  0.02127   =>   CDf =  0.00835    CDp =  0.01291

 Side 1  free  transition at x/c =  0.0998   35
 Side 2 forced transition at x/c =  1.0000   69

   3   rms: 0.2583E-01   max: -.2654E+00   D at   35  1
       a =  8.500      CL =  1.0665
      Cm = -0.0302     CD =  0.02085   =>   CDf =  0.00834    CDp =  0.01251

 Side 1  free  transition at x/c =  0.1000   35
 Side 2 forced transition at x/c =  1.0000   69

   4   rms: 0.2688E-02   max: -.2153E-01   D at   37  1
       a =  8.500      CL =  1.0679
      Cm = -0.0305     CD =  0.02091   =>   CDf =  0.00829    CDp =  0.01262

 Side 1  free  transition at x/c =  0.0995   35
 Side 2 forced transition at x/c =  1.0000   69

   5   rms: 0.8168E-04   max: -.6203E-03   D at   35  1
       a =  8.500      CL =  1.0679
      Cm = -0.0304     CD =  0.02091   =>   CDf =  0.00830    CDp =  0.01261
 plradd ia,ip,cpol           26           0  3.18519236E-03

 Point added to stored polar  1
 Point written to save file  naca2412_Re200k.base.pol                        
 Dump file unspecified or not available
 Calculating wake trajectory ...
 Calculating source influence matrix ...

 Solving BL system ...

 Side 1  free  transition at x/c =  0.0995   35
 Side 2 forced transition at x/c =  1.0000   69

   1   rms: 0.8455E-01   max: 0.5628E+00   T at   35  1
       a =  9.000      CL =  1.1021
      Cm = -0.0273     CD =  0.02272   =>   CDf =  0.00809    CDp =  0.01463

 MRCHDU: Convergence failed at  36  side 1    Res =  0.1950E+02
 MRCHDU: Convergence failed at  37  side 1    Res =  0.1824E+01
 MRCHDU: Convergence failed at  38  side 1    Res =  0.2151E+01
 MRCHDU: Convergence failed at  39  side 1    Res =  0.2642E+01
 MRCHDU: Convergence failed at  40  side 1    Res =  0.3491E+01
 MRCHDU: Convergence failed at  41  side 1    Res =  0.4641E+01
 MRCHDU: Convergence failed at  42  side 1    Res =  0.5645E+01
 MRCHDU: Convergence failed at  43  side 1    Res =  0.6206E+01
 MRCHDU: Convergence failed at  44  side 1    Res =  0.6648E+01
 MRCHDU: Convergence failed at  45  side 1    Res =  0.6679E+01
 MRCHDU: Convergence failed at  46  side 1    Res =  0.6847E+01
 MRCHDU: Convergence failed at  47  side 1    Res =  0.6903E+01
 MRCHDU: Convergence failed at  48  side 1    Res =  0.6366E+01
 MRCHDU: Convergence failed at  49  side 1    Res =  0.6291E+01
 MRCHDU: Convergence failed at  50  side 1    Res =  0.5764E+01
 MRCHDU: Convergence failed at  51  side 1    Res =  0.5078E+01
 MRCHDU: Convergence failed at  52  side 1    Res =  0.2377E+02
 MRCHDU: Convergence failed at  53  side 1    Res =  0.3213E+02
 MRCHDU: Convergence failed at  54  side 1    Res =  0.4255E+02
 MRCHDU: Convergence failed at  55  side 1    Res =  0.6571E+02
 MRCHDU: Convergence failed at  56  side 1    Res =  0.1208E+02
 MRCHDU: Convergence failed at  57  side 1    Res =  0.1374E+02
 MRCHDU: Convergence failed at  58  side 1    Res =  0.1353E+02
 MRCHDU: Convergence failed at  59  side 1    Res =  0.1420E+02
 MRCHDU: Convergence failed at  60  side 1    Res =  0.1577E+02
 MRCHDU: Convergence failed at  61  side 1    Res =  0.1651E+02
 MRCHDU: Convergence failed at  62  side 1    Res =  0.1677E+02
 MRCHDU: Convergence failed at  63  side 1    Res =  0.1964E+02
 MRCHDU: Convergence failed at  64  side 1    Res =  0.3364E+02
 MRCHDU: Convergence failed at  65  side 1    Res =  0.3487E+02
 MRCHDU: Convergence failed at  66  side 1    Res =  0.2699E+02
 MRCHDU: Convergence failed at  67  side 1    Res =  0.3357E+02
 MRCHDU: Convergence failed at  68  side 1    Res =  0.2779E+02
 MRCHDU: Convergence failed at  69  side 1    Res =  0.2597E+02
 MRCHDU: Convergence failed at  70  side 1    Res =  0.1423E+02
 MRCHDU: Convergence failed at  71  side 1    Res =  0.3998E+02
 MRCHDU: Convergence failed at  72  side 1    Res =  0.4466E+02
 MRCHDU: Convergence failed at  73  side 1    Res =  0.5014E+02
 MRCHDU: Convergence failed at  74  side 1    Res =  0.7743E+02
 MRCHDU: Convergence failed at  75  side 1    Res =  0.3465E+03
 MRCHDU: Convergence failed at  76  side 1    Res =  0.1195E+03
 MRCHDU: Convergence failed at  77  side 1    Res =  0.2211E+02
 MRCHDU: Convergence failed at  78  side 1    Res =  0.1917E+02
 MRCHDU: Convergence failed at  79  side 1    Res =  0.3823E+02
 MRCHDU: Convergence failed at  80  side 1    Res =  0.3319E+02
 MRCHDU: Convergence failed at  81  side 1    Res =  0.2647E+02
 MRCHDU: Convergence failed at  82  side 1    Res =  0.2530E+02
 MRCHDU: Convergence failed at  83  side 1    Res =  0.1736E+02
 MRCHDU: Convergence failed at  84  side 1    Res =  0.1972E+02
 MRCHDU: Convergence failed at  85  side 1    Res =  0.3942E+02
 MRCHDU: Convergence failed at  86  side 1    Res =  0.2904E+02
 MRCHDU: Convergence failed at  87  side 1    Res =  0.3291E+02
 MRCHDU: Convergence failed at  88  side 1    Res =  0.9087E+02
 MRCHDU: Convergence failed at  89  side 1    Res =  0.1620E+03
 MRCHDU: Convergence failed at  90  side 1    Res =  0.5564E+03
 MRCHDU: Convergence failed at  91  side 1    Res =  0.4962E+02
 MRCHDU: Convergence failed at  92  side 1    Res =  0.4177E+02
 MRCHDU: Convergence failed at  93  side 1    Res =  0.2251E+02
 MRCHDU: Convergence failed at  94  side 1    Res =  0.2813E+02
 Side 1  free  transition at x/c =  0.0876   35
 Side 2 forced transition at x/c =  1.0000   68

   2   rms: 0.1300E+01   max: 0.5112E+01   D at   72  2   RLX: 0.101
       a =  9.000      CL =  2.2841
      Cm = -0.4954     CD =  0.00637   =>   CDf =  0.00302    CDp =  0.00335

 MRCHDU: Convergence failed at  58  side 1    Res =  0.8088E-01
 Side 1  free  transition at x/c =  0.0858   35
 Side 2 forced transition at x/c =  1.0000   68

   3   rms: 0.4853E+00   max: -.5049E+00   U at   94  1   RLX: 0.409
       a =  9.000      CL =  1.5523
      Cm = -0.2101     CD =  0.02841   =>   CDf =  0.00804    CDp =  0.02037

 MRCHDU: Convergence failed at  58  side 1    Res =  0.4680E-01
 Side 1  free  transition at x/c =  0.0888   35
 Side 2 forced transition at x/c =  1.0000   68

   4   rms: 0.3870E+00   max: -.1593E+01   D at   52  1   RLX: 0.314
       a =  9.000      CL =  1.3685
      Cm = -0.1402     CD =  0.02821   =>   CDf =  0.00743    CDp =  0.02077

 Side 1  free  transition at x/c =  0.0915   35
 Side 2 forced transition at x/c =  1.0000   68

   5   rms: 0.3942E+00   max: -.2285E+01   D at   52  1   RLX: 0.219
       a =  9.000      CL =  1.3123
      Cm = -0.1150     CD =  0.02762   =>   CDf =  0.00741    CDp =  0.02021

 MRCHDU: Convergence failed at  48  side 1    Res =  0.4956E+00
 Side 1  free  transition at x/c =  0.0914   35
 Side 2 forced transition at x/c =  1.0000   68
 idif Ue xi dudx           1  0.11330606      4.14395332E-03   27.342505    
 Uenew xinew           2  3.03783594E-03  1.11103058E-04

   6   rms: 0.2987E+00   max: -.1197E+01   D at   55  1   RLX: 0.418
       a =  9.000      CL =  1.1816
      Cm = -0.0683     CD =  0.02627   =>   CDf =  0.00806    CDp =  0.01821

 Side 1  free  transition at x/c =  0.0968   35
 Side 2 forced transition at x/c =  1.0000   69

   7   rms: 0.2263E+00   max: 0.8606E+00   D at   72  1   RLX: 0.610
       a =  9.000      CL =  1.1187
      Cm = -0.0365     CD =  0.02192   =>   CDf =  0.00866    CDp =  0.01326

 Side 1  free  transition at x/c =  0.0925   35
 Side 2 forced transition at x/c =  1.0000   68

   8   rms: 0.1011E+00   max: -.6154E+00   D at   57  1   RLX: 0.813
       a =  9.000      CL =  1.1004
      Cm = -0.0275     CD =  0.02283   =>   CDf =  0.00864    CDp =  0.01419

 Side 1  free  transition at x/c =  0.0886   35
 Side 2 forced transition at x/c =  1.0000   68

   9   rms: 0.3206E-01   max: -.3026E+00   D at   57  1
       a =  9.000      CL =  1.1010
      Cm = -0.0272     CD =  0.02287   =>   CDf =  0.00835    CDp =  0.01452

 Side 1  free  transition at x/c =  0.0872   35
 Side 2 forced transition at x/c =  1.0000   68

  10   rms: 0.6821E-02   max: -.5580E-01   C at   68  2
       a =  9.000      CL =  1.0983
      Cm = -0.0268     CD =  0.02292   =>   CDf =  0.00830    CDp =  0.01461

 Side 1  free  transition at x/c =  0.0875   35
 Side 2 forced transition at x/c =  1.0000   68

  11   rms: 0.1254E-03   max: -.9615E-03   D at   57  1
       a =  9.000      CL =  1.0982
      Cm = -0.0268     CD =  0.02292   =>   CDf =  0.00830    CDp =  0.01462

 Side 1  free  transition at x/c =  0.0875   35
 Side 2 forced transition at x/c =  1.0000   68

  12   rms: 0.1600E-05   max: 0.1157E-04   C at   68  2
       a =  9.000      CL =  1.0982
      Cm = -0.0268     CD =  0.02292   =>   CDf =  0.00830    CDp =  0.01462
 plradd ia,ip,cpol           27           0  3.18519236E-03

 Point added to stored polar  1
 Point written to save file  naca2412_Re200k.base.pol                        
 Dump file unspecified or not available
 Calculating wake trajectory ...
 Calculating source influence matrix ...

 Solving BL system ...

 Side 1  free  transition at x/c =  0.0875   35
 Side 2 forced transition at x/c =  1.0000   68

   1   rms: 0.7740E-01   max: 0.4472E+00   T at   35  1
       a =  9.500      CL =  1.1328
      Cm = -0.0238     CD =  0.02471   =>   CDf =  0.00831    CDp =  0.01640

 Side 1  free  transition at x/c =  0.0794   34
 Side 2 forced transition at x/c =  1.0000   68

   2   rms: 0.1840E-01   max: -.1193E+00   D at   36  1
       a =  9.500      CL =  1.1259
      Cm = -0.0230     CD =  0.02520   =>   CDf =  0.00840    CDp =  0.01680

 Side 1  free  transition at x/c =  0.0796   34
 Side 2 forced transition at x/c =  1.0000   68

   3   rms: 0.2572E-02   max: -.1223E-01   D at   94  1
       a =  9.500      CL =  1.1282
      Cm = -0.0234     CD =  0.02523   =>   CDf =  0.00836    CDp =  0.01687

 Side 1  free  transition at x/c =  0.0794   34
 Side 2 forced transition at x/c =  1.0000   68

   4   rms: 0.1746E-03   max: 0.7646E-03   D at   77  2
       a =  9.500      CL =  1.1281
      Cm = -0.0234     CD =  0.02523   =>   CDf =  0.00836    CDp =  0.01687

 Side 1  free  transition at x/c =  0.0794   34
 Side 2 forced transition at x/c =  1.0000   68

   5   rms: 0.1633E-05   max: 0.8174E-05   C at   68  2
       a =  9.500      CL =  1.1281
      Cm = -0.0234     CD =  0.02523   =>   CDf =  0.00836    CDp =  0.01687
 plradd ia,ip,cpol           28           0  2.11642170E-03

 Point added to stored polar  1
 Point written to save file  naca2412_Re200k.base.pol                        
 Dump file unspecified or not available
 Calculating wake trajectory ...
 Calculating source influence matrix ...

 Solving BL system ...

 Side 1  free  transition at x/c =  0.0794   34
 Side 2 forced transition at x/c =  1.0000   68

   1   rms: 0.7313E-01   max: 0.3970E+00   T at   34  1
       a = 10.000      CL =  1.1650
      Cm = -0.0206     CD =  0.02680   =>   CDf =  0.00811    CDp =  0.01869

 Side 1  free  transition at x/c =  0.0729   35
 Side 2 forced transition at x/c =  1.0000   67

   2   rms: 0.1556E-01   max: -.1073E+00   D at   35  1
       a = 10.000      CL =  1.1586
      Cm = -0.0198     CD =  0.02699   =>   CDf =  0.00821    CDp =  0.01878

 Side 1  free  transition at x/c =  0.0734   35
 Side 2 forced transition at x/c =  1.0000   67

   3   rms: 0.2398E-02   max: -.1412E-01   D at    4  1
       a = 10.000      CL =  1.1605
      Cm = -0.0201     CD =  0.02701   =>   CDf =  0.00818    CDp =  0.01883

 Side 1  free  transition at x/c =  0.0733   35
 Side 2 forced transition at x/c =  1.0000   67

   4   rms: 0.2912E-04   max: 0.3072E-03   D at   93  1
       a = 10.000      CL =  1.1605
      Cm = -0.0201     CD =  0.02701   =>   CDf =  0.00818    CDp =  0.01882
 plradd ia,ip,cpol           29           0  2.11642170E-03

 Point added to stored polar  1
 Point written to save file  naca2412_Re200k.base.pol                        
 Dump file unspecified or not available

.OPERva   c>  
 Solving BL system ...

 Side 1  free  transition at x/c =  0.0733   35
 Side 2 forced transition at x/c =  1.0000   67

   1   rms: 0.7926E-06   max: -.5105E-05   T at   35  1
       a = 10.000      CL =  1.1605
      Cm = -0.0201     CD =  0.02701   =>   CDf =  0.00818    CDp =  0.01882
 plradd ia,ip,cpol           30         182  2.11642170E-03

 Point added to stored polar  1
 Point written to save file  naca2412_Re200k.base.pol                        
 Dump file unspecified or not available
 Calculating wake trajectory ...
 Calculating source influence matrix ...

 Solving BL system ...

 Side 1  free  transition at x/c =  0.0733   35
 Side 2 forced transition at x/c =  1.0000   67

   1   rms: 0.3666E-01   max: 0.1976E+00   T at   35  1
       a = 10.250      CL =  1.1771
      Cm = -0.0187     CD =  0.02802   =>   CDf =  0.00819    CDp =  0.01983

 Side 1  free  transition at x/c =  0.0704   35
 Side 2 forced transition at x/c =  1.0000   67

   2   rms: 0.7683E-02   max: -.6168E-01   D at   35  1
       a = 10.250      CL =  1.1756
      Cm = -0.0186     CD =  0.02812   =>   CDf =  0.00823    CDp =  0.01990

 Side 1  free  transition at x/c =  0.0705   35
 Side 2 forced transition at x/c =  1.0000   67

   3   rms: 0.9451E-03   max: 0.4591E-02   T at   35  1
       a = 10.250      CL =  1.1764
      Cm = -0.0187     CD =  0.02814   =>   CDf =  0.00821    CDp =  0.01993

[...]

 Side 1  free  transition at x/c =  0.0491   34
 Side 2 forced transition at x/c =  1.0000   65

   5   rms: 0.1640E-04   max: 0.1368E-03   D at   91  1
       a = 12.750      CL =  1.3189
      Cm = -0.0055     CD =  0.04267   =>   CDf =  0.00737    CDp =  0.03530
 plradd ia,ip,cpol           41           0  6.35164150E-04

 Point added to stored polar  1
 Point written to save file  naca2412_Re200k.base.pol                        
 Dump file unspecified or not available
 Calculating wake trajectory ...
 Calculating source influence matrix ...

 Solving BL system ...

 Side 1  free  transition at x/c =  0.0491   34
 Side 2 forced transition at x/c =  1.0000   65

   1   rms: 0.3075E-01   max: 0.1624E+00   T at   34  1
       a = 13.000      CL =  1.3174
      Cm = -0.0027     CD =  0.04419   =>   CDf =  0.00737    CDp =  0.03682

 Side 1  free  transition at x/c =  0.0482   34
 Side 2 forced transition at x/c =  1.0000   65

   2   rms: 0.2521E-02   max: -.1135E-01   D at   79  2
       a = 13.000      CL =  1.3171
      Cm = -0.0029     CD =  0.04431   =>   CDf =  0.00709    CDp =  0.03721

 Side 1  free  transition at x/c =  0.0482   34
 Side 2 forced transition at x/c =  1.0000   65

   3   rms: 0.1209E-03   max: -.5815E-03   D at   90  1
       a = 13.000      CL =  1.3172
      Cm = -0.0029     CD =  0.04431   =>   CDf =  0.00709    CDp =  0.03722

 Side 1  free  transition at x/c =  0.0482   34
 Side 2 forced transition at x/c =  1.0000   65

   4   rms: 0.1922E-05   max: -.6097E-05   C at   65  2
       a = 13.000      CL =  1.3172
      Cm = -0.0029     CD =  0.04431   =>   CDf =  0.00709    CDp =  0.03722
 plradd ia,ip,cpol           42           0  6.35164150E-04

 Point added to stored polar  1
 Point written to save file  naca2412_Re200k.base.pol                        
 Dump file unspecified or not available
 Calculating wake trajectory ...
 Calculating source influence matrix ...

 Solving BL system ...

 Side 1  free  transition at x/c =  0.0482   34
 Side 2 forced transition at x/c =  1.0000   65

   1   rms: 0.3230E-01   max: 0.1563E+00   T at   34  1   RLX: 0.954
       a = 13.250      CL =  1.3175
      Cm = -0.0009     CD =  0.04625   =>   CDf =  0.00710    CDp =  0.03915

 Side 1  free  transition at x/c =  0.0469   34
 Side 2 forced transition at x/c =  1.0000   65

   2   rms: 0.3049E-02   max: -.1989E-01   D at   35  1
       a = 13.250      CL =  1.3160
      Cm = -0.0008     CD =  0.04631   =>   CDf =  0.00683    CDp =  0.03947

 Side 1  free  transition at x/c =  0.0469   34
 Side 2 forced transition at x/c =  1.0000   65

   3   rms: 0.3711E-03   max: 0.1515E-02   T at   34  1
       a = 13.250      CL =  1.3163
      Cm = -0.0008     CD =  0.04631   =>   CDf =  0.00684    CDp =  0.03946

 Side 1  free  transition at x/c =  0.0469   34
 Side 2 forced transition at x/c =  1.0000   65

   4   rms: 0.1099E-04   max: 0.4098E-04   D at   79  2
       a = 13.250      CL =  1.3163
      Cm = -0.0008     CD =  0.04631   =>   CDf =  0.00684    CDp =  0.03947
 plradd ia,ip,cpol           43           0  6.35164150E-04

 Point added to stored polar  1
 Point written to save file  naca2412_Re200k.base.pol                        
 Dump file unspecified or not available
 Calculating wake trajectory ...
 Calculating source influence matrix ...

 Solving BL system ...

 Side 1  free  transition at x/c =  0.0469   34
 Side 2 forced transition at x/c =  1.0000   65

   1   rms: 0.3231E-01   max: 0.1474E+00   T at   34  1   RLX: 0.904
       a = 13.500      CL =  1.3173
      Cm =  0.0007     CD =  0.04836   =>   CDf =  0.00684    CDp =  0.04151

 Side 1  free  transition at x/c =  0.0456   34
 Side 2 forced transition at x/c =  1.0000   65

   2   rms: 0.3912E-02   max: -.2438E-01   D at   35  1
       a = 13.500      CL =  1.3159
      Cm =  0.0009     CD =  0.04840   =>   CDf =  0.00664    CDp =  0.04176

 Side 1  free  transition at x/c =  0.0456   34
 Side 2 forced transition at x/c =  1.0000   65

   3   rms: 0.5348E-03   max: -.2102E-02   D at   87  1
       a = 13.500      CL =  1.3164
      Cm =  0.0008     CD =  0.04838   =>   CDf =  0.00665    CDp =  0.04174

 Side 1  free  transition at x/c =  0.0456   34
 Side 2 forced transition at x/c =  1.0000   65

   4   rms: 0.1002E-04   max: 0.5796E-04   D at   80  2
       a = 13.500      CL =  1.3164
      Cm =  0.0008     CD =  0.04839   =>   CDf =  0.00665    CDp =  0.04174
 plradd ia,ip,cpol           44           0  6.35164150E-04

 Point added to stored polar  1
 Point written to save file  naca2412_Re200k.base.pol                        
 Dump file unspecified or not available
 Calculating wake trajectory ...
 Calculating source influence matrix ...

 Solving BL system ...

 Side 1  free  transition at x/c =  0.0456   34
 Side 2 forced transition at x/c =  1.0000   65

   1   rms: 0.3106E-01   max: 0.1442E+00   T at   34  1   RLX: 0.861
       a = 13.750      CL =  1.3185
      Cm =  0.0019     CD =  0.05032   =>   CDf =  0.00665    CDp =  0.04366

 Side 1  free  transition at x/c =  0.0444   34
 Side 2 forced transition at x/c =  1.0000   65

   2   rms: 0.4563E-02   max: -.2236E-01   D at   35  1
       a = 13.750      CL =  1.3167
      Cm =  0.0022     CD =  0.05048   =>   CDf =  0.00651    CDp =  0.04397

 Side 1  free  transition at x/c =  0.0443   34
 Side 2 forced transition at x/c =  1.0000   65

   3   rms: 0.5944E-03   max: -.2352E-02   D at   86  1
       a = 13.750      CL =  1.3171
      Cm =  0.0021     CD =  0.05044   =>   CDf =  0.00651    CDp =  0.04393

 Side 1  free  transition at x/c =  0.0443   34
 Side 2 forced transition at x/c =  1.0000   65

   4   rms: 0.4427E-05   max: 0.3622E-04   D at   80  2
       a = 13.750      CL =  1.3171
      Cm =  0.0021     CD =  0.05044   =>   CDf =  0.00651    CDp =  0.04393
 plradd ia,ip,cpol           45           0  6.35164150E-04

 Point added to stored polar  1
 Point written to save file  naca2412_Re200k.base.pol                        
 Dump file unspecified or not available
 Calculating wake trajectory ...
 Calculating source influence matrix ...

 Solving BL system ...

 Side 1  free  transition at x/c =  0.0443   34
 Side 2 forced transition at x/c =  1.0000   65

   1   rms: 0.3074E-01   max: 0.1427E+00   T at   34  1   RLX: 0.820
       a = 14.000      CL =  1.3183
      Cm =  0.0030     CD =  0.05236   =>   CDf =  0.00652    CDp =  0.04584

 Side 1  free  transition at x/c =  0.0434   34
 Side 2 forced transition at x/c =  1.0000   65

   2   rms: 0.5178E-02   max: 0.2454E-01   T at   34  1
       a = 14.000      CL =  1.3192
      Cm =  0.0031     CD =  0.05249   =>   CDf =  0.00642    CDp =  0.04606

 Side 1  free  transition at x/c =  0.0432   34
 Side 2 forced transition at x/c =  1.0000   65

   3   rms: 0.7355E-03   max: -.2725E-02   D at   84  1
       a = 14.000      CL =  1.3197
      Cm =  0.0031     CD =  0.05245   =>   CDf =  0.00644    CDp =  0.04601

 Side 1  free  transition at x/c =  0.0432   34
 Side 2 forced transition at x/c =  1.0000   65

   4   rms: 0.3540E-04   max: 0.1373E-03   T at   34  1
       a = 14.000      CL =  1.3197
      Cm =  0.0031     CD =  0.05245   =>   CDf =  0.00644    CDp =  0.04601
 plradd ia,ip,cpol           46           0  6.35164150E-04

 Point added to stored polar  1
 Point written to save file  naca2412_Re200k.base.pol                        
 Dump file unspecified or not available
 Calculating wake trajectory ...
 Calculating source influence matrix ...

 Solving BL system ...

 Side 1  free  transition at x/c =  0.0432   34
 Side 2 forced transition at x/c =  1.0000   65

   1   rms: 0.3101E-01   max: 0.1783E+00   T at   34  1   RLX: 0.792
       a = 14.250      CL =  1.3247
      Cm =  0.0037     CD =  0.05414   =>   CDf =  0.00605    CDp =  0.04809

 Side 1  free  transition at x/c =  0.0423   35
 Side 2 forced transition at x/c =  1.0000   64

   2   rms: 0.1390E-01   max: 0.2020E+00   T at    2  1
       a = 14.250      CL =  1.3281
      Cm =  0.0038     CD =  0.05463   =>   CDf =  0.00640    CDp =  0.04823

 Side 1  free  transition at x/c =  0.0419   35
 Side 2 forced transition at x/c =  1.0000   64

   3   rms: 0.1680E-02   max: 0.1072E-01   T at   35  1
       a = 14.250      CL =  1.3284
      Cm =  0.0038     CD =  0.05478   =>   CDf =  0.00643    CDp =  0.04835

 Side 1  free  transition at x/c =  0.0419   35
 Side 2 forced transition at x/c =  1.0000   64

   4   rms: 0.3313E-03   max: -.1557E-02   T at   35  1
       a = 14.250      CL =  1.3281
      Cm =  0.0038     CD =  0.05479   =>   CDf =  0.00644    CDp =  0.04835

 Side 1  free  transition at x/c =  0.0419   35
 Side 2 forced transition at x/c =  1.0000   64

   5   rms: 0.3752E-04   max: 0.1850E-03   T at   35  1
       a = 14.250      CL =  1.3281
      Cm =  0.0038     CD =  0.05479   =>   CDf =  0.00644    CDp =  0.04835
 plradd ia,ip,cpol           47           0  6.35164150E-04

 Point added to stored polar  1
 Point written to save file  naca2412_Re200k.base.pol                        
 Dump file unspecified or not available
 Calculating wake trajectory ...
 Calculating source influence matrix ...

 Solving BL system ...

 Side 1  free  transition at x/c =  0.0419   35
 Side 2 forced transition at x/c =  1.0000   64

   1   rms: 0.5334E-01   max: 0.3282E+00   T at   35  1   RLX: 0.779
       a = 14.500      CL =  1.3411
      Cm =  0.0041     CD =  0.05785   =>   CDf =  0.00644    CDp =  0.05141

 Side 1  free  transition at x/c =  0.0409   34
 Side 2 forced transition at x/c =  1.0000   64

   2   rms: 0.4932E-01   max: 0.2094E+00   D at   35  1
       a = 14.500      CL =  1.3198
      Cm =  0.0048     CD =  0.05926   =>   CDf =  0.00623    CDp =  0.05304

 Side 1  free  transition at x/c =  0.0411   34
 Side 2 forced transition at x/c =  1.0000   64

   3   rms: 0.3989E-02   max: 0.3323E-01   D at   83  1
       a = 14.500      CL =  1.3194
      Cm =  0.0048     CD =  0.05881   =>   CDf =  0.00622    CDp =  0.05259

 Side 1  free  transition at x/c =  0.0411   34
 Side 2 forced transition at x/c =  1.0000   64

   4   rms: 0.2410E-03   max: 0.1495E-02   D at   82  1
       a = 14.500      CL =  1.3192
      Cm =  0.0048     CD =  0.05877   =>   CDf =  0.00621    CDp =  0.05257

 Side 1  free  transition at x/c =  0.0411   34
 Side 2 forced transition at x/c =  1.0000   64

   5   rms: 0.5481E-05   max: 0.3199E-04   T at   34  1
       a = 14.500      CL =  1.3192
      Cm =  0.0048     CD =  0.05877   =>   CDf =  0.00621    CDp =  0.05256
 plradd ia,ip,cpol           48           0  6.35164150E-04

 Point added to stored polar  1
 Point written to save file  naca2412_Re200k.base.pol                        
 Dump file unspecified or not available
 Calculating wake trajectory ...
 Calculating source influence matrix ...

 Solving BL system ...

 Side 1  free  transition at x/c =  0.0411   34
 Side 2 forced transition at x/c =  1.0000   64

   1   rms: 0.3825E-01   max: 0.1316E+00   D at   76  1   RLX: 0.704
       a = 14.750      CL =  1.3096
      Cm =  0.0053     CD =  0.06152   =>   CDf =  0.00621    CDp =  0.05531

 Side 1  free  transition at x/c =  0.0408   34
 Side 2 forced transition at x/c =  1.0000   64

   2   rms: 0.1248E-01   max: 0.5964E-01   D at   81  1
       a = 14.750      CL =  1.3039
      Cm =  0.0053     CD =  0.06265   =>   CDf =  0.00599    CDp =  0.05666

 Side 1  free  transition at x/c =  0.0407   34
 Side 2 forced transition at x/c =  1.0000   64

   3   rms: 0.7281E-03   max: 0.6224E-02   D at   79  1
       a = 14.750      CL =  1.3034
      Cm =  0.0053     CD =  0.06249   =>   CDf =  0.00591    CDp =  0.05658

 Side 1  free  transition at x/c =  0.0407   34
 Side 2 forced transition at x/c =  1.0000   64

   4   rms: 0.3359E-04   max: 0.1834E-03   T at   34  1
       a = 14.750      CL =  1.3035
      Cm =  0.0053     CD =  0.06248   =>   CDf =  0.00591    CDp =  0.05657
 plradd ia,ip,cpol           49           0  6.35164150E-04

 Point added to stored polar  1
 Point written to save file  naca2412_Re200k.base.pol                        
 Dump file unspecified or not available
 Calculating wake trajectory ...
 Calculating source influence matrix ...

 Solving BL system ...

 Side 1  free  transition at x/c =  0.0407   34
 Side 2 forced transition at x/c =  1.0000   64

   1   rms: 0.4054E-01   max: 0.1406E+00   D at   74  1   RLX: 0.662
       a = 15.000      CL =  1.2936
      Cm =  0.0053     CD =  0.06558   =>   CDf =  0.00592    CDp =  0.05966

 Side 1  free  transition at x/c =  0.0404   34
 Side 2 forced transition at x/c =  1.0000   64

   2   rms: 0.1502E-01   max: 0.6622E-01   D at   78  1
       a = 15.000      CL =  1.2867
      Cm =  0.0051     CD =  0.06706   =>   CDf =  0.00571    CDp =  0.06135

 Side 1  free  transition at x/c =  0.0403   34
 Side 2 forced transition at x/c =  1.0000   64

   3   rms: 0.1072E-02   max: 0.1110E-01   D at   77  1
       a = 15.000      CL =  1.2860
      Cm =  0.0051     CD =  0.06683   =>   CDf =  0.00562    CDp =  0.06121

 Side 1  free  transition at x/c =  0.0403   34
 Side 2 forced transition at x/c =  1.0000   64

   4   rms: 0.4982E-04   max: 0.2552E-03   T at   34  1
       a = 15.000      CL =  1.2861
      Cm =  0.0051     CD =  0.06682   =>   CDf =  0.00563    CDp =  0.06119
 plradd ia,ip,cpol           50           0  6.35164150E-04

 Point added to stored polar  1
 Point written to save file  naca2412_Re200k.base.pol                        
 Dump file unspecified or not available
 Calculating wake trajectory ...
 Calculating source influence matrix ...

 Solving BL system ...

 Side 1  free  transition at x/c =  0.0403   34
 Side 2 forced transition at x/c =  1.0000   64

   1   rms: 0.4253E-01   max: 0.1492E+00   D at   71  1   RLX: 0.623
       a = 15.250      CL =  1.2761
      Cm =  0.0046     CD =  0.07026   =>   CDf =  0.00563    CDp =  0.06463

 Side 1  free  transition at x/c =  0.0400   34
 Side 2 forced transition at x/c =  1.0000   64

   2   rms: 0.1771E-01   max: 0.7249E-01   D at   75  1
       a = 15.250      CL =  1.2679
      Cm =  0.0041     CD =  0.07215   =>   CDf =  0.00545    CDp =  0.06671

 Side 1  free  transition at x/c =  0.0399   34
 Side 2 forced transition at x/c =  1.0000   64

   3   rms: 0.1559E-02   max: 0.1227E-01   D at   79  2
       a = 15.250      CL =  1.2669
      Cm =  0.0041     CD =  0.07179   =>   CDf =  0.00535    CDp =  0.06644

 Side 1  free  transition at x/c =  0.0399   34
 Side 2 forced transition at x/c =  1.0000   64

   4   rms: 0.7700E-04   max: 0.3880E-03   D at   79  2
       a = 15.250      CL =  1.2669
      Cm =  0.0042     CD =  0.07177   =>   CDf =  0.00536    CDp =  0.06641
 plradd ia,ip,cpol           51           0  6.35164150E-04

 Point added to stored polar  1
 Point written to save file  naca2412_Re200k.base.pol                        
 Dump file unspecified or not available
 Calculating wake trajectory ...
 Calculating source influence matrix ...

 Solving BL system ...

 Side 1  free  transition at x/c =  0.0399   34
 Side 2 forced transition at x/c =  1.0000   64

   1   rms: 0.4466E-01   max: 0.1585E+00   D at   69  1   RLX: 0.587
       a = 15.500      CL =  1.2567
      Cm =  0.0032     CD =  0.07548   =>   CDf =  0.00536    CDp =  0.07012

 Side 1  free  transition at x/c =  0.0397   34
 Side 2 forced transition at x/c =  1.0000   64

   2   rms: 0.2060E-01   max: 0.8504E-01   D at   73  1
       a = 15.500      CL =  1.2468
      Cm =  0.0024     CD =  0.07787   =>   CDf =  0.00519    CDp =  0.07267

 Side 1  free  transition at x/c =  0.0396   34
 Side 2 forced transition at x/c =  1.0000   64

   3   rms: 0.1960E-02   max: 0.1244E-01   D at   72  1
       a = 15.500      CL =  1.2455
      Cm =  0.0024     CD =  0.07742   =>   CDf =  0.00509    CDp =  0.07233

 Side 1  free  transition at x/c =  0.0396   34
 Side 2 forced transition at x/c =  1.0000   64

   4   rms: 0.1026E-03   max: -.4864E-03   D at   72  1
       a = 15.500      CL =  1.2455
      Cm =  0.0024     CD =  0.07739   =>   CDf =  0.00510    CDp =  0.07229

 Side 1  free  transition at x/c =  0.0396   34
 Side 2 forced transition at x/c =  1.0000   64

   5   rms: 0.3605E-05   max: 0.2756E-04   T at   79  2
       a = 15.500      CL =  1.2455
      Cm =  0.0024     CD =  0.07739   =>   CDf =  0.00510    CDp =  0.07230
 plradd ia,ip,cpol           52           0  6.35164150E-04

 Point added to stored polar  1
 Point written to save file  naca2412_Re200k.base.pol                        
 Dump file unspecified or not available
 Calculating wake trajectory ...
 Calculating source influence matrix ...

 Solving BL system ...

 Side 1  free  transition at x/c =  0.0396   34
 Side 2 forced transition at x/c =  1.0000   64

   1   rms: 0.4774E-01   max: 0.1714E+00   D at   66  1   RLX: 0.553
       a = 15.750      CL =  1.2346
      Cm =  0.0010     CD =  0.08140   =>   CDf =  0.00510    CDp =  0.07630

 Side 1  free  transition at x/c =  0.0394   34
 Side 2 forced transition at x/c =  1.0000   64

   2   rms: 0.2395E-01   max: 0.9540E-01   D at   70  1
       a = 15.750      CL =  1.2231
      Cm = -0.0003     CD =  0.08441   =>   CDf =  0.00495    CDp =  0.07947

 Side 1  free  transition at x/c =  0.0394   34
 Side 2 forced transition at x/c =  1.0000   64

   3   rms: 0.2829E-02   max: 0.2122E-01   D at   69  1
       a = 15.750      CL =  1.2212
      Cm = -0.0002     CD =  0.08390   =>   CDf =  0.00483    CDp =  0.07907

 Side 1  free  transition at x/c =  0.0395   34
 Side 2 forced transition at x/c =  1.0000   64

   4   rms: 0.1661E-03   max: 0.1302E-02   D at   80  2
       a = 15.750      CL =  1.2212
      Cm = -0.0001     CD =  0.08385   =>   CDf =  0.00484    CDp =  0.07900

 Side 1  free  transition at x/c =  0.0395   34
 Side 2 forced transition at x/c =  1.0000   64

   5   rms: 0.1023E-04   max: -.6437E-04   D at   80  2
       a = 15.750      CL =  1.2213
      Cm = -0.0001     CD =  0.08385   =>   CDf =  0.00484    CDp =  0.07901
 plradd ia,ip,cpol           53           0  6.35164150E-04

 Point added to stored polar  1
 Point written to save file  naca2412_Re200k.base.pol                        
 Dump file unspecified or not available
 Calculating wake trajectory ...
 Calculating source influence matrix ...

 Solving BL system ...

 Side 1  free  transition at x/c =  0.0395   34
 Side 2 forced transition at x/c =  1.0000   64

   1   rms: 0.5212E-01   max: 0.1885E+00   D at   64  1   RLX: 0.520
       a = 16.000      CL =  1.2095
      Cm = -0.0020     CD =  0.08833   =>   CDf =  0.00485    CDp =  0.08348

 Side 1  free  transition at x/c =  0.0394   34
 Side 2 forced transition at x/c =  1.0000   64

   2   rms: 0.2849E-01   max: 0.1100E+00   D at   67  1
       a = 16.000      CL =  1.1957
      Cm = -0.0039     CD =  0.09219   =>   CDf =  0.00471    CDp =  0.08748

 Side 1  free  transition at x/c =  0.0394   34
 Side 2 forced transition at x/c =  1.0000   64

   3   rms: 0.3405E-02   max: 0.2440E-01   D at   66  1
       a = 16.000      CL =  1.1935
      Cm = -0.0038     CD =  0.09144   =>   CDf =  0.00458    CDp =  0.08686

 Side 1  free  transition at x/c =  0.0395   34
 Side 2 forced transition at x/c =  1.0000   64

   4   rms: 0.2282E-03   max: -.1052E-02   D at   66  1
       a = 16.000      CL =  1.1936
      Cm = -0.0038     CD =  0.09136   =>   CDf =  0.00459    CDp =  0.08676

 Side 1  free  transition at x/c =  0.0395   34
 Side 2 forced transition at x/c =  1.0000   64

   5   rms: 0.1599E-04   max: -.1023E-03   D at   80  2
       a = 16.000      CL =  1.1936
      Cm = -0.0038     CD =  0.09136   =>   CDf =  0.00459    CDp =  0.08677
 plradd ia,ip,cpol           54           0  6.35164150E-04

 Point added to stored polar  1
 Point written to save file  naca2412_Re200k.base.pol                        
 Dump file unspecified or not available

.OPERva   c>  
 Polar accumulation disabled

.OPERv   c>  
 XFOIL   c>  
 XFOIL   c>  