
 ===================================================
  XFOIL Version 6.99
  Copyright (C) 2000   Mark Drela, Harold Youngren

  This software comes with ABSOLUTELY NO WARRANTY,
    subject to the GNU General Public License.

  Caveat computor
 ===================================================

 File  xfoil.def  not found

   QUIT    Exit program

  .OPER    Direct operating point(s)
  .MDES    Complex mapping design routine
  .QDES    Surface speed design routine
  .GDES    Geometry design routine

   SAVE f  Write airfoil to labeled coordinate file
   PSAV f  Write airfoil to plain coordinate file
   ISAV f  Write airfoil to ISES coordinate file
   MSAV f  Write airfoil to MSES coordinate file
   REVE    Reverse written-airfoil node ordering

   LOAD f  Read buffer airfoil from coordinate file
   NACA i  Set NACA 4,5-digit airfoil and buffer airfoil
   INTE    Set buffer airfoil by interpolating two airfoils
   NORM    Buffer airfoil normalization toggle
   XYCM rr Change CM reference location, currently  0.25000 0.00000

   BEND    Display structural properties of current airfoil

   PCOP    Set current-airfoil panel nodes directly from buffer airfoil points
   PANE    Set current-airfoil panel nodes ( 160 ) based on curvature
  .PPAR    Show/change paneling

  .PLOP    Plotting options

   WDEF f  Write  current-settings file
   RDEF f  Reread current-settings file
   NAME s  Specify new airfoil name
   NINC    Increment name version number

   Z       Zoom    | (available in all menus)
   U       Unzoom  | 

 XFOIL   c>  
 Labeled airfoil file.  Name:  NACA 64(4)-421                                  

 Number of input coordinate points:  51
 Counterclockwise ordering
 Max thickness =     0.209770  at x =   0.353
 Max camber    =     0.019560  at x =   0.550

  LE  x,y  =  -0.00047   0.00524  |   Chord =   1.00049
  TE  x,y  =   1.00000   0.00000  |

 Current airfoil nodes set from buffer airfoil nodes (  51 )

 XFOIL   c>  
 XFOIL   c>  
 Sharp trailing edge

 Paneling parameters used...
   Number of panel nodes       160
   Panel bunching parameter    1.000
   TE/LE panel density ratio   0.150
   Refined-area/LE panel density ratio    0.200
   Top    side refined area x/c limits  1.000 1.000
   Bottom side refined area x/c limits  1.000 1.000

 XFOIL   c>  
.OPERi   c>  
 Xtr/c     =  1.0000    top    side
 Xtr/c     =  1.0000    bottom side
 Ncrit     =    9.00   ( 0.070 % turb. level )
 Vacc      =  0.0100

 Klag  =  5.6000     Uxwt  =    1.00
 A     =  6.7000     B     =  0.7500       KCt = 0.01485
 CtiniK=  1.8000     CtiniX=  3.3000

..VPAR   c>  
..VPAR   c>  
.OPERi   c>  
 M  =    0.0000
 Re =    300000

.OPERv   c>  
.OPERv   c>  
.OPERv   c>  
 Polar  1 newly created for accumulation
 Airfoil archived with polar: NACA 64(4)-421                                  

Enter  polar save filename  OR  <return> for no file   s>  
 New polar save file available

Enter  polar dump filename  OR  <return> for no file   s>  
 Polar dump file will NOT be written

 Polar accumulation enabled

.OPERva   c>   Calculating unit vorticity distributions ...
 Calculating wake trajectory ...
 Calculating source influence matrix ...

 Solving BL system ...

 Initializing BL ...
    side            1  ...
 MRCHUE: Inverse mode at  48     Hk =   4.180
 MRCHUE: Inverse mode at  49     Hk =   4.939
 MRCHUE: Inverse mode at  50     Hk =   5.681
 MRCHUE: Inverse mode at  51     Hk =   6.412
 MRCHUE: Inverse mode at  52     Hk =   7.136
 MRCHUE: Inverse mode at  53     Hk =   7.854
 MRCHUE: Inverse mode at  54     Hk =   8.567
 MRCHUE: Inverse mode at  55     Hk =   9.276
 MRCHUE: Inverse mode at  56     Hk =   7.417
 MRCHUE: Inverse mode at  57     Hk =   4.995
 MRCHUE: Inverse mode at  58     Hk =   3.476
    side            2  ...
 MRCHUE: Inverse mode at  54     Hk =   3.803
 MRCHUE: Inverse mode at  55     Hk =   4.473
 MRCHUE: Inverse mode at  56     Hk =   5.142
 MRCHUE: Inverse mode at  57     Hk =   5.806
 MRCHUE: Inverse mode at  58     Hk =   6.462
 MRCHUE: Inverse mode at  59     Hk =   7.116
 MRCHUE: Inverse mode at  60     Hk =   7.771
 MRCHUE: Inverse mode at  61     Hk =   8.429
 MRCHUE: Inverse mode at  62     Hk =   9.088
 MRCHUE: Inverse mode at  63     Hk =   9.379
 MRCHUE: Inverse mode at  64     Hk =   6.266
 MRCHUE: Inverse mode at  65     Hk =   4.649
 MRCHUE: Inverse mode at  66     Hk =   3.520
 MRCHUE: Inverse mode at  67     Hk =   2.659
 MRCHUE: Inverse mode at  68     Hk =   2.500
 MRCHUE: Inverse mode at  78     Hk =   2.500
 MRCHUE: Inverse mode at  79     Hk =   2.500
 MRCHUE: Inverse mode at  80     Hk =   2.500
 MRCHUE: Inverse mode at  81     Hk =   2.500
 MRCHUE: Inverse mode at  82     Hk =   2.500
 MRCHUE: Inverse mode at  83     Hk =   2.500
 MRCHUE: Inverse mode at  84     Hk =   2.500
 MRCHUE: Inverse mode at  85     Hk =   2.500

 Side 1  free  transition at x/c =  0.6323   56
 Side 2  free  transition at x/c =  0.6061   63

   1   rms: 0.7683E+00   max: -.3388E+01   D at   74  2   RLX: 0.148
       a = -4.000      CL = -0.2000
      Cm = -0.0556     CD =  0.01687   =>   CDf =  0.00616    CDp =  0.01072

 Side 1  free  transition at x/c =  0.6363   56
 Side 2  free  transition at x/c =  0.6092   64
 idif Ue xi dudx           1  0.11952363      3.00168991E-03   39.818779    
 Uenew xinew           2  1.78573430E-02  4.48465347E-04

   2   rms: 0.4484E+00   max: -.2207E+01   D at   86  2   RLX: 0.227
       a = -4.000      CL = -0.2306
      Cm = -0.0510     CD =  0.01447   =>   CDf =  0.00608    CDp =  0.00840

 Side 1  free  transition at x/c =  0.6423   55
 Side 2  free  transition at x/c =  0.6034   64

   3   rms: 0.1664E+00   max: 0.1366E+01   T at   64  2   RLX: 0.522
       a = -4.000      CL = -0.1691
      Cm = -0.0588     CD =  0.01529   =>   CDf =  0.00630    CDp =  0.00899

 MRCHDU: Convergence failed at  58  side 1    Res =  0.4184E+01
 MRCHDU: Convergence failed at  59  side 1    Res =  0.3807E+02
 MRCHDU: Convergence failed at  60  side 1    Res =  0.4893E+01
 MRCHDU: Convergence failed at  61  side 1    Res =  0.3240E+01
 MRCHDU: Convergence failed at  62  side 1    Res =  0.3411E+01
 MRCHDU: Convergence failed at  63  side 1    Res =  0.3881E+01
 MRCHDU: Convergence failed at  64  side 1    Res =  0.4804E+01
 MRCHDU: Convergence failed at  65  side 1    Res =  0.3223E+01
 MRCHDU: Convergence failed at  66  side 1    Res =  0.3813E+01
 MRCHDU: Convergence failed at  67  side 1    Res =  0.4435E+01
 MRCHDU: Convergence failed at  68  side 1    Res =  0.4818E+01
 MRCHDU: Convergence failed at  69  side 1    Res =  0.4601E+02
 MRCHDU: Convergence failed at  70  side 1    Res =  0.2453E+03
 MRCHDU: Convergence failed at  71  side 1    Res =  0.8391E+02
 MRCHDU: Convergence failed at  72  side 1    Res =  0.3473E+02
 MRCHDU: Convergence failed at  73  side 1    Res =  0.2718E+02
 MRCHDU: Convergence failed at  74  side 1    Res =  0.2326E+02
 MRCHDU: Convergence failed at  75  side 1    Res =  0.2420E+02
 MRCHDU: Convergence failed at  76  side 1    Res =  0.2154E+02
 Side 1  free  transition at x/c =  0.6624   57
 Side 2  free  transition at x/c =  0.5792   62
 idif Ue xi dudx           1  0.14384371      3.47161293E-03   41.434258    
 Uenew xinew           2  3.80527414E-02  9.18388367E-04

   4   rms: 0.5048E+00   max: 0.3143E+01   D at   76  1   RLX: 0.340
       a = -4.000      CL = -0.1359
      Cm = -0.1117     CD =  0.00978   =>   CDf =  0.00524    CDp =  0.00454

 MRCHDU: Convergence failed at  61  side 1    Res =  0.6973E-01
 Side 1  free  transition at x/c =  0.6420   55
 Side 2  free  transition at x/c =  0.5636   62

   5   rms: 0.2409E+00   max: -.2003E+01   T at   55  1   RLX: 0.250
       a = -4.000      CL = -0.1916
      Cm = -0.0694     CD =  0.01791   =>   CDf =  0.00581    CDp =  0.01210

 Side 1  free  transition at x/c =  0.6625   56
 Side 2  free  transition at x/c =  0.5639   62

   6   rms: 0.2607E+00   max: -.1631E+01   T at   56  1   RLX: 0.307
       a = -4.000      CL = -0.1585
      Cm = -0.0698     CD =  0.01616   =>   CDf =  0.00589    CDp =  0.01027

 MRCHDU: Convergence failed at  59  side 1    Res =  0.3879E+01
 MRCHDU: Convergence failed at  60  side 1    Res =  0.5311E+01
 MRCHDU: Convergence failed at  61  side 1    Res =  0.1113E+02
 Side 1  free  transition at x/c =  0.6907   59
 Side 2  free  transition at x/c =  0.5659   61

   7   rms: 0.8327E+01   max: -.6784E+02   T at    2  1   RLX: 0.007
       a = -4.000      CL = -0.0904
      Cm = -0.0894     CD =  0.01301   =>   CDf =  0.00570    CDp =  0.00732

 Side 1  free  transition at x/c =  0.6989   59
 Side 2  free  transition at x/c =  0.5696   62

   8   rms: 0.1135E+00   max: 0.3198E+00   D at   64  1   RLX: 0.542
       a = -4.000      CL = -0.1248
      Cm = -0.0734     CD =  0.01324   =>   CDf =  0.00681    CDp =  0.00643

 Side 1  free  transition at x/c =  0.6793   58
 Side 2  free  transition at x/c =  0.5669   61

   9   rms: 0.5021E-01   max: -.6313E+00   D at   60  1   RLX: 0.792
       a = -4.000      CL = -0.1391
      Cm = -0.0658     CD =  0.01399   =>   CDf =  0.00669    CDp =  0.00730

 Side 1  free  transition at x/c =  0.6720   58
 Side 2  free  transition at x/c =  0.5638   61

  10   rms: 0.1430E-01   max: -.2864E+00   D at   60  1
       a = -4.000      CL = -0.1386
      Cm = -0.0648     CD =  0.01410   =>   CDf =  0.00644    CDp =  0.00766

 Side 1  free  transition at x/c =  0.6703   58
 Side 2  free  transition at x/c =  0.5631   61

  11   rms: 0.2702E-02   max: -.6032E-01   D at   60  1
       a = -4.000      CL = -0.1384
      Cm = -0.0648     CD =  0.01410   =>   CDf =  0.00643    CDp =  0.00767

 Side 1  free  transition at x/c =  0.6700   58
 Side 2  free  transition at x/c =  0.5632   61

  12   rms: 0.1147E-03   max: -.2506E-02   D at   60  1
       a = -4.000      CL = -0.1384
      Cm = -0.0648     CD =  0.01410   =>   CDf =  0.00644    CDp =  0.00766

 Side 1  free  transition at x/c =  0.6700   58
 Side 2  free  transition at x/c =  0.5632   61

  13   rms: 0.7307E-06   max: -.8807E-05   D at   60  1
       a = -4.000      CL = -0.1384
      Cm = -0.0648     CD =  0.01410   =>   CDf =  0.00644    CDp =  0.00766
 plradd ia,ip,cpol            1           0  1.82924923E-02

 Point added to stored polar  1
 Point written to save file  naca644421_Re300k.base.pol                      
 Dump file unspecified or not available
 Calculating wake trajectory ...
 Calculating source influence matrix ...

 Solving BL system ...

 Side 1  free  transition at x/c =  0.6700   58
 Side 2  free  transition at x/c =  0.5632   61

   1   rms: 0.7912E-01   max: -.5378E+00   T at   61  2   RLX: 0.930
       a = -3.500      CL = -0.0856
      Cm = -0.0651     CD =  0.01448   =>   CDf =  0.00648    CDp =  0.00800

 Side 1  free  transition at x/c =  0.6623   58
 Side 2  free  transition at x/c =  0.5739   61

   2   rms: 0.2371E-01   max: 0.1997E+00   D at   62  2
       a = -3.500      CL = -0.0808
      Cm = -0.0650     CD =  0.01433   =>   CDf =  0.00657    CDp =  0.00776

 Side 1  free  transition at x/c =  0.6618   58
 Side 2  free  transition at x/c =  0.5741   61

   3   rms: 0.1613E-02   max: 0.1672E-01   D at   62  2
       a = -3.500      CL = -0.0807
      Cm = -0.0650     CD =  0.01434   =>   CDf =  0.00653    CDp =  0.00781

 Side 1  free  transition at x/c =  0.6618   58
 Side 2  free  transition at x/c =  0.5740   61

   4   rms: 0.3631E-04   max: 0.4320E-03   D at   62  2
       a = -3.500      CL = -0.0807
      Cm = -0.0650     CD =  0.01434   =>   CDf =  0.00653    CDp =  0.00781
 plradd ia,ip,cpol            2           0  2.14059986E-02

 Point added to stored polar  1
 Point written to save file  naca644421_Re300k.base.pol                      
 Dump file unspecified or not available
 Calculating wake trajectory ...
 Calculating source influence matrix ...

 Solving BL system ...

 Side 1  free  transition at x/c =  0.6618   58
 Side 2  free  transition at x/c =  0.5740   61

   1   rms: 0.7245E-01   max: -.2406E+00   T at   61  2
       a = -3.000      CL = -0.0248
      Cm = -0.0651     CD =  0.01442   =>   CDf =  0.00653    CDp =  0.00789

 Side 1  free  transition at x/c =  0.6520   58
 Side 2  free  transition at x/c =  0.5781   61

   2   rms: 0.3252E-01   max: -.1947E+00   D at   61  2
       a = -3.000      CL = -0.0241
      Cm = -0.0655     CD =  0.01430   =>   CDf =  0.00653    CDp =  0.00777

 Side 1  free  transition at x/c =  0.6529   58
 Side 2  free  transition at x/c =  0.5807   61

   3   rms: 0.1446E-02   max: 0.1376E-01   D at   62  2
       a = -3.000      CL = -0.0240
      Cm = -0.0655     CD =  0.01428   =>   CDf =  0.00658    CDp =  0.00770

 Side 1  free  transition at x/c =  0.6529   58
 Side 2  free  transition at x/c =  0.5804   61

   4   rms: 0.2878E-05   max: -.2669E-04   D at   61  2
       a = -3.000      CL = -0.0240
      Cm = -0.0655     CD =  0.01428   =>   CDf =  0.00658    CDp =  0.00771
 plradd ia,ip,cpol            3           0  0.39222452    

 Point added to stored polar  1
 Point written to save file  naca644421_Re300k.base.pol                      
 Dump file unspecified or not available
 Calculating wake trajectory ...
 Calculating source influence matrix ...

 Solving BL system ...

 Side 1  free  transition at x/c =  0.6529   58
 Side 2  free  transition at x/c =  0.5804   61

   1   rms: 0.7167E-01   max: -.1866E+00   T at   61  2
       a = -2.500      CL =  0.0335
      Cm = -0.0663     CD =  0.01416   =>   CDf =  0.00660    CDp =  0.00756

 Side 1  free  transition at x/c =  0.6449   59
 Side 2  free  transition at x/c =  0.5858   60

   2   rms: 0.1311E-01   max: -.9808E-01   D at   59  1
       a = -2.500      CL =  0.0342
      Cm = -0.0665     CD =  0.01416   =>   CDf =  0.00679    CDp =  0.00737

 Side 1  free  transition at x/c =  0.6455   59
 Side 2  free  transition at x/c =  0.5863   60

   3   rms: 0.5411E-03   max: 0.4887E-02   D at   59  1
       a = -2.500      CL =  0.0343
      Cm = -0.0665     CD =  0.01416   =>   CDf =  0.00680    CDp =  0.00736

 Side 1  free  transition at x/c =  0.6455   59
 Side 2  free  transition at x/c =  0.5862   60

   4   rms: 0.2355E-05   max: 0.1428E-04   D at   76  1
       a = -2.500      CL =  0.0343
      Cm = -0.0665     CD =  0.01416   =>   CDf =  0.00680    CDp =  0.00736
 plradd ia,ip,cpol            4           0  0.39222452    

 Point added to stored polar  1
 Point written to save file  naca644421_Re300k.base.pol                      
 Dump file unspecified or not available
 Calculating wake trajectory ...
 Calculating source influence matrix ...

 Solving BL system ...

 Side 1  free  transition at x/c =  0.6455   59
 Side 2  free  transition at x/c =  0.5862   60

   1   rms: 0.7424E-01   max: -.2094E+00   T at   60  2
       a = -2.000      CL =  0.0937
      Cm = -0.0678     CD =  0.01416   =>   CDf =  0.00681    CDp =  0.00735

 Side 1  free  transition at x/c =  0.6399   59
 Side 2  free  transition at x/c =  0.5934   60

   2   rms: 0.3217E-01   max: 0.3850E+00   D at   60  2
       a = -2.000      CL =  0.0911
      Cm = -0.0672     CD =  0.01400   =>   CDf =  0.00686    CDp =  0.00714

 Side 1  free  transition at x/c =  0.6381   59
 Side 2  free  transition at x/c =  0.5911   60

   3   rms: 0.1239E-02   max: 0.1234E-01   T at   60  2
       a = -2.000      CL =  0.0912
      Cm = -0.0672     CD =  0.01402   =>   CDf =  0.00682    CDp =  0.00720

 Side 1  free  transition at x/c =  0.6381   59
 Side 2  free  transition at x/c =  0.5908   60

   4   rms: 0.2319E-04   max: -.1926E-03   D at   62  2
       a = -2.000      CL =  0.0912
      Cm = -0.0671     CD =  0.01402   =>   CDf =  0.00682    CDp =  0.00720
 plradd ia,ip,cpol            5           0  0.39222452    

 Point added to stored polar  1
 Point written to save file  naca644421_Re300k.base.pol                      
 Dump file unspecified or not available
 Calculating wake trajectory ...
 Calculating source influence matrix ...

 Solving BL system ...

 Side 1  free  transition at x/c =  0.6381   59
 Side 2  free  transition at x/c =  0.5908   60

   1   rms: 0.7083E-01   max: -.1816E+00   T at   60  2
       a = -1.500      CL =  0.1480
      Cm = -0.0676     CD =  0.01395   =>   CDf =  0.00682    CDp =  0.00713

 Side 1  free  transition at x/c =  0.6297   60
 Side 2  free  transition at x/c =  0.5955   59

   2   rms: 0.8625E-02   max: -.8005E-01   D at   60  1
       a = -1.500      CL =  0.1488
      Cm = -0.0677     CD =  0.01397   =>   CDf =  0.00685    CDp =  0.00712

 Side 1  free  transition at x/c =  0.6307   60
 Side 2  free  transition at x/c =  0.5955   59

   3   rms: 0.1061E-03   max: -.1319E-02   D at   62  1
       a = -1.500      CL =  0.1488
      Cm = -0.0677     CD =  0.01398   =>   CDf =  0.00685    CDp =  0.00713

 Side 1  free  transition at x/c =  0.6307   60
 Side 2  free  transition at x/c =  0.5955   59

   4   rms: 0.6137E-06   max: -.3659E-05   D at   60  2
       a = -1.500      CL =  0.1488
      Cm = -0.0677     CD =  0.01398   =>   CDf =  0.00685    CDp =  0.00713
 plradd ia,ip,cpol            6           0  0.39222452    

 Point added to stored polar  1
 Point written to save file  naca644421_Re300k.base.pol                      
 Dump file unspecified or not available
 Calculating wake trajectory ...
 Calculating source influence matrix ...

 Solving BL system ...

 Side 1  free  transition at x/c =  0.6307   60
 Side 2  free  transition at x/c =  0.5955   59

   1   rms: 0.7149E-01   max: -.1691E+00   T at   59  2
       a = -1.000      CL =  0.2070
      Cm = -0.0685     CD =  0.01397   =>   CDf =  0.00685    CDp =  0.00712

 Side 1  free  transition at x/c =  0.6247   60
 Side 2  free  transition at x/c =  0.6005   59

   2   rms: 0.9152E-02   max: -.6325E-01   D at   60  2
       a = -1.000      CL =  0.2078
      Cm = -0.0687     CD =  0.01403   =>   CDf =  0.00697    CDp =  0.00706

 Side 1  free  transition at x/c =  0.6246   60
 Side 2  free  transition at x/c =  0.6012   59

   3   rms: 0.1865E-03   max: 0.1503E-02   D at   60  1
       a = -1.000      CL =  0.2078
      Cm = -0.0687     CD =  0.01403   =>   CDf =  0.00698    CDp =  0.00704

 Side 1  free  transition at x/c =  0.6245   60
 Side 2  free  transition at x/c =  0.6011   59

   4   rms: 0.1107E-05   max: -.8377E-05   T at   60  1
       a = -1.000      CL =  0.2078
      Cm = -0.0687     CD =  0.01403   =>   CDf =  0.00698    CDp =  0.00704
 plradd ia,ip,cpol            7           0  0.39222452    

 Point added to stored polar  1
 Point written to save file  naca644421_Re300k.base.pol                      
 Dump file unspecified or not available
 Calculating wake trajectory ...
 Calculating source influence matrix ...

 Solving BL system ...

 Side 1  free  transition at x/c =  0.6245   60
 Side 2  free  transition at x/c =  0.6011   59

   1   rms: 0.7394E-01   max: -.1513E+00   T at   59  2
       a = -0.500      CL =  0.2680
      Cm = -0.0701     CD =  0.01426   =>   CDf =  0.00697    CDp =  0.00729

 Side 1  free  transition at x/c =  0.6196   60
 Side 2  free  transition at x/c =  0.6063   58

   2   rms: 0.8914E-02   max: -.1194E+00   D at   60  1
       a = -0.500      CL =  0.2649
      Cm = -0.0696     CD =  0.01404   =>   CDf =  0.00704    CDp =  0.00700

 Side 1  free  transition at x/c =  0.6185   60
 Side 2  free  transition at x/c =  0.6064   58

   3   rms: 0.6346E-03   max: 0.6858E-02   D at   61  1
       a = -0.500      CL =  0.2651
      Cm = -0.0697     CD =  0.01403   =>   CDf =  0.00702    CDp =  0.00701

 Side 1  free  transition at x/c =  0.6185   60
 Side 2  free  transition at x/c =  0.6064   58

   4   rms: 0.5550E-05   max: 0.2833E-04   D at   79  1
       a = -0.500      CL =  0.2651
      Cm = -0.0697     CD =  0.01403   =>   CDf =  0.00702    CDp =  0.00701
 plradd ia,ip,cpol            8           0  0.37603393    

 Point added to stored polar  1
 Point written to save file  naca644421_Re300k.base.pol                      
 Dump file unspecified or not available
 Calculating wake trajectory ...
 Calculating source influence matrix ...

 Solving BL system ...

 Side 1  free  transition at x/c =  0.6185   60
 Side 2  free  transition at x/c =  0.6064   58

   1   rms: 0.7239E-01   max: -.1976E+00   T at   58  2
       a =  0.000      CL =  0.3231
      Cm = -0.0707     CD =  0.01409   =>   CDf =  0.00699    CDp =  0.00710

 Side 1  free  transition at x/c =  0.6123   61
 Side 2  free  transition at x/c =  0.6123   58

   2   rms: 0.1914E-01   max: 0.2713E+00   D at   58  2
       a =  0.000      CL =  0.3227
      Cm = -0.0705     CD =  0.01395   =>   CDf =  0.00702    CDp =  0.00693

 Side 1  free  transition at x/c =  0.6127   61
 Side 2  free  transition at x/c =  0.6109   58

   3   rms: 0.1097E-02   max: 0.1133E-01   D at   58  2
       a =  0.000      CL =  0.3226
      Cm = -0.0704     CD =  0.01396   =>   CDf =  0.00701    CDp =  0.00695

 Side 1  free  transition at x/c =  0.6127   61
 Side 2  free  transition at x/c =  0.6108   58

   4   rms: 0.4062E-05   max: -.3327E-04   D at   60  2
       a =  0.000      CL =  0.3226
      Cm = -0.0704     CD =  0.01396   =>   CDf =  0.00701    CDp =  0.00695
 plradd ia,ip,cpol            9           0  0.37603393    

 Point added to stored polar  1
 Point written to save file  naca644421_Re300k.base.pol                      
 Dump file unspecified or not available
 Calculating wake trajectory ...
 Calculating source influence matrix ...

 Solving BL system ...

 Side 1  free  transition at x/c =  0.6127   61
 Side 2  free  transition at x/c =  0.6108   58

   1   rms: 0.7123E-01   max: -.1723E+00   T at   58  2
       a =  0.500      CL =  0.3806
      Cm = -0.0712     CD =  0.01397   =>   CDf =  0.00697    CDp =  0.00701

 Side 1  free  transition at x/c =  0.6077   62
 Side 2  free  transition at x/c =  0.6153   57

   2   rms: 0.6153E-02   max: -.4671E-01   D at   62  1
       a =  0.500      CL =  0.3813
      Cm = -0.0713     CD =  0.01403   =>   CDf =  0.00702    CDp =  0.00701

 Side 1  free  transition at x/c =  0.6079   62
 Side 2  free  transition at x/c =  0.6153   57

   3   rms: 0.7721E-04   max: 0.7563E-03   D at    4  1
       a =  0.500      CL =  0.3813
      Cm = -0.0713     CD =  0.01403   =>   CDf =  0.00703    CDp =  0.00700
 plradd ia,ip,cpol           10           0  0.37603393    

 Point added to stored polar  1
 Point written to save file  naca644421_Re300k.base.pol                      
 Dump file unspecified or not available
 Calculating wake trajectory ...
 Calculating source influence matrix ...

 Solving BL system ...

 Side 1  free  transition at x/c =  0.6079   62
 Side 2  free  transition at x/c =  0.6153   57

   1   rms: 0.7208E-01   max: -.1492E+00   T at   57  2
       a =  1.000      CL =  0.4405
      Cm = -0.0724     CD =  0.01419   =>   CDf =  0.00698    CDp =  0.00721

 Side 1  free  transition at x/c =  0.6040   62
 Side 2  free  transition at x/c =  0.6210   56

   2   rms: 0.4528E-02   max: 0.5486E-01   D at   63  1
       a =  1.000      CL =  0.4391
      Cm = -0.0722     CD =  0.01424   =>   CDf =  0.00705    CDp =  0.00720

 Side 1  free  transition at x/c =  0.6032   62
 Side 2  free  transition at x/c =  0.6211   56

   3   rms: 0.3622E-03   max: 0.3461E-02   D at   63  1
       a =  1.000      CL =  0.4392
      Cm = -0.0722     CD =  0.01424   =>   CDf =  0.00703    CDp =  0.00721

 Side 1  free  transition at x/c =  0.6032   62
 Side 2  free  transition at x/c =  0.6211   56

   4   rms: 0.3843E-05   max: 0.2138E-04   D at    4  1
       a =  1.000      CL =  0.4392
      Cm = -0.0722     CD =  0.01424   =>   CDf =  0.00703    CDp =  0.00721
 plradd ia,ip,cpol           11           0  0.37603393    

 Point added to stored polar  1
 Point written to save file  naca644421_Re300k.base.pol                      
 Dump file unspecified or not available
 Calculating wake trajectory ...
 Calculating source influence matrix ...

 Solving BL system ...

 Side 1  free  transition at x/c =  0.6032   62
 Side 2  free  transition at x/c =  0.6211   56

   1   rms: 0.7095E-01   max: -.1699E+00   T at   56  2
       a =  1.500      CL =  0.4948
      Cm = -0.0728     CD =  0.01437   =>   CDf =  0.00703    CDp =  0.00734

 Side 1  free  transition at x/c =  0.5977   62
 Side 2  free  transition at x/c =  0.6267   56

   2   rms: 0.7709E-02   max: -.7782E-01   D at   57  2
       a =  1.500      CL =  0.4960
      Cm = -0.0730     CD =  0.01439   =>   CDf =  0.00700    CDp =  0.00739

 Side 1  free  transition at x/c =  0.5978   62
 Side 2  free  transition at x/c =  0.6273   56

   3   rms: 0.3834E-03   max: 0.4309E-02   D at   57  2
       a =  1.500      CL =  0.4960
      Cm = -0.0730     CD =  0.01439   =>   CDf =  0.00701    CDp =  0.00738

 Side 1  free  transition at x/c =  0.5978   62
 Side 2  free  transition at x/c =  0.6273   56

   4   rms: 0.1164E-05   max: 0.8887E-05   D at   57  2
       a =  1.500      CL =  0.4960
      Cm = -0.0730     CD =  0.01439   =>   CDf =  0.00701    CDp =  0.00738
 plradd ia,ip,cpol           12           0  0.35953814    

 Point added to stored polar  1
 Point written to save file  naca644421_Re300k.base.pol                      
 Dump file unspecified or not available
 Calculating wake trajectory ...
 Calculating source influence matrix ...

 Solving BL system ...

 Side 1  free  transition at x/c =  0.5978   62
 Side 2  free  transition at x/c =  0.6273   56

   1   rms: 0.7257E-01   max: -.1966E+00   T at   56  2
       a =  2.000      CL =  0.5542
      Cm = -0.0742     CD =  0.01460   =>   CDf =  0.00693    CDp =  0.00766

 Side 1  free  transition at x/c =  0.5931   63
 Side 2  free  transition at x/c =  0.6359   56

   2   rms: 0.2443E-01   max: 0.3750E+00   D at   56  2
       a =  2.000      CL =  0.5530
      Cm = -0.0737     CD =  0.01446   =>   CDf =  0.00689    CDp =  0.00757

 Side 1  free  transition at x/c =  0.5933   63
 Side 2  free  transition at x/c =  0.6332   56

   3   rms: 0.2828E-02   max: 0.3589E-01   D at   56  2
       a =  2.000      CL =  0.5529
      Cm = -0.0737     CD =  0.01448   =>   CDf =  0.00691    CDp =  0.00757

 Side 1  free  transition at x/c =  0.5933   63
 Side 2  free  transition at x/c =  0.6328   56

   4   rms: 0.2035E-04   max: -.2745E-03   D at   58  2
       a =  2.000      CL =  0.5529
      Cm = -0.0737     CD =  0.01448   =>   CDf =  0.00692    CDp =  0.00757
 plradd ia,ip,cpol           13           0  0.30877554    

 Point added to stored polar  1
 Point written to save file  naca644421_Re300k.base.pol                      
 Dump file unspecified or not available
 Calculating wake trajectory ...
 Calculating source influence matrix ...

 Solving BL system ...

 Side 1  free  transition at x/c =  0.5933   63
 Side 2  free  transition at x/c =  0.6328   56

   1   rms: 0.7106E-01   max: -.1872E+00   T at   56  2
       a =  2.500      CL =  0.6105
      Cm = -0.0744     CD =  0.01465   =>   CDf =  0.00683    CDp =  0.00782

 Side 1  free  transition at x/c =  0.5884   64
 Side 2  free  transition at x/c =  0.6388   55

   2   rms: 0.1093E-01   max: -.8425E-01   D at   64  1
       a =  2.500      CL =  0.6116
      Cm = -0.0746     CD =  0.01466   =>   CDf =  0.00690    CDp =  0.00776

 Side 1  free  transition at x/c =  0.5889   64
 Side 2  free  transition at x/c =  0.6393   55

   3   rms: 0.2252E-03   max: -.1822E-02   D at    4  1
       a =  2.500      CL =  0.6116
      Cm = -0.0746     CD =  0.01466   =>   CDf =  0.00690    CDp =  0.00776

 Side 1  free  transition at x/c =  0.5889   64
 Side 2  free  transition at x/c =  0.6393   55

   4   rms: 0.7334E-06   max: 0.4454E-05   D at   65  2
       a =  2.500      CL =  0.6116
      Cm = -0.0746     CD =  0.01466   =>   CDf =  0.00690    CDp =  0.00776
 plradd ia,ip,cpol           14           0  0.30877554    

 Point added to stored polar  1
 Point written to save file  naca644421_Re300k.base.pol                      
 Dump file unspecified or not available
 Calculating wake trajectory ...
 Calculating source influence matrix ...

 Solving BL system ...

 Side 1  free  transition at x/c =  0.5889   64
 Side 2  free  transition at x/c =  0.6393   55

   1   rms: 0.7267E-01   max: -.1703E+00   T at   55  2
       a =  3.000      CL =  0.6715
      Cm = -0.0758     CD =  0.01491   =>   CDf =  0.00681    CDp =  0.00811

 Side 1  free  transition at x/c =  0.5849   64
 Side 2  free  transition at x/c =  0.6463   54

   2   rms: 0.7481E-02   max: -.6755E-01   D at   55  2
       a =  3.000      CL =  0.6689
      Cm = -0.0755     CD =  0.01499   =>   CDf =  0.00690    CDp =  0.00809

 Side 1  free  transition at x/c =  0.5841   64
 Side 2  free  transition at x/c =  0.6469   54

   3   rms: 0.8394E-03   max: 0.7851E-02   D at   65  1
       a =  3.000      CL =  0.6691
      Cm = -0.0755     CD =  0.01499   =>   CDf =  0.00688    CDp =  0.00811

 Side 1  free  transition at x/c =  0.5841   64
 Side 2  free  transition at x/c =  0.6468   54

   4   rms: 0.6529E-05   max: 0.4256E-04   D at   65  1
       a =  3.000      CL =  0.6691
      Cm = -0.0755     CD =  0.01499   =>   CDf =  0.00688    CDp =  0.00811
 plradd ia,ip,cpol           15           0  0.29194552    

 Point added to stored polar  1
 Point written to save file  naca644421_Re300k.base.pol                      
 Dump file unspecified or not available
 Calculating wake trajectory ...
 Calculating source influence matrix ...

 Solving BL system ...

 Side 1  free  transition at x/c =  0.5841   64
 Side 2  free  transition at x/c =  0.6468   54

   1   rms: 0.7153E-01   max: -.2140E+00   T at   54  2
       a =  3.500      CL =  0.7232
      Cm = -0.0759     CD =  0.01526   =>   CDf =  0.00688    CDp =  0.00837

 Side 1  free  transition at x/c =  0.5787   64
 Side 2  free  transition at x/c =  0.6575   55

   2   rms: 0.2140E-01   max: 0.3409E+00   D at   55  2
       a =  3.500      CL =  0.7227
      Cm = -0.0757     CD =  0.01517   =>   CDf =  0.00666    CDp =  0.00852

 Side 1  free  transition at x/c =  0.5788   64
 Side 2  free  transition at x/c =  0.6546   55

   3   rms: 0.2571E-02   max: 0.3252E-01   D at   55  2
       a =  3.500      CL =  0.7225
      Cm = -0.0756     CD =  0.01520   =>   CDf =  0.00669    CDp =  0.00851

 Side 1  free  transition at x/c =  0.5788   64
 Side 2  free  transition at x/c =  0.6539   55

   4   rms: 0.4208E-04   max: -.6775E-03   D at   57  2
       a =  3.500      CL =  0.7225
      Cm = -0.0756     CD =  0.01520   =>   CDf =  0.00669    CDp =  0.00850
 plradd ia,ip,cpol           16           0  0.29194552    

 Point added to stored polar  1
 Point written to save file  naca644421_Re300k.base.pol                      
 Dump file unspecified or not available
 Calculating wake trajectory ...
 Calculating source influence matrix ...

 Solving BL system ...

 Side 1  free  transition at x/c =  0.5788   64
 Side 2  free  transition at x/c =  0.6539   55

   1   rms: 0.7009E-01   max: -.2099E+00   T at   55  2
       a =  4.000      CL =  0.7770
      Cm = -0.0758     CD =  0.01547   =>   CDf =  0.00658    CDp =  0.00889

 Side 1  free  transition at x/c =  0.5737   65
 Side 2  free  transition at x/c =  0.6619   54

   2   rms: 0.9133E-02   max: -.7191E-01   D at   54  2
       a =  4.000      CL =  0.7788
      Cm = -0.0762     CD =  0.01546   =>   CDf =  0.00659    CDp =  0.00886

 Side 1  free  transition at x/c =  0.5739   65
 Side 2  free  transition at x/c =  0.6627   54

   3   rms: 0.3439E-03   max: 0.2951E-02   D at    4  2
       a =  4.000      CL =  0.7788
      Cm = -0.0762     CD =  0.01546   =>   CDf =  0.00659    CDp =  0.00887

 Side 1  free  transition at x/c =  0.5739   65
 Side 2  free  transition at x/c =  0.6627   54

   4   rms: 0.8493E-06   max: 0.3966E-05   D at    6  2
       a =  4.000      CL =  0.7788
      Cm = -0.0762     CD =  0.01546   =>   CDf =  0.00659    CDp =  0.00887
 plradd ia,ip,cpol           17           0  0.27520984    

 Point added to stored polar  1
 Point written to save file  naca644421_Re300k.base.pol                      
 Dump file unspecified or not available
 Calculating wake trajectory ...
 Calculating source influence matrix ...

 Solving BL system ...

 Side 1  free  transition at x/c =  0.5739   65
 Side 2  free  transition at x/c =  0.6627   54

   1   rms: 0.7175E-01   max: -.2106E+00   T at   54  2
       a =  4.500      CL =  0.8369
      Cm = -0.0771     CD =  0.01573   =>   CDf =  0.00647    CDp =  0.00926

 Side 1  free  transition at x/c =  0.5692   66
 Side 2  free  transition at x/c =  0.6724   54

   2   rms: 0.9083E-02   max: -.7333E-01   D at   66  1
       a =  4.500      CL =  0.8379
      Cm = -0.0772     CD =  0.01569   =>   CDf =  0.00656    CDp =  0.00913

 Side 1  free  transition at x/c =  0.5696   66
 Side 2  free  transition at x/c =  0.6721   54

   3   rms: 0.4652E-03   max: 0.5307E-02   D at   54  2
       a =  4.500      CL =  0.8379
      Cm = -0.0772     CD =  0.01569   =>   CDf =  0.00656    CDp =  0.00914

 Side 1  free  transition at x/c =  0.5696   66
 Side 2  free  transition at x/c =  0.6720   54

   4   rms: 0.1637E-05   max: 0.9917E-05   D at   68  2
       a =  4.500      CL =  0.8379
      Cm = -0.0772     CD =  0.01570   =>   CDf =  0.00656    CDp =  0.00914
 plradd ia,ip,cpol           18           0  0.24195369    

 Point added to stored polar  1
 Point written to save file  naca644421_Re300k.base.pol                      
 Dump file unspecified or not available
 Calculating wake trajectory ...
 Calculating source influence matrix ...

 Solving BL system ...

 Side 1  free  transition at x/c =  0.5696   66
 Side 2  free  transition at x/c =  0.6720   54

   1   rms: 0.7339E-01   max: -.2556E+00   T at   54  2
       a =  5.000      CL =  0.8971
      Cm = -0.0781     CD =  0.01602   =>   CDf =  0.00642    CDp =  0.00959

 Side 1  free  transition at x/c =  0.5658   66
 Side 2  free  transition at x/c =  0.6802   53

   2   rms: 0.1398E-01   max: -.1298E+00   D at   53  2
       a =  5.000      CL =  0.8920
      Cm = -0.0774     CD =  0.01615   =>   CDf =  0.00642    CDp =  0.00972

 Side 1  free  transition at x/c =  0.5647   66
 Side 2  free  transition at x/c =  0.6816   53

   3   rms: 0.1867E-02   max: 0.1651E-01   D at   67  1
       a =  5.000      CL =  0.8917
      Cm = -0.0774     CD =  0.01614   =>   CDf =  0.00639    CDp =  0.00975

 Side 1  free  transition at x/c =  0.5646   66
 Side 2  free  transition at x/c =  0.6814   53

   4   rms: 0.2198E-04   max: 0.1464E-03   D at   67  1
       a =  5.000      CL =  0.8917
      Cm = -0.0774     CD =  0.01614   =>   CDf =  0.00639    CDp =  0.00975
 plradd ia,ip,cpol           19           0  5.58730885E-02

 Point added to stored polar  1
 Point written to save file  naca644421_Re300k.base.pol                      
 Dump file unspecified or not available
 Calculating wake trajectory ...
 Calculating source influence matrix ...

 Solving BL system ...

 Side 1  free  transition at x/c =  0.5646   66
 Side 2  free  transition at x/c =  0.6814   53

   1   rms: 0.6906E-01   max: -.2110E+00   T at   53  2
       a =  5.500      CL =  0.9408
      Cm = -0.0769     CD =  0.01651   =>   CDf =  0.00639    CDp =  0.01012

 Side 1  free  transition at x/c =  0.5550   66
 Side 2  free  transition at x/c =  0.6914   54

   2   rms: 0.2479E-01   max: -.1876E+00   D at   67  1
       a =  5.500      CL =  0.9438
      Cm = -0.0772     CD =  0.01630   =>   CDf =  0.00624    CDp =  0.01006

 Side 1  free  transition at x/c =  0.5570   66
 Side 2  free  transition at x/c =  0.6920   54

   3   rms: 0.7630E-03   max: 0.9648E-02   D at   67  1
       a =  5.500      CL =  0.9437
      Cm = -0.0772     CD =  0.01630   =>   CDf =  0.00623    CDp =  0.01007

 Side 1  free  transition at x/c =  0.5569   66
 Side 2  free  transition at x/c =  0.6919   54

   4   rms: 0.6554E-05   max: 0.6238E-04   D at   67  1
       a =  5.500      CL =  0.9437
      Cm = -0.0772     CD =  0.01630   =>   CDf =  0.00623    CDp =  0.01007
 plradd ia,ip,cpol           20           0  3.90224531E-02

 Point added to stored polar  1
 Point written to save file  naca644421_Re300k.base.pol                      
 Dump file unspecified or not available
 Calculating wake trajectory ...
 Calculating source influence matrix ...

 Solving BL system ...

 Side 1  free  transition at x/c =  0.5569   66
 Side 2  free  transition at x/c =  0.6919   54

   1   rms: 0.7359E-01   max: -.2592E+00   T at   54  2
       a =  6.000      CL =  0.9990
      Cm = -0.0771     CD =  0.01608   =>   CDf =  0.00608    CDp =  0.01001

 Side 1  free  transition at x/c =  0.5478   66
 Side 2  free  transition at x/c =  0.7016   53

   2   rms: 0.2083E-01   max: -.1343E+00   D at   67  1
       a =  6.000      CL =  1.0052
      Cm = -0.0782     CD =  0.01626   =>   CDf =  0.00622    CDp =  0.01003

 Side 1  free  transition at x/c =  0.5484   66
 Side 2  free  transition at x/c =  0.7027   53

   3   rms: 0.1039E-02   max: 0.9843E-02   D at   67  1
       a =  6.000      CL =  1.0045
      Cm = -0.0781     CD =  0.01627   =>   CDf =  0.00624    CDp =  0.01003

 Side 1  free  transition at x/c =  0.5483   66
 Side 2  free  transition at x/c =  0.7026   53

   4   rms: 0.1192E-04   max: 0.8189E-04   D at   67  1
       a =  6.000      CL =  1.0045
      Cm = -0.0781     CD =  0.01627   =>   CDf =  0.00624    CDp =  0.01003
 plradd ia,ip,cpol           21           0  1.40465535E-02

 Point added to stored polar  1
 Point written to save file  naca644421_Re300k.base.pol                      
 Dump file unspecified or not available
 Calculating wake trajectory ...
 Calculating source influence matrix ...

 Solving BL system ...

 Side 1  free  transition at x/c =  0.5483   66
 Side 2  free  transition at x/c =  0.7026   53

   1   rms: 0.6854E-01   max: 0.3753E+00   T at   66  1
       a =  6.500      CL =  1.0433
      Cm = -0.0757     CD =  0.01641   =>   CDf =  0.00608    CDp =  0.01033

 Side 1  free  transition at x/c =  0.5317   67
 Side 2  free  transition at x/c =  0.7145   53

   2   rms: 0.4793E-01   max: -.4129E+00   D at   68  1
       a =  6.500      CL =  1.0523
      Cm = -0.0769     CD =  0.01615   =>   CDf =  0.00608    CDp =  0.01007

 Side 1  free  transition at x/c =  0.5358   67
 Side 2  free  transition at x/c =  0.7142   53

   3   rms: 0.2362E-02   max: -.4110E-01   D at   67  1
       a =  6.500      CL =  1.0522
      Cm = -0.0768     CD =  0.01607   =>   CDf =  0.00606    CDp =  0.01001

 Side 1  free  transition at x/c =  0.5359   67
 Side 2  free  transition at x/c =  0.7142   53

   4   rms: 0.2669E-04   max: 0.2859E-03   D at   68  1
       a =  6.500      CL =  1.0522
      Cm = -0.0768     CD =  0.01607   =>   CDf =  0.00606    CDp =  0.01001
 plradd ia,ip,cpol           22           0  1.16439639E-02

 Point added to stored polar  1
 Point written to save file  naca644421_Re300k.base.pol                      
 Dump file unspecified or not available
 Calculating wake trajectory ...
 Calculating source influence matrix ...

 Solving BL system ...

 Side 1  free  transition at x/c =  0.5359   67
 Side 2  free  transition at x/c =  0.7142   53

   1   rms: 0.8266E-01   max: 0.3702E+00   T at   67  1
       a =  7.000      CL =  1.1110
      Cm = -0.0770     CD =  0.01554   =>   CDf =  0.00588    CDp =  0.00966

 Side 1  free  transition at x/c =  0.5289   67
 Side 2  free  transition at x/c =  0.7246   52

   2   rms: 0.2190E-01   max: 0.1815E+00   D at   68  1
       a =  7.000      CL =  1.1023
      Cm = -0.0761     CD =  0.01615   =>   CDf =  0.00597    CDp =  0.01018

 Side 1  free  transition at x/c =  0.5252   67
 Side 2  free  transition at x/c =  0.7271   52

   3   rms: 0.1732E-02   max: 0.1529E-01   D at   53  2
       a =  7.000      CL =  1.1036
      Cm = -0.0763     CD =  0.01610   =>   CDf =  0.00594    CDp =  0.01016

 Side 1  free  transition at x/c =  0.5252   67
 Side 2  free  transition at x/c =  0.7267   52

   4   rms: 0.7108E-05   max: -.5795E-04   D at   93  1
       a =  7.000      CL =  1.1036
      Cm = -0.0763     CD =  0.01610   =>   CDf =  0.00594    CDp =  0.01016
 plradd ia,ip,cpol           23           0  9.47433803E-03

 Point added to stored polar  1
 Point written to save file  naca644421_Re300k.base.pol                      
 Dump file unspecified or not available
 Calculating wake trajectory ...
 Calculating source influence matrix ...

 Solving BL system ...

 Side 1  free  transition at x/c =  0.5252   67
 Side 2  free  transition at x/c =  0.7267   52

   1   rms: 0.6877E-01   max: 0.2719E+00   T at   67  1
       a =  7.500      CL =  1.1491
      Cm = -0.0749     CD =  0.01624   =>   CDf =  0.00595    CDp =  0.01029

 Side 1  free  transition at x/c =  0.5115   66
 Side 2  free  transition at x/c =  0.7436   53

   2   rms: 0.3440E-01   max: -.2915E+00   D at   67  1
       a =  7.500      CL =  1.1646
      Cm = -0.0772     CD =  0.01600   =>   CDf =  0.00588    CDp =  0.01012

 Side 1  free  transition at x/c =  0.5152   67
 Side 2  free  transition at x/c =  0.7404   53

   3   rms: 0.1585E-01   max: 0.1906E+00   D at   67  1
       a =  7.500      CL =  1.1565
      Cm = -0.0758     CD =  0.01599   =>   CDf =  0.00580    CDp =  0.01020

 Side 1  free  transition at x/c =  0.5142   67
 Side 2  free  transition at x/c =  0.7390   53

   4   rms: 0.1373E-02   max: 0.1387E-01   D at   67  1
       a =  7.500      CL =  1.1557
      Cm = -0.0757     CD =  0.01600   =>   CDf =  0.00584    CDp =  0.01016

 Side 1  free  transition at x/c =  0.5141   67
 Side 2  free  transition at x/c =  0.7390   53

   5   rms: 0.2633E-04   max: -.1402E-03   D at   93  1
       a =  7.500      CL =  1.1557
      Cm = -0.0757     CD =  0.01600   =>   CDf =  0.00584    CDp =  0.01016
 plradd ia,ip,cpol           24           0  2.85802293E-03

 Point added to stored polar  1
 Point written to save file  naca644421_Re300k.base.pol                      
 Dump file unspecified or not available
 Calculating wake trajectory ...
 Calculating source influence matrix ...

 Solving BL system ...

 Side 1  free  transition at x/c =  0.5141   67
 Side 2  free  transition at x/c =  0.7390   53

   1   rms: 0.8146E-01   max: 0.3968E+00   T at   67  1
       a =  8.000      CL =  1.2154
      Cm = -0.0763     CD =  0.01595   =>   CDf =  0.00565    CDp =  0.01030

 Side 1  free  transition at x/c =  0.4963   67
 Side 2  free  transition at x/c =  0.7508   52

   2   rms: 0.3901E-01   max: -.3484E+00   D at   67  1
       a =  8.000      CL =  1.2025
      Cm = -0.0743     CD =  0.01591   =>   CDf =  0.00570    CDp =  0.01021

 Side 1  free  transition at x/c =  0.4986   67
 Side 2  free  transition at x/c =  0.7556   53

   3   rms: 0.1089E-01   max: 0.1743E+00   D at   53  2
       a =  8.000      CL =  1.1975
      Cm = -0.0734     CD =  0.01592   =>   CDf =  0.00565    CDp =  0.01027

 Side 1  free  transition at x/c =  0.4983   67
 Side 2  free  transition at x/c =  0.7536   53

   4   rms: 0.6635E-03   max: 0.7900E-02   D at   53  2
       a =  8.000      CL =  1.1973
      Cm = -0.0734     CD =  0.01593   =>   CDf =  0.00568    CDp =  0.01025

 Side 1  free  transition at x/c =  0.4983   67
 Side 2  free  transition at x/c =  0.7534   53

   5   rms: 0.6030E-05   max: -.6742E-04   D at   55  2
       a =  8.000      CL =  1.1973
      Cm = -0.0733     CD =  0.01593   =>   CDf =  0.00568    CDp =  0.01025
 plradd ia,ip,cpol           25           0  2.85802293E-03

 Point added to stored polar  1
 Point written to save file  naca644421_Re300k.base.pol                      
 Dump file unspecified or not available
 Calculating wake trajectory ...
 Calculating source influence matrix ...

 Solving BL system ...

 Side 1  free  transition at x/c =  0.4983   67
 Side 2  free  transition at x/c =  0.7534   53

   1   rms: 0.7983E-01   max: 0.4115E+00   T at   67  1
       a =  8.500      CL =  1.2432
      Cm = -0.0713     CD =  0.01557   =>   CDf =  0.00548    CDp =  0.01009

 MRCHDU: Convergence failed at  68  side 1    Res =  0.1402E+01
 MRCHDU: Convergence failed at  69  side 1    Res =  0.7573E+01
 MRCHDU: Convergence failed at  70  side 1    Res =  0.4141E+01
 MRCHDU: Convergence failed at  71  side 1    Res =  0.4419E+01
 MRCHDU: Convergence failed at  72  side 1    Res =  0.4829E+01
 MRCHDU: Convergence failed at  73  side 1    Res =  0.5375E+01
 MRCHDU: Convergence failed at  74  side 1    Res =  0.6211E+01
 MRCHDU: Convergence failed at  75  side 1    Res =  0.7573E+01
 MRCHDU: Convergence failed at  76  side 1    Res =  0.1041E+02
 MRCHDU: Convergence failed at  77  side 1    Res =  0.1619E+02
 MRCHDU: Convergence failed at  78  side 1    Res =  0.3472E+02
 MRCHDU: Convergence failed at  79  side 1    Res =  0.3744E+03
 MRCHDU: Convergence failed at  80  side 1    Res =  0.2319E+02
 MRCHDU: Convergence failed at  81  side 1    Res =  0.1101E+02
 MRCHDU: Convergence failed at  82  side 1    Res =  0.3682E+02
 MRCHDU: Convergence failed at  83  side 1    Res =  0.2755E+02
 MRCHDU: Convergence failed at  84  side 1    Res =  0.2378E+02
 MRCHDU: Convergence failed at  85  side 1    Res =  0.2655E+02
 MRCHDU: Convergence failed at  86  side 1    Res =  0.2468E+02
 MRCHDU: Convergence failed at  87  side 1    Res =  0.3707E+02
 MRCHDU: Convergence failed at  88  side 1    Res =  0.1109E+02
 MRCHDU: Convergence failed at  89  side 1    Res =  0.1302E+02
 MRCHDU: Convergence failed at  90  side 1    Res =  0.1890E+02
 MRCHDU: Convergence failed at  91  side 1    Res =  0.2625E+02
 MRCHDU: Convergence failed at  92  side 1    Res =  0.5469E+02
 MRCHDU: Convergence failed at  93  side 1    Res =  0.8030E+02
 MRCHDU: Convergence failed at  94  side 1    Res =  0.1265E+03
 MRCHDU: Convergence failed at  95  side 1    Res =  0.4919E+02
 Side 1  free  transition at x/c =  0.4848   67
 Side 2  free  transition at x/c =  0.7650   52
 idif Ue xi dudx           1  8.14006478E-02  4.03583050E-03   20.169491    
 Uenew xinew           2  6.18890161E-03  3.06844711E-04

   2   rms: 0.7045E+00   max: 0.3606E+01   D at   95  1   RLX: 0.416
       a =  8.500      CL =  1.4682
      Cm = -0.2165     CD =  0.00671   =>   CDf =  0.00426    CDp =  0.00245

 Side 1  free  transition at x/c =  0.4757   65
 Side 2  free  transition at x/c =  0.7676   53

   3   rms: 0.2223E+00   max: -.3655E+00   D at   69  2   RLX: 0.742
       a =  8.500      CL =  1.2982
      Cm = -0.0983     CD =  0.01278   =>   CDf =  0.00628    CDp =  0.00650

 Side 1  free  transition at x/c =  0.4851   67
 Side 2  free  transition at x/c =  0.7698   52

   4   rms: 0.1028E+00   max: -.4519E+00   D at   83  1
       a =  8.500      CL =  1.3201
      Cm = -0.0848     CD =  0.01445   =>   CDf =  0.00574    CDp =  0.00871

 MRCHDU: Convergence failed at  92  side 1    Res =  0.5426E+01
 MRCHDU: Convergence failed at  93  side 1    Res =  0.2487E+01
 MRCHDU: Convergence failed at  94  side 1    Res =  0.1531E+01
 MRCHDU: Convergence failed at  95  side 1    Res =  0.1163E+01
 Side 1  free  transition at x/c =  0.4743   66
 Side 2  free  transition at x/c =  0.7667   52

   5   rms: 0.9419E-01   max: 0.5106E+00   D at   69  2
       a =  8.500      CL =  1.2520
      Cm = -0.0734     CD =  0.01539   =>   CDf =  0.00555    CDp =  0.00984

 Side 1  free  transition at x/c =  0.4822   67
 Side 2  free  transition at x/c =  0.7684   52

   6   rms: 0.2196E-01   max: 0.1764E+00   D at   67  1
       a =  8.500      CL =  1.2336
      Cm = -0.0701     CD =  0.01592   =>   CDf =  0.00544    CDp =  0.01048

 Side 1  free  transition at x/c =  0.4818   67
 Side 2  free  transition at x/c =  0.7682   52

   7   rms: 0.1360E-02   max: 0.1419E-01   D at   67  1
       a =  8.500      CL =  1.2341
      Cm = -0.0702     CD =  0.01597   =>   CDf =  0.00550    CDp =  0.01047

 Side 1  free  transition at x/c =  0.4814   67
 Side 2  free  transition at x/c =  0.7682   52

   8   rms: 0.1787E-04   max: -.2634E-03   D at   69  1
       a =  8.500      CL =  1.2341
      Cm = -0.0702     CD =  0.01598   =>   CDf =  0.00552    CDp =  0.01046
 plradd ia,ip,cpol           26           0  2.85802293E-03

 Point added to stored polar  1
 Point written to save file  naca644421_Re300k.base.pol                      
 Dump file unspecified or not available
 Calculating wake trajectory ...
 Calculating source influence matrix ...

 Solving BL system ...

 Side 1  free  transition at x/c =  0.4814   67
 Side 2  free  transition at x/c =  0.7682   52

   1   rms: 0.7302E-01   max: 0.3121E+00   T at   67  1
       a =  9.000      CL =  1.2764
      Cm = -0.0681     CD =  0.01601   =>   CDf =  0.00552    CDp =  0.01048

 Side 1  free  transition at x/c =  0.4629   66
 Side 2  free  transition at x/c =  0.7871   53

   2   rms: 0.2053E-01   max: -.2051E+00   D at   66  1
       a =  9.000      CL =  1.2641
      Cm = -0.0659     CD =  0.01611   =>   CDf =  0.00539    CDp =  0.01072

 Side 1  free  transition at x/c =  0.4640   66
 Side 2  free  transition at x/c =  0.7826   53

   3   rms: 0.1780E-02   max: 0.1709E-01   C at   66  1
       a =  9.000      CL =  1.2643
      Cm = -0.0660     CD =  0.01615   =>   CDf =  0.00533    CDp =  0.01082

 Side 1  free  transition at x/c =  0.4635   66
 Side 2  free  transition at x/c =  0.7828   53

   4   rms: 0.3237E-04   max: -.4821E-03   D at   68  1
       a =  9.000      CL =  1.2643
      Cm = -0.0660     CD =  0.01615   =>   CDf =  0.00534    CDp =  0.01081
 plradd ia,ip,cpol           27           0  2.85802293E-03

 Point added to stored polar  1
 Point written to save file  naca644421_Re300k.base.pol                      
 Dump file unspecified or not available
 Calculating wake trajectory ...
 Calculating source influence matrix ...

 Solving BL system ...

 Side 1  free  transition at x/c =  0.4635   66
 Side 2  free  transition at x/c =  0.7828   53

   1   rms: 0.6851E-01   max: -.3260E+00   D at   67  1
       a =  9.500      CL =  1.2936
      Cm = -0.0617     CD =  0.01632   =>   CDf =  0.00512    CDp =  0.01119

 Side 1  free  transition at x/c =  0.4387   65
 Side 2  free  transition at x/c =  0.7998   53

   2   rms: 0.2205E-01   max: -.3073E+00   D at   66  1
       a =  9.500      CL =  1.2781
      Cm = -0.0591     CD =  0.01645   =>   CDf =  0.00520    CDp =  0.01125

 Side 1  free  transition at x/c =  0.4450   66
 Side 2  free  transition at x/c =  0.7995   53

   3   rms: 0.1261E-01   max: 0.1742E+00   C at   66  1
       a =  9.500      CL =  1.2769
      Cm = -0.0589     CD =  0.01648   =>   CDf =  0.00508    CDp =  0.01140

 Side 1  free  transition at x/c =  0.4424   66
 Side 2  free  transition at x/c =  0.7995   53

   4   rms: 0.3245E-02   max: -.2708E-01   D at   68  1
       a =  9.500      CL =  1.2788
      Cm = -0.0592     CD =  0.01651   =>   CDf =  0.00520    CDp =  0.01132

 Side 1  free  transition at x/c =  0.4418   66
 Side 2  free  transition at x/c =  0.7994   53

   5   rms: 0.1325E-03   max: -.7279E-03   D at   94  1
       a =  9.500      CL =  1.2789
      Cm = -0.0593     CD =  0.01652   =>   CDf =  0.00522    CDp =  0.01130

 Side 1  free  transition at x/c =  0.4418   66
 Side 2  free  transition at x/c =  0.7994   53

   6   rms: 0.2949E-05   max: -.1273E-04   D at   66  1
       a =  9.500      CL =  1.2789
      Cm = -0.0593     CD =  0.01652   =>   CDf =  0.00522    CDp =  0.01130
 plradd ia,ip,cpol           28           0  2.85802293E-03

 Point added to stored polar  1
 Point written to save file  naca644421_Re300k.base.pol                      
 Dump file unspecified or not available
 Calculating wake trajectory ...
 Calculating source influence matrix ...

 Solving BL system ...

 Side 1  free  transition at x/c =  0.4418   66
 Side 2  free  transition at x/c =  0.7994   53

   1   rms: 0.7105E-01   max: -.4148E+00   D at   67  1
       a = 10.000      CL =  1.2965
      Cm = -0.0532     CD =  0.01707   =>   CDf =  0.00522    CDp =  0.01185

 Side 1  free  transition at x/c =  0.4017   63
 Side 2  free  transition at x/c =  0.8163   54

   2   rms: 0.2817E-01   max: 0.3163E+00   D at   65  1
       a = 10.000      CL =  1.2814
      Cm = -0.0515     CD =  0.01750   =>   CDf =  0.00513    CDp =  0.01238

 Side 1  free  transition at x/c =  0.4098   64
 Side 2  free  transition at x/c =  0.8183   54

   3   rms: 0.6037E-02   max: 0.9341E-01   C at   64  1
       a = 10.000      CL =  1.2813
      Cm = -0.0516     CD =  0.01753   =>   CDf =  0.00503    CDp =  0.01250

 Side 1  free  transition at x/c =  0.4081   64
 Side 2  free  transition at x/c =  0.8184   54

   4   rms: 0.3444E-03   max: -.2406E-02   D at   67  1
       a = 10.000      CL =  1.2814
      Cm = -0.0516     CD =  0.01753   =>   CDf =  0.00508    CDp =  0.01246

 Side 1  free  transition at x/c =  0.4080   63
 Side 2  free  transition at x/c =  0.8184   54

   5   rms: 0.1221E-04   max: -.4608E-04   D at   87  1
       a = 10.000      CL =  1.2814
      Cm = -0.0516     CD =  0.01753   =>   CDf =  0.00508    CDp =  0.01245
 plradd ia,ip,cpol           29           0  2.85802293E-03

 Point added to stored polar  1
 Point written to save file  naca644421_Re300k.base.pol                      
 Dump file unspecified or not available

.OPERva   c>  
 Solving BL system ...

 Side 1  free  transition at x/c =  0.4080   63
 Side 2  free  transition at x/c =  0.8184   54

   1   rms: 0.7422E-05   max: -.1029E-03   C at   63  1
       a = 10.000      CL =  1.2814
      Cm = -0.0516     CD =  0.01753   =>   CDf =  0.00508    CDp =  0.01245
 plradd ia,ip,cpol           30         182  2.85802293E-03

 Point added to stored polar  1
 Point written to save file  naca644421_Re300k.base.pol                      
 Dump file unspecified or not available
 Calculating wake trajectory ...
 Calculating source influence matrix ...

 Solving BL system ...

 Side 1  free  transition at x/c =  0.4080   63
 Side 2  free  transition at x/c =  0.8184   54

   1   rms: 0.3660E-01   max: -.1655E+00   T at   54  2
       a = 10.250      CL =  1.2837
      Cm = -0.0483     CD =  0.01822   =>   CDf =  0.00508    CDp =  0.01314

 Side 1  free  transition at x/c =  0.3707   61
 Side 2  free  transition at x/c =  0.8276   54

   2   rms: 0.2030E-01   max: -.2838E+00   C at   61  1
       a = 10.250      CL =  1.2752
      Cm = -0.0474     CD =  0.01852   =>   CDf =  0.00529    CDp =  0.01323

 Side 1  free  transition at x/c =  0.3827   62
 Side 2  free  transition at x/c =  0.8299   55

   3   rms: 0.4679E-02   max: -.6149E-01   D at   54  2
       a = 10.250      CL =  1.2765
      Cm = -0.0475     CD =  0.01847   =>   CDf =  0.00512    CDp =  0.01335

 Side 1  free  transition at x/c =  0.3813   62
 Side 2  free  transition at x/c =  0.8296   55

   4   rms: 0.3265E-03   max: 0.4224E-02   D at   55  2
       a = 10.250      CL =  1.2765
      Cm = -0.0475     CD =  0.01848   =>   CDf =  0.00513    CDp =  0.01335

 Side 1  free  transition at x/c =  0.3813   62
 Side 2  free  transition at x/c =  0.8295   55

   5   rms: 0.1631E-05   max: -.1967E-04   D at   57  2
       a = 10.250      CL =  1.2765
      Cm = -0.0475     CD =  0.01848   =>   CDf =  0.00513    CDp =  0.01335
 plradd ia,ip,cpol           31           0  2.85802293E-03

 Point added to stored polar  1
 Point written to save file  naca644421_Re300k.base.pol                      
 Dump file unspecified or not available
 Calculating wake trajectory ...
 Calculating source influence matrix ...

 Solving BL system ...

 Side 1  free  transition at x/c =  0.3813   62
 Side 2  free  transition at x/c =  0.8295   55

   1   rms: 0.5365E-01   max: 0.5790E+00   C at   62  1
       a = 10.500      CL =  1.2637
      Cm = -0.0423     CD =  0.01968   =>   CDf =  0.00513    CDp =  0.01455

 Side 1  free  transition at x/c =  0.3539   60
 Side 2  free  transition at x/c =  0.8394   55

   2   rms: 0.8677E-02   max: -.8826E-01   D at   56  2
       a = 10.500      CL =  1.2640
      Cm = -0.0428     CD =  0.01989   =>   CDf =  0.00527    CDp =  0.01462

 Side 1  free  transition at x/c =  0.3552   60
 Side 2  free  transition at x/c =  0.8410   55

   3   rms: 0.4165E-03   max: 0.4075E-02   D at   56  2
       a = 10.500      CL =  1.2639
      Cm = -0.0428     CD =  0.01989   =>   CDf =  0.00523    CDp =  0.01466

 Side 1  free  transition at x/c =  0.3552   60
 Side 2  free  transition at x/c =  0.8408   55

   4   rms: 0.5281E-05   max: -.4137E-04   C at   55  2
       a = 10.500      CL =  1.2639
      Cm = -0.0428     CD =  0.01989   =>   CDf =  0.00523    CDp =  0.01466
 plradd ia,ip,cpol           32           0  2.85802293E-03

 Point added to stored polar  1
 Point written to save file  naca644421_Re300k.base.pol                      
 Dump file unspecified or not available
 Calculating wake trajectory ...
 Calculating source influence matrix ...

 Solving BL system ...

 Side 1  free  transition at x/c =  0.3552   60
 Side 2  free  transition at x/c =  0.8408   55

   1   rms: 0.5536E-01   max: 0.6637E+00   C at   60  1
       a = 10.750      CL =  1.2539
      Cm = -0.0388     CD =  0.02153   =>   CDf =  0.00523    CDp =  0.01630

 Side 1  free  transition at x/c =  0.3231   58
 Side 2  free  transition at x/c =  0.8534   56

   2   rms: 0.1165E-01   max: -.1720E+00   C at   58  1
       a = 10.750      CL =  1.2474
      Cm = -0.0381     CD =  0.02178   =>   CDf =  0.00540    CDp =  0.01637

 Side 1  free  transition at x/c =  0.3303   59
 Side 2  free  transition at x/c =  0.8534   56

   3   rms: 0.3183E-02   max: 0.4518E-01   C at   59  1
       a = 10.750      CL =  1.2494
      Cm = -0.0383     CD =  0.02168   =>   CDf =  0.00530    CDp =  0.01638

 Side 1  free  transition at x/c =  0.3286   59
 Side 2  free  transition at x/c =  0.8533   56

   4   rms: 0.9184E-04   max: -.1473E-02   C at   59  1
       a = 10.750      CL =  1.2494
      Cm = -0.0383     CD =  0.02168   =>   CDf =  0.00532    CDp =  0.01636
 plradd ia,ip,cpol           33           0  2.85802293E-03

 Point added to stored polar  1
 Point written to save file  naca644421_Re300k.base.pol                      
 Dump file unspecified or not available
 Calculating wake trajectory ...
 Calculating source influence matrix ...

 Solving BL system ...

 Side 1  free  transition at x/c =  0.3287   59
 Side 2  free  transition at x/c =  0.8533   56

   1   rms: 0.5927E-01   max: 0.6347E+00   C at   59  1   RLX: 0.906
       a = 11.000      CL =  1.2344
      Cm = -0.0342     CD =  0.02357   =>   CDf =  0.00532    CDp =  0.01825

 Side 1  free  transition at x/c =  0.3059   57
 Side 2  free  transition at x/c =  0.8643   56

   2   rms: 0.1045E-01   max: -.1220E+00   D at   57  2
       a = 11.000      CL =  1.2369
      Cm = -0.0347     CD =  0.02374   =>   CDf =  0.00543    CDp =  0.01831

 Side 1  free  transition at x/c =  0.3015   57
 Side 2  free  transition at x/c =  0.8683   57

   3   rms: 0.4487E-02   max: -.7538E-01   D at   56  2
       a = 11.000      CL =  1.2352
      Cm = -0.0343     CD =  0.02370   =>   CDf =  0.00541    CDp =  0.01829

 Side 1  free  transition at x/c =  0.3030   57
 Side 2  free  transition at x/c =  0.8678   57

   4   rms: 0.4452E-03   max: 0.5996E-02   C at   57  2
       a = 11.000      CL =  1.2352
      Cm = -0.0343     CD =  0.02370   =>   CDf =  0.00539    CDp =  0.01831

 Side 1  free  transition at x/c =  0.3030   57
 Side 2  free  transition at x/c =  0.8676   57

   5   rms: 0.3139E-05   max: -.3757E-04   D at   59  2
       a = 11.000      CL =  1.2352
      Cm = -0.0343     CD =  0.02370   =>   CDf =  0.00539    CDp =  0.01831
 plradd ia,ip,cpol           34           0  2.85802293E-03

 Point added to stored polar  1
 Point written to save file  naca644421_Re300k.base.pol                      
 Dump file unspecified or not available
 Calculating wake trajectory ...
 Calculating source influence matrix ...

 Solving BL system ...

 Side 1  free  transition at x/c =  0.3030   57
 Side 2  free  transition at x/c =  0.8676   57

   1   rms: 0.5698E-01   max: 0.6507E+00   C at   57  1   RLX: 0.842
       a = 11.250      CL =  1.2235
      Cm = -0.0309     CD =  0.02545   =>   CDf =  0.00516    CDp =  0.02029

 Side 1  free  transition at x/c =  0.2785   57
 Side 2  free  transition at x/c =  0.8791   56

   2   rms: 0.1530E-01   max: -.1094E+00   C at   56  2
       a = 11.250      CL =  1.2196
      Cm = -0.0307     CD =  0.02604   =>   CDf =  0.00550    CDp =  0.02053

 Side 1  free  transition at x/c =  0.2777   57
 Side 2  free  transition at x/c =  0.8842   57
 idif Ue xi dudx           1  6.51485994E-02  4.27424908E-03   15.242116    
 Uenew xinew           2  3.27060334E-05  2.14576721E-06

   3   rms: 0.6274E-02   max: -.8897E-01   C at   57  2
       a = 11.250      CL =  1.2190
      Cm = -0.0305     CD =  0.02595   =>   CDf =  0.00568    CDp =  0.02028

 Side 1  free  transition at x/c =  0.2782   56
 Side 2  free  transition at x/c =  0.8845   58

   4   rms: 0.5506E-02   max: -.9785E-01   T at    2  2
       a = 11.250      CL =  1.2189
      Cm = -0.0304     CD =  0.02595   =>   CDf =  0.00544    CDp =  0.02051

 Side 1  free  transition at x/c =  0.2782   56
 Side 2  free  transition at x/c =  0.8843   58

   5   rms: 0.6603E-04   max: -.7761E-03   D at    3  2
       a = 11.250      CL =  1.2189
      Cm = -0.0304     CD =  0.02595   =>   CDf =  0.00545    CDp =  0.02051
 plradd ia,ip,cpol           35           0  2.85802293E-03

 Point added to stored polar  1
 Point written to save file  naca644421_Re300k.base.pol                      
 Dump file unspecified or not available
 Calculating wake trajectory ...
 Calculating source influence matrix ...

 Solving BL system ...

 Side 1  free  transition at x/c =  0.2782   56
 Side 2  free  transition at x/c =  0.8843   58

   1   rms: 0.6105E-01   max: 0.6131E+00   C at   56  1   RLX: 0.774
       a = 11.500      CL =  1.2041
      Cm = -0.0271     CD =  0.02790   =>   CDf =  0.00522    CDp =  0.02268

 Side 1  free  transition at x/c =  0.2612   56
 Side 2  free  transition at x/c =  0.8976   57

   2   rms: 0.2353E-01   max: 0.2480E+00   T at    2  1
       a = 11.500      CL =  1.2029
      Cm = -0.0271     CD =  0.02851   =>   CDf =  0.00550    CDp =  0.02302

 Side 1  free  transition at x/c =  0.2557   55
 Side 2  free  transition at x/c =  0.9058   58

   3   rms: 0.5570E-02   max: -.8213E-01   D at   57  2
       a = 11.500      CL =  1.2026
      Cm = -0.0268     CD =  0.02832   =>   CDf =  0.00549    CDp =  0.02284

 Side 1  free  transition at x/c =  0.2557   55
 Side 2  free  transition at x/c =  0.9066   58

   4   rms: 0.1990E-03   max: 0.3510E-02   C at   58  2
       a = 11.500      CL =  1.2026
      Cm = -0.0268     CD =  0.02832   =>   CDf =  0.00548    CDp =  0.02284

 Side 1  free  transition at x/c =  0.2557   55
 Side 2  free  transition at x/c =  0.9065   58

   5   rms: 0.2508E-05   max: 0.3213E-04   C at   58  2
       a = 11.500      CL =  1.2026
      Cm = -0.0268     CD =  0.02832   =>   CDf =  0.00548    CDp =  0.02284
 plradd ia,ip,cpol           36           0  2.85802293E-03

 Point added to stored polar  1
 Point written to save file  naca644421_Re300k.base.pol                      
 Dump file unspecified or not available
 Calculating wake trajectory ...
 Calculating source influence matrix ...

 Solving BL system ...

 Side 1  free  transition at x/c =  0.2557   55
 Side 2  free  transition at x/c =  0.9065   58

   1   rms: 0.5793E-01   max: 0.6237E+00   C at   55  1   RLX: 0.733
       a = 11.750      CL =  1.1963
      Cm = -0.0248     CD =  0.02998   =>   CDf =  0.00548    CDp =  0.02450

 Side 1  free  transition at x/c =  0.2367   54
 Side 2  free  transition at x/c =  0.9248   59

   2   rms: 0.3232E-01   max: -.5311E+00   C at   59  2   RLX: 0.941
       a = 11.750      CL =  1.1916
      Cm = -0.0243     CD =  0.03067   =>   CDf =  0.00555    CDp =  0.02512

 Side 1  free  transition at x/c =  0.2336   54
 Side 2  free  transition at x/c =  0.9400   60

   3   rms: 0.2330E-01   max: -.3876E+00   C at   60  2
       a = 11.750      CL =  1.1915
      Cm = -0.0245     CD =  0.03080   =>   CDf =  0.00551    CDp =  0.02529

 Side 1  free  transition at x/c =  0.2332   54
 Side 2  free  transition at x/c =  0.9448   61

   4   rms: 0.1993E-01   max: -.3392E+00   C at   61  2
       a = 11.750      CL =  1.1916
      Cm = -0.0245     CD =  0.03079   =>   CDf =  0.00550    CDp =  0.02529

 Side 1  free  transition at x/c =  0.2331   54
 Side 2  free  transition at x/c =  0.9493   61

   5   rms: 0.3321E-02   max: 0.5310E-01   C at   61  2
       a = 11.750      CL =  1.1917
      Cm = -0.0246     CD =  0.03081   =>   CDf =  0.00549    CDp =  0.02532

 Side 1  free  transition at x/c =  0.2330   54
 Side 2  free  transition at x/c =  0.9483   61

   6   rms: 0.7933E-04   max: 0.1274E-02   C at   61  2
       a = 11.750      CL =  1.1917
      Cm = -0.0246     CD =  0.03081   =>   CDf =  0.00549    CDp =  0.02532
 plradd ia,ip,cpol           37           0  2.85802293E-03

 Point added to stored polar  1
 Point written to save file  naca644421_Re300k.base.pol                      
 Dump file unspecified or not available
 Calculating wake trajectory ...
 Calculating source influence matrix ...

 Solving BL system ...

 Side 1  free  transition at x/c =  0.2330   54
 Side 2  free  transition at x/c =  0.9483   61

   1   rms: 0.2086E+00   max: -.3214E+01   C at   61  2   RLX: 0.156
       a = 12.000      CL =  1.1914
      Cm = -0.0247     CD =  0.03133   =>   CDf =  0.00549    CDp =  0.02584

 Side 1  free  transition at x/c =  0.2283   54
 Side 2  free  transition at x/c =  0.9608   62

   2   rms: 0.4154E+00   max: -.6540E+01   C at   62  2   RLX: 0.076
       a = 12.000      CL =  1.1912
      Cm = -0.0251     CD =  0.03152   =>   CDf =  0.00551    CDp =  0.02601

 Side 1  free  transition at x/c =  0.2267   54
 Side 2  free  transition at x/c =  0.9681   62

   3   rms: 0.1063E+01   max: -.1568E+02   C at   62  2   RLX: 0.032
       a = 12.000      CL =  1.1907
      Cm = -0.0250     CD =  0.03153   =>   CDf =  0.00552    CDp =  0.02601

 Side 1  free  transition at x/c =  0.2264   54
 Side 2  free  transition at x/c =  0.9822   64

   4   rms: 0.1123E+02   max: 0.2166E+03   C at   64  2   RLX: 0.007
       a = 12.000      CL =  1.1915
      Cm = -0.0253     CD =  0.03158   =>   CDf =  0.00551    CDp =  0.02607

 Side 1  free  transition at x/c =  0.2259   54
 Side 2  free  transition at x/c =  0.9693   62

   5   rms: 0.9965E+00   max: -.1473E+02   C at   62  2   RLX: 0.034
       a = 12.000      CL =  1.1909
      Cm = -0.0252     CD =  0.03167   =>   CDf =  0.00552    CDp =  0.02615

 Side 1  free  transition at x/c =  0.2255   54
 Side 2  free  transition at x/c =  0.9905   64

   6   rms: 0.9885E+00   max: -.1901E+02   C at   64  2   RLX: 0.026
       a = 12.000      CL =  1.1912
      Cm = -0.0254     CD =  0.03169   =>   CDf =  0.00552    CDp =  0.02617

 Side 1  free  transition at x/c =  0.2250   53
 Side 2  free  transition at x/c =  0.9934   65

   7   rms: 0.8303E+00   max: -.2247E+02   C at   65  2   RLX: 0.022
       a = 12.000      CL =  1.1916
      Cm = -0.0255     CD =  0.03174   =>   CDf =  0.00552    CDp =  0.02623

 Side 1  free  transition at x/c =  0.2243   53
 Side 2  free  transition at x/c =  0.9913   64

   8   rms: 0.8689E+00   max: -.1672E+02   C at   64  2   RLX: 0.030
       a = 12.000      CL =  1.1921
      Cm = -0.0256     CD =  0.03182   =>   CDf =  0.00552    CDp =  0.02630

 Side 1  free  transition at x/c =  0.2236   53
 Side 2  free  transition at x/c =  0.9940   65

   9   rms: 0.8076E+00   max: -.2186E+02   C at   65  2   RLX: 0.023
       a = 12.000      CL =  1.1926
      Cm = -0.0258     CD =  0.03188   =>   CDf =  0.00552    CDp =  0.02636

 Side 1  free  transition at x/c =  0.2229   53
 Side 2  free  transition at x/c =  0.9916   64

  10   rms: 0.8715E+00   max: -.1677E+02   C at   64  2   RLX: 0.030
       a = 12.000      CL =  1.1929
      Cm = -0.0259     CD =  0.03196   =>   CDf =  0.00552    CDp =  0.02644

 Side 1  free  transition at x/c =  0.2222   53
 Side 2  free  transition at x/c =  0.9943   65

  11   rms: 0.8010E+00   max: -.2168E+02   C at   65  2   RLX: 0.023
       a = 12.000      CL =  1.1934
      Cm = -0.0260     CD =  0.03202   =>   CDf =  0.00552    CDp =  0.02650

 MRCHDU: Convergence failed at  64  side 2    Res =  0.1942E-04
 Side 1  free  transition at x/c =  0.2215   53
 Side 2  free  transition at x/c =  0.9915   64

  12   rms: 0.9073E+00   max: -.1747E+02   C at   64  2   RLX: 0.029
       a = 12.000      CL =  1.1936
      Cm = -0.0261     CD =  0.03209   =>   CDf =  0.00552    CDp =  0.02657

 Side 1  free  transition at x/c =  0.2209   53
 Side 2  free  transition at x/c =  0.9942   65

  13   rms: 0.8048E+00   max: -.2179E+02   C at   65  2   RLX: 0.023
       a = 12.000      CL =  1.1940
      Cm = -0.0262     CD =  0.03216   =>   CDf =  0.00553    CDp =  0.02663

 Side 1  free  transition at x/c =  0.2203   53
 Side 2  free  transition at x/c =  0.9912   64

  14   rms: 0.9640E+00   max: -.1857E+02   C at   64  2   RLX: 0.027
       a = 12.000      CL =  1.1942
      Cm = -0.0262     CD =  0.03222   =>   CDf =  0.00553    CDp =  0.02669

 Side 1  free  transition at x/c =  0.2197   53
 Side 2  free  transition at x/c =  0.9939   65

  15   rms: 0.8190E+00   max: -.2218E+02   C at   65  2   RLX: 0.023
       a = 12.000      CL =  1.1946
      Cm = -0.0264     CD =  0.03228   =>   CDf =  0.00553    CDp =  0.02676

 Side 1  free  transition at x/c =  0.2192   53
 Side 2  free  transition at x/c =  0.9909   64

  16   rms: 0.1021E+01   max: -.1967E+02   C at   64  2   RLX: 0.025
       a = 12.000      CL =  1.1947
      Cm = -0.0264     CD =  0.03234   =>   CDf =  0.00553    CDp =  0.02681

 Side 1  free  transition at x/c =  0.2187   53
 Side 2  free  transition at x/c =  0.9936   65

  17   rms: 0.8310E+00   max: -.2250E+02   C at   65  2   RLX: 0.022
       a = 12.000      CL =  1.1950
      Cm = -0.0265     CD =  0.03240   =>   CDf =  0.00553    CDp =  0.02687

 Side 1  free  transition at x/c =  0.2181   53
 Side 2  free  transition at x/c =  0.9905   64

  18   rms: 0.1105E+01   max: -.2130E+02   C at   64  2   RLX: 0.023
       a = 12.000      CL =  1.1951
      Cm = -0.0266     CD =  0.03246   =>   CDf =  0.00553    CDp =  0.02692

 Side 1  free  transition at x/c =  0.2177   53
 Side 2  free  transition at x/c =  0.9933   65

  19   rms: 0.8482E+00   max: -.2297E+02   C at   65  2   RLX: 0.022
       a = 12.000      CL =  1.1954
      Cm = -0.0267     CD =  0.03252   =>   CDf =  0.00553    CDp =  0.02698

 Side 1  free  transition at x/c =  0.2172   53
 Side 2  free  transition at x/c =  0.9901   64

  20   rms: 0.1185E+01   max: -.2285E+02   C at   64  2   RLX: 0.022
       a = 12.000      CL =  1.1954
      Cm = -0.0267     CD =  0.03257   =>   CDf =  0.00554    CDp =  0.02703

 Side 1  free  transition at x/c =  0.2169   53
 Side 2  free  transition at x/c =  0.9928   65

  21   rms: 0.8673E+00   max: -.2349E+02   C at   65  2   RLX: 0.021
       a = 12.000      CL =  1.1957
      Cm = -0.0268     CD =  0.03262   =>   CDf =  0.00554    CDp =  0.02708

 Side 1  free  transition at x/c =  0.2164   53
 Side 2  free  transition at x/c =  0.9895   64

  22   rms: 0.1291E+01   max: -.2489E+02   C at   64  2   RLX: 0.020
       a = 12.000      CL =  1.1957
      Cm = -0.0268     CD =  0.03267   =>   CDf =  0.00554    CDp =  0.02712

 MRCHDU: Convergence failed at  64  side 2    Res =  0.9771E-03
 Side 1  free  transition at x/c =  0.2162   53
 Side 2  free  transition at x/c =  0.9924   64

  23   rms: 0.9248E+00   max: -.1782E+02   C at   64  2   RLX: 0.028
       a = 12.000      CL =  1.1957
      Cm = -0.0268     CD =  0.03272   =>   CDf =  0.00554    CDp =  0.02718

 Side 1  free  transition at x/c =  0.2157   53
 Side 2  free  transition at x/c =  0.9953   65

  24   rms: 0.7996E+00   max: -.2166E+02   C at   65  2   RLX: 0.023
       a = 12.000      CL =  1.1960
      Cm = -0.0269     CD =  0.03279   =>   CDf =  0.00554    CDp =  0.02724

 Side 1  free  transition at x/c =  0.2153   53
 Side 2  free  transition at x/c =  0.9903   64

  25   rms: 0.1192E+01   max: -.2298E+02   C at   64  2   RLX: 0.022
       a = 12.000      CL =  1.1960
      Cm = -0.0270     CD =  0.03283   =>   CDf =  0.00555    CDp =  0.02728

 Side 1  free  transition at x/c =  0.2150   53
 Side 2  free  transition at x/c =  0.9931   65

  26   rms: 0.8554E+00   max: -.2318E+02   C at   65  2   RLX: 0.022
       a = 12.000      CL =  1.1962
      Cm = -0.0271     CD =  0.03288   =>   CDf =  0.00555    CDp =  0.02734

 Side 1  free  transition at x/c =  0.2146   53
 Side 2  free  transition at x/c =  0.9891   64

  27   rms: 0.1377E+01   max: -.2656E+02   C at   64  2   RLX: 0.019
       a = 12.000      CL =  1.1961
      Cm = -0.0271     CD =  0.03292   =>   CDf =  0.00555    CDp =  0.02737

 Side 1  free  transition at x/c =  0.2144   53
 Side 2  free  transition at x/c =  0.9920   64

  28   rms: 0.9996E+00   max: -.1927E+02   C at   64  2   RLX: 0.026
       a = 12.000      CL =  1.1961
      Cm = -0.0271     CD =  0.03297   =>   CDf =  0.00555    CDp =  0.02742

 Side 1  free  transition at x/c =  0.2141   53
 Side 2  free  transition at x/c =  0.9948   65

  29   rms: 0.8227E+00   max: -.2229E+02   C at   65  2   RLX: 0.022
       a = 12.000      CL =  1.1964
      Cm = -0.0272     CD =  0.03303   =>   CDf =  0.00555    CDp =  0.02748

 Side 1  free  transition at x/c =  0.2137   53
 Side 2  free  transition at x/c =  0.9895   64

  30   rms: 0.1345E+01   max: -.2594E+02   C at   64  2   RLX: 0.019
       a = 12.000      CL =  1.1963
      Cm = -0.0272     CD =  0.03306   =>   CDf =  0.00555    CDp =  0.02751

 Side 1  free  transition at x/c =  0.2135   53
 Side 2  free  transition at x/c =  0.9923   64

  31   rms: 0.9953E+00   max: -.1919E+02   C at   64  2   RLX: 0.026
       a = 12.000      CL =  1.1963
      Cm = -0.0272     CD =  0.03311   =>   CDf =  0.00555    CDp =  0.02756

 Side 1  free  transition at x/c =  0.2132   53
 Side 2  free  transition at x/c =  0.9949   65

  32   rms: 0.8290E+00   max: -.2246E+02   C at   65  2   RLX: 0.022
       a = 12.000      CL =  1.1965
      Cm = -0.0273     CD =  0.03317   =>   CDf =  0.00556    CDp =  0.02761

 Side 1  free  transition at x/c =  0.2128   53
 Side 2  free  transition at x/c =  0.9892   64

  33   rms: 0.1398E+01   max: -.2697E+02   C at   64  2   RLX: 0.019
       a = 12.000      CL =  1.1964
      Cm = -0.0273     CD =  0.03320   =>   CDf =  0.00556    CDp =  0.02764

 Side 1  free  transition at x/c =  0.2127   53
 Side 2  free  transition at x/c =  0.9921   64

  34   rms: 0.1035E+01   max: -.1995E+02   C at   64  2   RLX: 0.025
       a = 12.000      CL =  1.1964
      Cm = -0.0273     CD =  0.03324   =>   CDf =  0.00556    CDp =  0.02768

 Side 1  free  transition at x/c =  0.2124   53
 Side 2  free  transition at x/c =  0.9948   65

  35   rms: 0.8341E+00   max: -.2260E+02   C at   65  2   RLX: 0.022
       a = 12.000      CL =  1.1966
      Cm = -0.0274     CD =  0.03329   =>   CDf =  0.00556    CDp =  0.02773

 Side 1  free  transition at x/c =  0.2121   53
 Side 2  free  transition at x/c =  0.9887   64

  36   rms: 0.1496E+01   max: -.2886E+02   C at   64  2   RLX: 0.017
       a = 12.000      CL =  1.1965
      Cm = -0.0274     CD =  0.03332   =>   CDf =  0.00556    CDp =  0.02776

 Side 1  free  transition at x/c =  0.2120   53
 Side 2  free  transition at x/c =  0.9917   64

  37   rms: 0.1091E+01   max: -.2103E+02   C at   64  2   RLX: 0.024
       a = 12.000      CL =  1.1965
      Cm = -0.0274     CD =  0.03336   =>   CDf =  0.00556    CDp =  0.02780

 Side 1  free  transition at x/c =  0.2118   53
 Side 2  free  transition at x/c =  0.9943   65

  38   rms: 0.8457E+00   max: -.2292E+02   C at   65  2   RLX: 0.022
       a = 12.000      CL =  1.1967
      Cm = -0.0275     CD =  0.03341   =>   CDf =  0.00556    CDp =  0.02785

 Side 1  free  transition at x/c =  0.2115   53
 Side 2  free  transition at x/c =  0.9883   64

  39   rms: 0.1588E+01   max: -.3064E+02   C at   64  2   RLX: 0.016
       a = 12.000      CL =  1.1966
      Cm = -0.0275     CD =  0.03344   =>   CDf =  0.00557    CDp =  0.02787

 Side 1  free  transition at x/c =  0.2114   53
 Side 2  free  transition at x/c =  0.9912   64

  40   rms: 0.1156E+01   max: -.2230E+02   C at   64  2   RLX: 0.022
       a = 12.000      CL =  1.1965
      Cm = -0.0275     CD =  0.03347   =>   CDf =  0.00557    CDp =  0.02790

 Side 1  free  transition at x/c =  0.2112   53
 Side 2  free  transition at x/c =  0.9939   65

  41   rms: 0.8581E+00   max: -.2326E+02   C at   65  2   RLX: 0.021
       a = 12.000      CL =  1.1967
      Cm = -0.0276     CD =  0.03352   =>   CDf =  0.00557    CDp =  0.02795

 Side 1  free  transition at x/c =  0.2109   53
 Side 2  free  transition at x/c =  0.9877   64

  42   rms: 0.1721E+01   max: -.3321E+02   C at   64  2   RLX: 0.015
       a = 12.000      CL =  1.1966
      Cm = -0.0276     CD =  0.03354   =>   CDf =  0.00557    CDp =  0.02797

 Side 1  free  transition at x/c =  0.2109   53
 Side 2  free  transition at x/c =  0.9907   64

  43   rms: 0.1230E+01   max: -.2373E+02   C at   64  2   RLX: 0.021
       a = 12.000      CL =  1.1965
      Cm = -0.0276     CD =  0.03356   =>   CDf =  0.00557    CDp =  0.02799

 Side 1  free  transition at x/c =  0.2107   53
 Side 2  free  transition at x/c =  0.9933   65

  44   rms: 0.8703E+00   max: -.2359E+02   C at   65  2   RLX: 0.021
       a = 12.000      CL =  1.1967
      Cm = -0.0277     CD =  0.03361   =>   CDf =  0.00557    CDp =  0.02804

 Side 1  free  transition at x/c =  0.2105   53
 Side 2  free  transition at x/c =  0.9871   64

  45   rms: 0.1865E+01   max: -.3600E+02   C at   64  2   RLX: 0.014
       a = 12.000      CL =  1.1966
      Cm = -0.0276     CD =  0.03363   =>   CDf =  0.00557    CDp =  0.02806

 Side 1  free  transition at x/c =  0.2104   53
 Side 2  free  transition at x/c =  0.9903   64

  46   rms: 0.1299E+01   max: -.2506E+02   C at   64  2   RLX: 0.020
       a = 12.000      CL =  1.1965
      Cm = -0.0276     CD =  0.03365   =>   CDf =  0.00557    CDp =  0.02808

 Side 1  free  transition at x/c =  0.2103   53
 Side 2  free  transition at x/c =  0.9930   65

  47   rms: 0.8771E+00   max: -.2377E+02   C at   65  2   RLX: 0.021
       a = 12.000      CL =  1.1967
      Cm = -0.0277     CD =  0.03370   =>   CDf =  0.00557    CDp =  0.02812

 Side 1  free  transition at x/c =  0.2101   53
 Side 2  free  transition at x/c =  0.9865   64

  48   rms: 0.2023E+01   max: -.3907E+02   C at   64  2   RLX: 0.013
       a = 12.000      CL =  1.1965
      Cm = -0.0277     CD =  0.03372   =>   CDf =  0.00558    CDp =  0.02814

 Side 1  free  transition at x/c =  0.2100   53
 Side 2  free  transition at x/c =  0.9899   64

  49   rms: 0.1369E+01   max: -.2642E+02   C at   64  2   RLX: 0.019
       a = 12.000      CL =  1.1965
      Cm = -0.0277     CD =  0.03373   =>   CDf =  0.00558    CDp =  0.02816

 Side 1  free  transition at x/c =  0.2099   53
 Side 2  free  transition at x/c =  0.9926   64

  50   rms: 0.3162E-01   max: -.4902E+00   C at   64  2
       a = 12.000      CL =  1.1841
      Cm = -0.0243     CD =  0.03395   =>   CDf =  0.00558    CDp =  0.02837

 Side 1  free  transition at x/c =  0.2096   53
 Side 2 forced transition at x/c =  1.0000   65

  51   rms: 0.3271E-02   max: 0.4982E-01   C at   65  2
       a = 12.000      CL =  1.1823
      Cm = -0.0237     CD =  0.03380   =>   CDf =  0.00561    CDp =  0.02818

 Side 1  free  transition at x/c =  0.2106   53
 Side 2 forced transition at x/c =  1.0000   65

  52   rms: 0.8091E-04   max: 0.7134E-03   C at   53  1
       a = 12.000      CL =  1.1823
[...]

 Side 1  free  transition at x/c =  0.1393   48
 Side 2 forced transition at x/c =  1.0000   65

   4   rms: 0.1075E-03   max: -.1105E-02   C at   48  1
       a = 13.000      CL =  1.1654
      Cm = -0.0215     CD =  0.04538   =>   CDf =  0.00599    CDp =  0.03939

 Side 1  free  transition at x/c =  0.1393   48
 Side 2 forced transition at x/c =  1.0000   65

   5   rms: 0.5685E-05   max: 0.4583E-04   C at   65  2
       a = 13.000      CL =  1.1654
      Cm = -0.0215     CD =  0.04538   =>   CDf =  0.00599    CDp =  0.03939
 plradd ia,ip,cpol           42           0  2.85802293E-03

 Point added to stored polar  1
 Point written to save file  naca644421_Re300k.base.pol                      
 Dump file unspecified or not available
 Calculating wake trajectory ...
 Calculating source influence matrix ...

 Solving BL system ...

 Side 1  free  transition at x/c =  0.1393   48
 Side 2 forced transition at x/c =  1.0000   65

   1   rms: 0.4384E-01   max: 0.4699E+00   C at   48  1   RLX: 0.558
       a = 13.250      CL =  1.1644
      Cm = -0.0213     CD =  0.04719   =>   CDf =  0.00599    CDp =  0.04120

 Side 1  free  transition at x/c =  0.1320   47
 Side 2 forced transition at x/c =  1.0000   65

   2   rms: 0.1609E-01   max: 0.1277E+00   C at   47  1
       a = 13.250      CL =  1.1667
      Cm = -0.0212     CD =  0.04807   =>   CDf =  0.00582    CDp =  0.04225

 Side 1  free  transition at x/c =  0.1246   48
 Side 2 forced transition at x/c =  1.0000   64

   3   rms: 0.4917E-02   max: -.5613E-01   C at   48  1
       a = 13.250      CL =  1.1641
      Cm = -0.0212     CD =  0.04820   =>   CDf =  0.00609    CDp =  0.04211

 Side 1  free  transition at x/c =  0.1260   48
 Side 2 forced transition at x/c =  1.0000   64

   4   rms: 0.9145E-03   max: -.1185E-01   D at    4  1
       a = 13.250      CL =  1.1640
      Cm = -0.0212     CD =  0.04817   =>   CDf =  0.00606    CDp =  0.04212

 Side 1  free  transition at x/c =  0.1260   48
 Side 2 forced transition at x/c =  1.0000   64

   5   rms: 0.5261E-05   max: 0.3199E-04   C at   48  1
       a = 13.250      CL =  1.1640
      Cm = -0.0212     CD =  0.04817   =>   CDf =  0.00606    CDp =  0.04212
 plradd ia,ip,cpol           43           0  2.85802293E-03

 Point added to stored polar  1
 Point written to save file  naca644421_Re300k.base.pol                      
 Dump file unspecified or not available
 Calculating wake trajectory ...
 Calculating source influence matrix ...

 Solving BL system ...

 Side 1  free  transition at x/c =  0.1260   48
 Side 2 forced transition at x/c =  1.0000   64

   1   rms: 0.4231E-01   max: 0.4144E+00   C at   48  1   RLX: 0.540
       a = 13.500      CL =  1.1633
      Cm = -0.0211     CD =  0.04996   =>   CDf =  0.00606    CDp =  0.04390

 Side 1  free  transition at x/c =  0.1198   47
 Side 2 forced transition at x/c =  1.0000   64

   2   rms: 0.1596E-01   max: 0.8351E-01   C at   47  1
       a = 13.500      CL =  1.1662
      Cm = -0.0210     CD =  0.05087   =>   CDf =  0.00610    CDp =  0.04476

 Side 1  free  transition at x/c =  0.1130   47
 Side 2 forced transition at x/c =  1.0000   64

   3   rms: 0.4331E-02   max: -.5413E-01   C at   47  1
       a = 13.500      CL =  1.1636
      Cm = -0.0210     CD =  0.05098   =>   CDf =  0.00615    CDp =  0.04483

 Side 1  free  transition at x/c =  0.1142   47
 Side 2 forced transition at x/c =  1.0000   64

   4   rms: 0.1211E-03   max: -.1119E-02   C at   47  1
       a = 13.500      CL =  1.1635
      Cm = -0.0210     CD =  0.05095   =>   CDf =  0.00612    CDp =  0.04483

 Side 1  free  transition at x/c =  0.1142   47
 Side 2 forced transition at x/c =  1.0000   64

   5   rms: 0.8064E-05   max: 0.6086E-04   C at   64  2
       a = 13.500      CL =  1.1636
      Cm = -0.0210     CD =  0.05095   =>   CDf =  0.00612    CDp =  0.04483
 plradd ia,ip,cpol           44           0  2.85802293E-03

 Point added to stored polar  1
 Point written to save file  naca644421_Re300k.base.pol                      
 Dump file unspecified or not available
 Calculating wake trajectory ...
 Calculating source influence matrix ...

 Solving BL system ...

 Side 1  free  transition at x/c =  0.1142   47
 Side 2 forced transition at x/c =  1.0000   64

   1   rms: 0.4059E-01   max: 0.3775E+00   C at   47  1   RLX: 0.523
       a = 13.750      CL =  1.1639
      Cm = -0.0209     CD =  0.05258   =>   CDf =  0.00612    CDp =  0.04646

 Side 1  free  transition at x/c =  0.1086   46
 Side 2 forced transition at x/c =  1.0000   64

   2   rms: 0.1609E-01   max: -.7862E-01   D at   46  1
       a = 13.750      CL =  1.1668
      Cm = -0.0209     CD =  0.05361   =>   CDf =  0.00617    CDp =  0.04744

 Side 1  free  transition at x/c =  0.1027   46
 Side 2 forced transition at x/c =  1.0000   64

   3   rms: 0.4502E-02   max: -.5058E-01   C at   46  1
       a = 13.750      CL =  1.1638
      Cm = -0.0209     CD =  0.05376   =>   CDf =  0.00619    CDp =  0.04757

 Side 1  free  transition at x/c =  0.1038   46
 Side 2 forced transition at x/c =  1.0000   64

   4   rms: 0.1612E-03   max: 0.1443E-02   D at   77  2
       a = 13.750      CL =  1.1638
      Cm = -0.0209     CD =  0.05372   =>   CDf =  0.00617    CDp =  0.04756

 Side 1  free  transition at x/c =  0.1038   46
 Side 2 forced transition at x/c =  1.0000   64

   5   rms: 0.1115E-04   max: 0.8934E-04   C at   64  2
       a = 13.750      CL =  1.1638
      Cm = -0.0209     CD =  0.05372   =>   CDf =  0.00617    CDp =  0.04756
 plradd ia,ip,cpol           45           0  2.85802293E-03

 Point added to stored polar  1
 Point written to save file  naca644421_Re300k.base.pol                      
 Dump file unspecified or not available
 Calculating wake trajectory ...
 Calculating source influence matrix ...

 Solving BL system ...

 Side 1  free  transition at x/c =  0.1038   46
 Side 2 forced transition at x/c =  1.0000   64

   1   rms: 0.3787E-01   max: 0.3184E+00   C at   46  1   RLX: 0.508
       a = 14.000      CL =  1.1648
      Cm = -0.0209     CD =  0.05530   =>   CDf =  0.00617    CDp =  0.04913

 Side 1  free  transition at x/c =  0.0987   46
 Side 2 forced transition at x/c =  1.0000   64

   2   rms: 0.1970E-01   max: -.9473E-01   D at   46  1
       a = 14.000      CL =  1.1613
      Cm = -0.0208     CD =  0.05712   =>   CDf =  0.00623    CDp =  0.05089

 Side 1  free  transition at x/c =  0.0955   45
 Side 2 forced transition at x/c =  1.0000   64

   3   rms: 0.6027E-02   max: -.6937E-01   D at   45  1
       a = 14.000      CL =  1.1648
      Cm = -0.0208     CD =  0.05639   =>   CDf =  0.00621    CDp =  0.05019

 Side 1  free  transition at x/c =  0.0947   45
 Side 2 forced transition at x/c =  1.0000   64

   4   rms: 0.1465E-03   max: 0.1012E-02   C at   45  1
       a = 14.000      CL =  1.1647
      Cm = -0.0208     CD =  0.05645   =>   CDf =  0.00621    CDp =  0.05024

 Side 1  free  transition at x/c =  0.0946   45
 Side 2 forced transition at x/c =  1.0000   64

   5   rms: 0.4550E-05   max: 0.8225E-04   C at   64  2
       a = 14.000      CL =  1.1647
      Cm = -0.0208     CD =  0.05645   =>   CDf =  0.00621    CDp =  0.05024
 plradd ia,ip,cpol           46           0  2.85802293E-03

 Point added to stored polar  1
 Point written to save file  naca644421_Re300k.base.pol                      
 Dump file unspecified or not available
 Calculating wake trajectory ...
 Calculating source influence matrix ...

 Solving BL system ...

 Side 1  free  transition at x/c =  0.0946   45
 Side 2 forced transition at x/c =  1.0000   64

   1   rms: 0.3541E-01   max: 0.2356E+00   C at   45  1   RLX: 0.495
       a = 14.250      CL =  1.1672
      Cm = -0.0209     CD =  0.05782   =>   CDf =  0.00621    CDp =  0.05161

 Side 1  free  transition at x/c =  0.0897   45
 Side 2 forced transition at x/c =  1.0000   64

   2   rms: 0.1913E-01   max: -.1138E+00   D at   45  1
       a = 14.250      CL =  1.1643
      Cm = -0.0209     CD =  0.05972   =>   CDf =  0.00627    CDp =  0.05345

 Side 1  free  transition at x/c =  0.0871   44
 Side 2 forced transition at x/c =  1.0000   64

   3   rms: 0.2529E-02   max: -.3382E-01   C at   44  1
       a = 14.250      CL =  1.1650
      Cm = -0.0209     CD =  0.05932   =>   CDf =  0.00626    CDp =  0.05306

 Side 1  free  transition at x/c =  0.0867   44
 Side 2 forced transition at x/c =  1.0000   64

   4   rms: 0.6068E-04   max: 0.6060E-03   C at   44  1
       a = 14.250      CL =  1.1650
      Cm = -0.0209     CD =  0.05933   =>   CDf =  0.00626    CDp =  0.05307
 plradd ia,ip,cpol           47           0  2.85802293E-03

 Point added to stored polar  1
 Point written to save file  naca644421_Re300k.base.pol                      
 Dump file unspecified or not available
 Calculating wake trajectory ...
 Calculating source influence matrix ...

 Solving BL system ...

 Side 1  free  transition at x/c =  0.0867   44
 Side 2 forced transition at x/c =  1.0000   64

   1   rms: 0.3286E-01   max: 0.1901E+00   T at   44  1   RLX: 0.482
       a = 14.500      CL =  1.1691
      Cm = -0.0210     CD =  0.06049   =>   CDf =  0.00626    CDp =  0.05423

 Side 1  free  transition at x/c =  0.0821   44
 Side 2 forced transition at x/c =  1.0000   64

   2   rms: 0.1760E-01   max: -.1186E+00   D at   44  1
       a = 14.500      CL =  1.1683
      Cm = -0.0211     CD =  0.06222   =>   CDf =  0.00628    CDp =  0.05594

 Side 1  free  transition at x/c =  0.0792   44
 Side 2 forced transition at x/c =  1.0000   64

   3   rms: 0.2486E-02   max: -.1113E-01   T at   44  1
       a = 14.500      CL =  1.1665
      Cm = -0.0210     CD =  0.06215   =>   CDf =  0.00631    CDp =  0.05584

 Side 1  free  transition at x/c =  0.0795   44
 Side 2 forced transition at x/c =  1.0000   64

   4   rms: 0.8766E-04   max: 0.8051E-03   D at   78  2
       a = 14.500      CL =  1.1665
      Cm = -0.0210     CD =  0.06213   =>   CDf =  0.00630    CDp =  0.05583
 plradd ia,ip,cpol           48           0  2.85802293E-03

 Point added to stored polar  1
 Point written to save file  naca644421_Re300k.base.pol                      
 Dump file unspecified or not available
 Calculating wake trajectory ...
 Calculating source influence matrix ...

 Solving BL system ...

 Side 1  free  transition at x/c =  0.0795   44
 Side 2 forced transition at x/c =  1.0000   64

   1   rms: 0.3725E-01   max: -.2113E+00   D at   44  1   RLX: 0.465
       a = 14.750      CL =  1.1658
      Cm = -0.0211     CD =  0.06386   =>   CDf =  0.00602    CDp =  0.05784

 Side 1  free  transition at x/c =  0.0773   44
 Side 2 forced transition at x/c =  1.0000   63

   2   rms: 0.1161E+00   max: 0.2021E+01   D at    2  1   RLX: 0.575
       a = 14.750      CL =  1.1703
      Cm = -0.0211     CD =  0.06407   =>   CDf =  0.00629    CDp =  0.05778

 Side 1  free  transition at x/c =  0.0746   44
 Side 2 forced transition at x/c =  1.0000   63

   3   rms: 0.9167E-02   max: 0.7109E-01   D at    4  1
       a = 14.750      CL =  1.1709
      Cm = -0.0212     CD =  0.06478   =>   CDf =  0.00629    CDp =  0.05849

 Side 1  free  transition at x/c =  0.0734   44
 Side 2 forced transition at x/c =  1.0000   63

   4   rms: 0.8889E-03   max: -.6243E-02   C at   44  1
       a = 14.750      CL =  1.1704
      Cm = -0.0212     CD =  0.06473   =>   CDf =  0.00629    CDp =  0.05844

 Side 1  free  transition at x/c =  0.0735   44
 Side 2 forced transition at x/c =  1.0000   63

   5   rms: 0.2419E-04   max: 0.2686E-03   D at   77  2
       a = 14.750      CL =  1.1704
      Cm = -0.0212     CD =  0.06472   =>   CDf =  0.00628    CDp =  0.05843
 plradd ia,ip,cpol           49           0  2.85802293E-03

 Point added to stored polar  1
 Point written to save file  naca644421_Re300k.base.pol                      
 Dump file unspecified or not available
 Calculating wake trajectory ...
 Calculating source influence matrix ...

 Solving BL system ...

 Side 1  free  transition at x/c =  0.0735   44
 Side 2 forced transition at x/c =  1.0000   63

   1   rms: 0.3523E-01   max: -.1765E+00   D at   45  1   RLX: 0.456
       a = 15.000      CL =  1.1718
      Cm = -0.0214     CD =  0.06617   =>   CDf =  0.00629    CDp =  0.05989

 Side 1  free  transition at x/c =  0.0710   44
 Side 2 forced transition at x/c =  1.0000   63

   2   rms: 0.2000E-01   max: -.8697E-01   D at   45  1
       a = 15.000      CL =  1.1697
      Cm = -0.0215     CD =  0.06818   =>   CDf =  0.00633    CDp =  0.06185

 Side 1  free  transition at x/c =  0.0691   43
 Side 2 forced transition at x/c =  1.0000   63

   3   rms: 0.5771E-02   max: -.6494E-01   C at   43  1
       a = 15.000      CL =  1.1723
      Cm = -0.0214     CD =  0.06749   =>   CDf =  0.00631    CDp =  0.06118

 Side 1  free  transition at x/c =  0.0685   43
 Side 2 forced transition at x/c =  1.0000   63

   4   rms: 0.3000E-03   max: -.1591E-02   D at   72  1
       a = 15.000      CL =  1.1724
      Cm = -0.0214     CD =  0.06751   =>   CDf =  0.00630    CDp =  0.06121

 Side 1  free  transition at x/c =  0.0685   43
 Side 2 forced transition at x/c =  1.0000   63

   5   rms: 0.2897E-04   max: -.2078E-03   D at   77  2
       a = 15.000      CL =  1.1724
      Cm = -0.0214     CD =  0.06752   =>   CDf =  0.00630    CDp =  0.06122
 plradd ia,ip,cpol           50           0  2.85802293E-03

 Point added to stored polar  1
 Point written to save file  naca644421_Re300k.base.pol                      
 Dump file unspecified or not available
 Calculating wake trajectory ...
 Calculating source influence matrix ...

 Solving BL system ...

 Side 1  free  transition at x/c =  0.0685   43
 Side 2 forced transition at x/c =  1.0000   63

   1   rms: 0.3190E-01   max: 0.2009E+00   T at   43  1   RLX: 0.447
       a = 15.250      CL =  1.1762
      Cm = -0.0216     CD =  0.06865   =>   CDf =  0.00631    CDp =  0.06234

 Side 1  free  transition at x/c =  0.0659   43
 Side 2 forced transition at x/c =  1.0000   63

   2   rms: 0.1754E-01   max: -.9253E-01   D at   43  1
       a = 15.250      CL =  1.1773
      Cm = -0.0218     CD =  0.07041   =>   CDf =  0.00631    CDp =  0.06410

 Side 1  free  transition at x/c =  0.0639   43
 Side 2 forced transition at x/c =  1.0000   63

   3   rms: 0.2827E-02   max: -.1910E-01   T at   43  1
       a = 15.250      CL =  1.1755
      Cm = -0.0218     CD =  0.07032   =>   CDf =  0.00632    CDp =  0.06400

 Side 1  free  transition at x/c =  0.0642   43
 Side 2 forced transition at x/c =  1.0000   63

   4   rms: 0.9285E-04   max: 0.6666E-03   D at   78  2
       a = 15.250      CL =  1.1755
      Cm = -0.0218     CD =  0.07029   =>   CDf =  0.00631    CDp =  0.06398
 plradd ia,ip,cpol           51           0  2.85802293E-03

 Point added to stored polar  1
 Point written to save file  naca644421_Re300k.base.pol                      
 Dump file unspecified or not available
 Calculating wake trajectory ...
 Calculating source influence matrix ...

 Solving BL system ...

 Side 1  free  transition at x/c =  0.0642   43
 Side 2 forced transition at x/c =  1.0000   63

   1   rms: 0.3381E-01   max: -.1481E+00   D at   44  1   RLX: 0.434
       a = 15.500      CL =  1.1761
      Cm = -0.0220     CD =  0.07184   =>   CDf =  0.00631    CDp =  0.06553

 Side 1  free  transition at x/c =  0.0627   42
 Side 2 forced transition at x/c =  1.0000   63

   2   rms: 0.1796E-01   max: 0.1242E+00   T at   42  1
       a = 15.500      CL =  1.1815
      Cm = -0.0221     CD =  0.07301   =>   CDf =  0.00634    CDp =  0.06666

 Side 1  free  transition at x/c =  0.0601   42
 Side 2 forced transition at x/c =  1.0000   63

   3   rms: 0.3278E-02   max: -.2233E-01   T at   42  1
       a = 15.500      CL =  1.1792
      Cm = -0.0221     CD =  0.07304   =>   CDf =  0.00630    CDp =  0.06673

 Side 1  free  transition at x/c =  0.0605   42
 Side 2 forced transition at x/c =  1.0000   63

   4   rms: 0.1159E-03   max: -.8499E-03   D at   42  1
       a = 15.500      CL =  1.1792
      Cm = -0.0221     CD =  0.07300   =>   CDf =  0.00629    CDp =  0.06671

 Side 1  free  transition at x/c =  0.0605   42
 Side 2 forced transition at x/c =  1.0000   63

   5   rms: 0.1306E-04   max: 0.1107E-03   C at   63  2
       a = 15.500      CL =  1.1792
      Cm = -0.0221     CD =  0.07300   =>   CDf =  0.00629    CDp =  0.06671
 plradd ia,ip,cpol           52           0  2.85802293E-03

 Point added to stored polar  1
 Point written to save file  naca644421_Re300k.base.pol                      
 Dump file unspecified or not available
 Calculating wake trajectory ...
 Calculating source influence matrix ...

 Solving BL system ...

 Side 1  free  transition at x/c =  0.0605   42
 Side 2 forced transition at x/c =  1.0000   63

   1   rms: 0.3021E-01   max: 0.1862E+00   T at   42  1   RLX: 0.426
       a = 15.750      CL =  1.1825
      Cm = -0.0223     CD =  0.07415   =>   CDf =  0.00629    CDp =  0.06786

 Side 1  free  transition at x/c =  0.0588   42
 Side 2 forced transition at x/c =  1.0000   63

   2   rms: 0.1717E-01   max: 0.8927E-01   T at   42  1
       a = 15.750      CL =  1.1852
      Cm = -0.0226     CD =  0.07581   =>   CDf =  0.00629    CDp =  0.06952

 Side 1  free  transition at x/c =  0.0571   42
 Side 2 forced transition at x/c =  1.0000   63

   3   rms: 0.2870E-02   max: -.1776E-01   T at   42  1
       a = 15.750      CL =  1.1832
      Cm = -0.0226     CD =  0.07577   =>   CDf =  0.00630    CDp =  0.06947

 Side 1  free  transition at x/c =  0.0573   42
 Side 2 forced transition at x/c =  1.0000   63

   4   rms: 0.1170E-03   max: 0.1528E-02   D at   78  2
       a = 15.750      CL =  1.1832
      Cm = -0.0226     CD =  0.07573   =>   CDf =  0.00629    CDp =  0.06945

 Side 1  free  transition at x/c =  0.0573   42
 Side 2 forced transition at x/c =  1.0000   63

   5   rms: 0.6301E-05   max: 0.4984E-04   C at   63  2
       a = 15.750      CL =  1.1832
      Cm = -0.0226     CD =  0.07573   =>   CDf =  0.00629    CDp =  0.06945
 plradd ia,ip,cpol           53           0  2.85802293E-03

 Point added to stored polar  1
 Point written to save file  naca644421_Re300k.base.pol                      
 Dump file unspecified or not available
 Calculating wake trajectory ...
 Calculating source influence matrix ...

 Solving BL system ...

 Side 1  free  transition at x/c =  0.0573   42
 Side 2 forced transition at x/c =  1.0000   63

   1   rms: 0.3191E-01   max: -.1274E+00   D at   43  1   RLX: 0.415
       a = 16.000      CL =  1.1842
      Cm = -0.0228     CD =  0.07719   =>   CDf =  0.00629    CDp =  0.07090

 Side 1  free  transition at x/c =  0.0562   42
 Side 2 forced transition at x/c =  1.0000   63

   2   rms: 0.1977E-01   max: 0.9809E-01   T at   42  1
       a = 16.000      CL =  1.1830
      Cm = -0.0231     CD =  0.07937   =>   CDf =  0.00597    CDp =  0.07340

 Side 1  free  transition at x/c =  0.0550   42
 Side 2 forced transition at x/c =  1.0000   62

   3   rms: 0.7975E-02   max: -.8225E-01   D at   42  1
       a = 16.000      CL =  1.1858
      Cm = -0.0230     CD =  0.07859   =>   CDf =  0.00629    CDp =  0.07230

 Side 1  free  transition at x/c =  0.0547   42
 Side 2 forced transition at x/c =  1.0000   62

   4   rms: 0.8029E-03   max: -.4303E-02   D at   71  1
       a = 16.000      CL =  1.1863
      Cm = -0.0230     CD =  0.07854   =>   CDf =  0.00626    CDp =  0.07227

 Side 1  free  transition at x/c =  0.0547   42
 Side 2 forced transition at x/c =  1.0000   62

   5   rms: 0.6810E-04   max: -.4726E-03   D at   77  2
       a = 16.000      CL =  1.1864
      Cm = -0.0230     CD =  0.07855   =>   CDf =  0.00627    CDp =  0.07229
 plradd ia,ip,cpol           54           0  1.74319639E-03

 Point added to stored polar  1
 Point written to save file  naca644421_Re300k.base.pol                      
 Dump file unspecified or not available

.OPERva   c>  
 Polar accumulation disabled

.OPERv   c>  
 XFOIL   c>  
 XFOIL   c>  