
 ===================================================
  XFOIL Version 6.99
  Copyright (C) 2000   Mark Drela, Harold Youngren

  This software comes with ABSOLUTELY NO WARRANTY,
    subject to the GNU General Public License.

  Caveat computor
 ===================================================

 File  xfoil.def  not found

   QUIT    Exit program

  .OPER    Direct operating point(s)
  .MDES    Complex mapping design routine
  .QDES    Surface speed design routine
  .GDES    Geometry design routine

   SAVE f  Write airfoil to labeled coordinate file
   PSAV f  Write airfoil to plain coordinate file
   ISAV f  Write airfoil to ISES coordinate file
   MSAV f  Write airfoil to MSES coordinate file
   REVE    Reverse written-airfoil node ordering

   LOAD f  Read buffer airfoil from coordinate file
   NACA i  Set NACA 4,5-digit airfoil and buffer airfoil
   INTE    Set buffer airfoil by interpolating two airfoils
   NORM    Buffer airfoil normalization toggle
   XYCM rr Change CM reference location, currently  0.25000 0.00000

   BEND    Display structural properties of current airfoil

   PCOP    Set current-airfoil panel nodes directly from buffer airfoil points
   PANE    Set current-airfoil panel nodes ( 160 ) based on curvature
  .PPAR    Show/change paneling

  .PLOP    Plotting options

   WDEF f  Write  current-settings file
   RDEF f  Reread current-settings file
   NAME s  Specify new airfoil name
   NINC    Increment name version number

   Z       Zoom    | (available in all menus)
   U       Unzoom  | 

 XFOIL   c>  
 Labeled airfoil file.  Name:  SC(2)-0714 | Supercritical airfoil (coordinates 

 Number of input coordinate points:  97
 Counterclockwise ordering
 Max thickness =     0.139412  at x =   0.372
 Max camber    =     0.025378  at x =   0.819

  LE  x,y  =   0.00000   0.00039  |   Chord =   1.00009
  TE  x,y  =   1.00000  -0.01335  |

 Current airfoil nodes set from buffer airfoil nodes (  97 )

 XFOIL   c>  
 XFOIL   c>  
 Blunt trailing edge.  Gap =  0.00590

 Paneling parameters used...
   Number of panel nodes       160
   Panel bunching parameter    1.000
   TE/LE panel density ratio   0.150
   Refined-area/LE panel density ratio    0.200
   Top    side refined area x/c limits  1.000 1.000
   Bottom side refined area x/c limits  1.000 1.000

 XFOIL   c>  
.OPERi   c>  
 Xtr/c     =  1.0000    top    side
 Xtr/c     =  1.0000    bottom side
 Ncrit     =    9.00   ( 0.070 % turb. level )
 Vacc      =  0.0100

 Klag  =  5.6000     Uxwt  =    1.00
 A     =  6.7000     B     =  0.7500       KCt = 0.01485
 CtiniK=  1.8000     CtiniX=  3.3000

..VPAR   c>  
..VPAR   c>  
.OPERi   c>  
 M  =    0.0000
 Re =    600000

.OPERv   c>  
.OPERv   c>  
.OPERv   c>  
 Polar  1 newly created for accumulation
 Airfoil archived with polar: SC(2)-0714 | Supercritical airfoil (coordinates 

Enter  polar save filename  OR  <return> for no file   s>  
 New polar save file available

Enter  polar dump filename  OR  <return> for no file   s>  
 Polar dump file will NOT be written

 Polar accumulation enabled

.OPERva   c>   Calculating unit vorticity distributions ...
 Calculating wake trajectory ...
 Calculating source influence matrix ...

 Solving BL system ...

 Initializing BL ...
    side            1  ...
 MRCHUE: Inverse mode at  67     Hk =   4.089
 MRCHUE: Inverse mode at  68     Hk =   4.746
 MRCHUE: Inverse mode at  69     Hk =   5.392
 MRCHUE: Inverse mode at  70     Hk =   6.026
 MRCHUE: Inverse mode at  71     Hk =   6.640
 MRCHUE: Inverse mode at  72     Hk =   7.236
 MRCHUE: Inverse mode at  73     Hk =   7.814
 MRCHUE: Inverse mode at  74     Hk =   8.360
 MRCHUE: Inverse mode at  75     Hk =   8.856
 MRCHUE: Inverse mode at  76     Hk =   8.108
 MRCHUE: Inverse mode at  77     Hk =   7.007
    side            2  ...
 MRCHUE: Inverse mode at  50     Hk =   3.800
 MRCHUE: Inverse mode at  51     Hk =   4.580
 MRCHUE: Inverse mode at  55     Hk =   3.800
 MRCHUE: Inverse mode at  56     Hk =   4.517
 MRCHUE: Inverse mode at  57     Hk =   4.165
 MRCHUE: Inverse mode at  58     Hk =   2.500
 MRCHUE: Inverse mode at  73     Hk =   2.500
 MRCHUE: Inverse mode at  87     Hk =   2.845
 MRCHUE: Inverse mode at  88     Hk =   2.591

 Side 1  free  transition at x/c =  0.9880   76
 Side 2  free  transition at x/c =  0.5787   57

   1   rms: 0.1915E+00   max: 0.1103E+01   D at   89  2   RLX: 0.882
       a = -4.000      CL =  0.0939
      Cm = -0.1382     CD =  0.00729   =>   CDf =  0.00400    CDp =  0.00329

 MRCHDU: Convergence failed at  59  side 2    Res =  0.6862E+01
 MRCHDU: Convergence failed at  60  side 2    Res =  0.1196E+01
 MRCHDU: Convergence failed at  61  side 2    Res =  0.1853E+01
 MRCHDU: Convergence failed at  62  side 2    Res =  0.2555E+01
 MRCHDU: Convergence failed at  63  side 2    Res =  0.3189E+01
 MRCHDU: Convergence failed at  64  side 2    Res =  0.3626E+01
 MRCHDU: Convergence failed at  65  side 2    Res =  0.3791E+01
 MRCHDU: Convergence failed at  66  side 2    Res =  0.3854E+01
 MRCHDU: Convergence failed at  67  side 2    Res =  0.5436E+01
 MRCHDU: Convergence failed at  68  side 2    Res =  0.8008E+01
 MRCHDU: Convergence failed at  69  side 2    Res =  0.1263E+02
 MRCHDU: Convergence failed at  70  side 2    Res =  0.2261E+02
 MRCHDU: Convergence failed at  71  side 2    Res =  0.2883E+02
 MRCHDU: Convergence failed at  72  side 2    Res =  0.3993E+02
 MRCHDU: Convergence failed at  73  side 2    Res =  0.2877E+02
 MRCHDU: Convergence failed at  74  side 2    Res =  0.2364E+02
 MRCHDU: Convergence failed at  75  side 2    Res =  0.2140E+02
 MRCHDU: Convergence failed at  76  side 2    Res =  0.1671E+02
 MRCHDU: Convergence failed at  77  side 2    Res =  0.1412E+02
 MRCHDU: Convergence failed at  78  side 2    Res =  0.2277E+02
 MRCHDU: Convergence failed at  79  side 2    Res =  0.2093E+02
 MRCHDU: Convergence failed at  80  side 2    Res =  0.1820E+02
 MRCHDU: Convergence failed at  81  side 2    Res =  0.1348E+02
 MRCHDU: Convergence failed at  82  side 2    Res =  0.1125E+02
 MRCHDU: Convergence failed at  83  side 2    Res =  0.1771E+02
 MRCHDU: Convergence failed at  84  side 2    Res =  0.3280E+02
 MRCHDU: Convergence failed at  85  side 2    Res =  0.6008E+01
 Side 1  free  transition at x/c =  0.9694   75
 Side 2  free  transition at x/c =  0.6098   59
 idif Ue xi dudx           1  0.13725193      2.52711773E-03   54.311649    
 Uenew xinew           2  1.98895205E-02  3.66210938E-04

   2   rms: 0.4009E+00   max: 0.1679E+01   T at   76  2   RLX: 0.483
       a = -4.000      CL = -0.0667
      Cm = -0.0642     CD =  0.00774   =>   CDf =  0.00332    CDp =  0.00442

 Side 1  free  transition at x/c =  0.9616   73
 Side 2  free  transition at x/c =  0.5858   59

   3   rms: 0.1805E+00   max: -.2463E+00   D at   86  2
       a = -4.000      CL =  0.0628
      Cm = -0.1304     CD =  0.00892   =>   CDf =  0.00473    CDp =  0.00419

 Side 1  free  transition at x/c =  0.9570   74
 Side 2  free  transition at x/c =  0.5957   58
 idif Ue xi dudx           1  0.11876704      2.20191479E-03   53.938072    
 Uenew xinew           2  2.21189228E-03  4.10079956E-05

   4   rms: 0.1981E-01   max: -.1425E+00   D at   73  2
       a = -4.000      CL =  0.0572
      Cm = -0.1284     CD =  0.00928   =>   CDf =  0.00394    CDp =  0.00534

 Side 1  free  transition at x/c =  0.9574   73
 Side 2  free  transition at x/c =  0.5906   59

   5   rms: 0.1684E-02   max: -.1828E-01   C at   59  2
       a = -4.000      CL =  0.0572
      Cm = -0.1284     CD =  0.00927   =>   CDf =  0.00392    CDp =  0.00535

 Side 1  free  transition at x/c =  0.9574   73
 Side 2  free  transition at x/c =  0.5910   59

   6   rms: 0.2629E-03   max: -.3179E-02   D at    4  2
       a = -4.000      CL =  0.0572
      Cm = -0.1284     CD =  0.00927   =>   CDf =  0.00392    CDp =  0.00535

 Side 1  free  transition at x/c =  0.9574   73
 Side 2  free  transition at x/c =  0.5910   59

   7   rms: 0.1507E-05   max: 0.1222E-04   D at    4  2
       a = -4.000      CL =  0.0572
      Cm = -0.1284     CD =  0.00927   =>   CDf =  0.00392    CDp =  0.00535
 plradd ia,ip,cpol            1           0  2.17408240E-02

 Point added to stored polar  1
 Point written to save file  nasasc2-0714_Re600k.base.pol                    
 Dump file unspecified or not available
 Calculating wake trajectory ...
 Calculating source influence matrix ...

 Solving BL system ...

 Side 1  free  transition at x/c =  0.9574   73
 Side 2  free  transition at x/c =  0.5910   59

   1   rms: 0.9555E-01   max: 0.3670E+00   D at   59  2
       a = -3.500      CL =  0.1313
      Cm = -0.1320     CD =  0.00926   =>   CDf =  0.00388    CDp =  0.00538

 Side 1  free  transition at x/c =  0.9549   74
 Side 2  free  transition at x/c =  0.6136   59

   2   rms: 0.1559E-01   max: 0.1910E+00   C at   59  2
       a = -3.500      CL =  0.1333
      Cm = -0.1324     CD =  0.00923   =>   CDf =  0.00389    CDp =  0.00534

 Side 1  free  transition at x/c =  0.9557   74
 Side 2  free  transition at x/c =  0.6151   59

   3   rms: 0.1209E-02   max: 0.1223E-01   D at   59  2
       a = -3.500      CL =  0.1332
      Cm = -0.1323     CD =  0.00926   =>   CDf =  0.00395    CDp =  0.00531

 Side 1  free  transition at x/c =  0.9558   74
 Side 2  free  transition at x/c =  0.6147   59

   4   rms: 0.1042E-04   max: -.9554E-04   C at   59  2
       a = -3.500      CL =  0.1332
      Cm = -0.1323     CD =  0.00926   =>   CDf =  0.00395    CDp =  0.00531
 plradd ia,ip,cpol            2           0  2.56670788E-02

 Point added to stored polar  1
 Point written to save file  nasasc2-0714_Re600k.base.pol                    
 Dump file unspecified or not available
 Calculating wake trajectory ...
 Calculating source influence matrix ...

 Solving BL system ...

 Side 1  free  transition at x/c =  0.9558   74
 Side 2  free  transition at x/c =  0.6147   59

   1   rms: 0.1105E+00   max: 0.8264E+00   C at   59  2   RLX: 0.901
       a = -3.000      CL =  0.2068
      Cm = -0.1372     CD =  0.00927   =>   CDf =  0.00390    CDp =  0.00536

 MRCHDU: Convergence failed at  60  side 2    Res =  0.1686E+01
 MRCHDU: Convergence failed at  61  side 2    Res =  0.1720E+02
 MRCHDU: Convergence failed at  62  side 2    Res =  0.4105E+01
 MRCHDU: Convergence failed at  63  side 2    Res =  0.4027E+01
 MRCHDU: Convergence failed at  64  side 2    Res =  0.5549E+01
 MRCHDU: Convergence failed at  65  side 2    Res =  0.8134E+01
 MRCHDU: Convergence failed at  66  side 2    Res =  0.1277E+02
 MRCHDU: Convergence failed at  67  side 2    Res =  0.2616E+02
 MRCHDU: Convergence failed at  68  side 2    Res =  0.1476E+03
 MRCHDU: Convergence failed at  69  side 2    Res =  0.1055E+02
 MRCHDU: Convergence failed at  70  side 2    Res =  0.1470E+02
 MRCHDU: Convergence failed at  71  side 2    Res =  0.2456E+02
 MRCHDU: Convergence failed at  72  side 2    Res =  0.3220E+02
 MRCHDU: Convergence failed at  73  side 2    Res =  0.6019E+02
 MRCHDU: Convergence failed at  74  side 2    Res =  0.2322E+02
 MRCHDU: Convergence failed at  75  side 2    Res =  0.2388E+02
 MRCHDU: Convergence failed at  76  side 2    Res =  0.3502E+02
 MRCHDU: Convergence failed at  77  side 2    Res =  0.2965E+02
 MRCHDU: Convergence failed at  78  side 2    Res =  0.1062E+02
 MRCHDU: Convergence failed at  79  side 2    Res =  0.6203E+03
 MRCHDU: Convergence failed at  80  side 2    Res =  0.3508E+02
 MRCHDU: Convergence failed at  81  side 2    Res =  0.2559E+02
 MRCHDU: Convergence failed at  82  side 2    Res =  0.5528E+02
 MRCHDU: Convergence failed at  83  side 2    Res =  0.2025E+02
 MRCHDU: Convergence failed at  84  side 2    Res =  0.1047E+02
 Side 1  free  transition at x/c =  0.9524   74
 Side 2  free  transition at x/c =  0.6309   59

   2   rms: 0.5157E+00   max: 0.2765E+01   D at   72  2   RLX: 0.306
       a = -3.000      CL =  0.0952
      Cm = -0.0633     CD =  0.00741   =>   CDf =  0.00328    CDp =  0.00413

 MRCHDU: Convergence failed at  76  side 1    Res =  0.1994E+02
 MRCHDU: Convergence failed at  77  side 1    Res =  0.1531E+02
 MRCHDU: Convergence failed at  78  side 1    Res =  0.4252E+02
 MRCHDU: Convergence failed at  73  side 2    Res =  0.1554E-02
 Side 1  free  transition at x/c =  0.9678   75
 Side 2  free  transition at x/c =  0.6174   59

   3   rms: 0.4070E+00   max: 0.4234E+01   T at   75  1   RLX: 0.163
       a = -3.000      CL =  0.1243
      Cm = -0.0962     CD =  0.00734   =>   CDf =  0.00388    CDp =  0.00347

 Side 1  free  transition at x/c =  0.9509   74
 Side 2  free  transition at x/c =  0.6184   59

   4   rms: 0.1948E+00   max: -.9045E+00   D at   66  2   RLX: 0.553
       a = -3.000      CL =  0.1746
      Cm = -0.1196     CD =  0.01011   =>   CDf =  0.00383    CDp =  0.00628

 Side 1  free  transition at x/c =  0.9498   74
 Side 2  free  transition at x/c =  0.6263   59

   5   rms: 0.2372E+00   max: -.1033E+01   D at   81  2   RLX: 0.386
       a = -3.000      CL =  0.2213
      Cm = -0.1339     CD =  0.01005   =>   CDf =  0.00391    CDp =  0.00614

 MRCHDU: Convergence failed at  74  side 2    Res =  0.1692E+01
 MRCHDU: Convergence failed at  75  side 2    Res =  0.7950E+00
 MRCHDU: Convergence failed at  76  side 2    Res =  0.1032E+01
 MRCHDU: Convergence failed at  77  side 2    Res =  0.1064E+01
 MRCHDU: Convergence failed at  78  side 2    Res =  0.8778E+00
 MRCHDU: Convergence failed at  79  side 2    Res =  0.9793E+00
 Side 1  free  transition at x/c =  0.9531   75
 Side 2  free  transition at x/c =  0.6303   58

   6   rms: 0.1604E+00   max: -.3798E+00   D at   84  2   RLX: 0.842
       a = -3.000      CL =  0.2386
      Cm = -0.1392     CD =  0.00894   =>   CDf =  0.00437    CDp =  0.00457

 MRCHDU: Convergence failed at  77  side 1    Res =  0.4568E+01
 MRCHDU: Convergence failed at  78  side 1    Res =  0.3026E+02
 MRCHDU: Convergence failed at  79  side 1    Res =  0.2769E+02
 Side 1  free  transition at x/c =  0.9668   76
 Side 2  free  transition at x/c =  0.6318   58
 idif Ue xi dudx           1  0.15107033      2.56073475E-03   58.994915    
 Uenew xinew           2  3.32508050E-02  5.63621521E-04

   7   rms: 0.3293E+00   max: 0.2969E+01   T at   76  1   RLX: 0.255
       a = -3.000      CL =  0.1939
      Cm = -0.1341     CD =  0.00622   =>   CDf =  0.00405    CDp =  0.00217

 Side 1  free  transition at x/c =  0.9480   74
 Side 2  free  transition at x/c =  0.6293   59

   8   rms: 0.5133E-01   max: -.6131E+00   D at   78  1   RLX: 0.816
       a = -3.000      CL =  0.1717
      Cm = -0.1278     CD =  0.01001   =>   CDf =  0.00395    CDp =  0.00605

 Side 1  free  transition at x/c =  0.9420   74
 Side 2  free  transition at x/c =  0.6280   59

   9   rms: 0.4074E-01   max: -.3880E+00   D at   78  1
       a = -3.000      CL =  0.1820
      Cm = -0.1301     CD =  0.00937   =>   CDf =  0.00391    CDp =  0.00546

 Side 1  free  transition at x/c =  0.9451   74
 Side 2  free  transition at x/c =  0.6282   59

  10   rms: 0.2365E-01   max: -.1707E+00   T at   74  1
       a = -3.000      CL =  0.1989
      Cm = -0.1338     CD =  0.00931   =>   CDf =  0.00390    CDp =  0.00541

 Side 1  free  transition at x/c =  0.9499   74
 Side 2  free  transition at x/c =  0.6289   59

  11   rms: 0.1765E-01   max: -.1507E+00   T at   74  1
       a = -3.000      CL =  0.2095
      Cm = -0.1360     CD =  0.00918   =>   CDf =  0.00390    CDp =  0.00528

 Side 1  free  transition at x/c =  0.9538   75
 Side 2  free  transition at x/c =  0.6294   59

  12   rms: 0.4087E-02   max: 0.2806E-01   D at   74  1
       a = -3.000      CL =  0.2093
      Cm = -0.1359     CD =  0.00916   =>   CDf =  0.00391    CDp =  0.00525

 Side 1  free  transition at x/c =  0.9537   75
 Side 2  free  transition at x/c =  0.6294   59

  13   rms: 0.9711E-04   max: 0.7846E-03   T at   75  1
       a = -3.000      CL =  0.2093
      Cm = -0.1359     CD =  0.00916   =>   CDf =  0.00391    CDp =  0.00525
 plradd ia,ip,cpol            3           0  3.00859995E-02

 Point added to stored polar  1
 Point written to save file  nasasc2-0714_Re600k.base.pol                    
 Dump file unspecified or not available
 Calculating wake trajectory ...
 Calculating source influence matrix ...

 Solving BL system ...

 Side 1  free  transition at x/c =  0.9537   75
 Side 2  free  transition at x/c =  0.6294   59

   1   rms: 0.9645E-01   max: -.3062E+00   T at   59  2
       a = -2.500      CL =  0.2898
      Cm = -0.1406     CD =  0.00890   =>   CDf =  0.00386    CDp =  0.00504

 Side 1  free  transition at x/c =  0.9509   75
 Side 2  free  transition at x/c =  0.6444   59

   2   rms: 0.6550E-01   max: 0.4247E+00   D at   59  2
       a = -2.500      CL =  0.2547
      Cm = -0.1333     CD =  0.00909   =>   CDf =  0.00380    CDp =  0.00529

 Side 1  free  transition at x/c =  0.9385   75
 Side 2  free  transition at x/c =  0.6411   59

   3   rms: 0.4421E-01   max: -.2754E+00   D at   78  1
       a = -2.500      CL =  0.2653
      Cm = -0.1352     CD =  0.00903   =>   CDf =  0.00383    CDp =  0.00520

 Side 1  free  transition at x/c =  0.9426   75
 Side 2  free  transition at x/c =  0.6387   59

   4   rms: 0.1226E-01   max: -.9399E-01   D at   75  1
       a = -2.500      CL =  0.2680
      Cm = -0.1358     CD =  0.00908   =>   CDf =  0.00387    CDp =  0.00521

 Side 1  free  transition at x/c =  0.9440   75
 Side 2  free  transition at x/c =  0.6387   59

   5   rms: 0.2279E-03   max: 0.1741E-02   D at   77  1
       a = -2.500      CL =  0.2678
      Cm = -0.1357     CD =  0.00908   =>   CDf =  0.00387    CDp =  0.00521

 Side 1  free  transition at x/c =  0.9440   75
 Side 2  free  transition at x/c =  0.6386   59

   6   rms: 0.1761E-05   max: -.1335E-04   D at   76  1
       a = -2.500      CL =  0.2678
      Cm = -0.1357     CD =  0.00908   =>   CDf =  0.00387    CDp =  0.00521
 plradd ia,ip,cpol            4           0  3.00859995E-02

 Point added to stored polar  1
 Point written to save file  nasasc2-0714_Re600k.base.pol                    
 Dump file unspecified or not available
 Calculating wake trajectory ...
 Calculating source influence matrix ...

 Solving BL system ...

 Side 1  free  transition at x/c =  0.9440   75
 Side 2  free  transition at x/c =  0.6386   59

   1   rms: 0.9616E-01   max: 0.3223E+00   D at   60  2
       a = -2.000      CL =  0.3365
      Cm = -0.1372     CD =  0.00893   =>   CDf =  0.00382    CDp =  0.00511

 Side 1  free  transition at x/c =  0.9279   75
 Side 2  free  transition at x/c =  0.6503   59

   2   rms: 0.3696E-01   max: -.3330E+00   D at   75  1
       a = -2.000      CL =  0.3387
      Cm = -0.1375     CD =  0.00874   =>   CDf =  0.00388    CDp =  0.00486

 Side 1  free  transition at x/c =  0.9350   75
 Side 2  free  transition at x/c =  0.6520   59

   3   rms: 0.6648E-02   max: 0.5875E-01   D at   76  1
       a = -2.000      CL =  0.3350
      Cm = -0.1367     CD =  0.00881   =>   CDf =  0.00386    CDp =  0.00495

 Side 1  free  transition at x/c =  0.9331   75
 Side 2  free  transition at x/c =  0.6517   59

   4   rms: 0.5753E-03   max: -.6035E-02   D at   76  1
       a = -2.000      CL =  0.3353
      Cm = -0.1368     CD =  0.00880   =>   CDf =  0.00386    CDp =  0.00493

 Side 1  free  transition at x/c =  0.9332   75
 Side 2  free  transition at x/c =  0.6517   59

   5   rms: 0.3161E-05   max: -.3236E-04   D at   85  2
       a = -2.000      CL =  0.3353
      Cm = -0.1368     CD =  0.00880   =>   CDf =  0.00386    CDp =  0.00493
 plradd ia,ip,cpol            5           0  4.07858379E-02

 Point added to stored polar  1
 Point written to save file  nasasc2-0714_Re600k.base.pol                    
 Dump file unspecified or not available
 Calculating wake trajectory ...
 Calculating source influence matrix ...

 Solving BL system ...

 Side 1  free  transition at x/c =  0.9332   75
 Side 2  free  transition at x/c =  0.6517   59

   1   rms: 0.9773E-01   max: 0.5094E+00   T at   75  1
       a = -1.500      CL =  0.3787
      Cm = -0.1323     CD =  0.00853   =>   CDf =  0.00381    CDp =  0.00472

 Side 1  free  transition at x/c =  0.9101   75
 Side 2  free  transition at x/c =  0.6569   58

   2   rms: 0.5808E-01   max: -.3692E+00   D at   58  2
       a = -1.500      CL =  0.3932
      Cm = -0.1355     CD =  0.00867   =>   CDf =  0.00374    CDp =  0.00493

 Side 1  free  transition at x/c =  0.9161   75
 Side 2  free  transition at x/c =  0.6601   58

   3   rms: 0.6852E-02   max: -.5333E-01   D at   84  2
       a = -1.500      CL =  0.3898
      Cm = -0.1348     CD =  0.00865   =>   CDf =  0.00378    CDp =  0.00487

 Side 1  free  transition at x/c =  0.9140   75
 Side 2  free  transition at x/c =  0.6595   58

   4   rms: 0.4091E-03   max: -.4919E-02   D at   84  2
       a = -1.500      CL =  0.3895
      Cm = -0.1347     CD =  0.00866   =>   CDf =  0.00379    CDp =  0.00486

 Side 1  free  transition at x/c =  0.9139   75
 Side 2  free  transition at x/c =  0.6595   58

   5   rms: 0.1683E-05   max: -.2491E-04   D at   84  2
       a = -1.500      CL =  0.3895
      Cm = -0.1347     CD =  0.00866   =>   CDf =  0.00379    CDp =  0.00486
 plradd ia,ip,cpol            6           0  3.51934172E-02

 Point added to stored polar  1
 Point written to save file  nasasc2-0714_Re600k.base.pol                    
 Dump file unspecified or not available
 Calculating wake trajectory ...
 Calculating source influence matrix ...

 Solving BL system ...

 Side 1  free  transition at x/c =  0.9139   75
 Side 2  free  transition at x/c =  0.6595   58

   1   rms: 0.8584E-01   max: -.1939E+00   T at   58  2
       a = -1.000      CL =  0.4482
      Cm = -0.1344     CD =  0.00844   =>   CDf =  0.00375    CDp =  0.00469

 Side 1  free  transition at x/c =  0.8987   75
 Side 2  free  transition at x/c =  0.6629   57

   2   rms: 0.2406E-01   max: -.1341E+00   D at   58  2
       a = -1.000      CL =  0.4499
      Cm = -0.1350     CD =  0.00849   =>   CDf =  0.00379    CDp =  0.00469

 Side 1  free  transition at x/c =  0.8961   75
 Side 2  free  transition at x/c =  0.6646   57

   3   rms: 0.1494E-02   max: -.1265E-01   C at   75  1
       a = -1.000      CL =  0.4499
      Cm = -0.1350     CD =  0.00846   =>   CDf =  0.00383    CDp =  0.00463

 Side 1  free  transition at x/c =  0.8964   75
 Side 2  free  transition at x/c =  0.6645   57

   4   rms: 0.1885E-04   max: -.1730E-03   D at   83  2
       a = -1.000      CL =  0.4499
      Cm = -0.1350     CD =  0.00846   =>   CDf =  0.00382    CDp =  0.00464
 plradd ia,ip,cpol            7           0  3.51934172E-02

 Point added to stored polar  1
 Point written to save file  nasasc2-0714_Re600k.base.pol                    
 Dump file unspecified or not available
 Calculating wake trajectory ...
 Calculating source influence matrix ...

 Solving BL system ...

 Side 1  free  transition at x/c =  0.8964   75
 Side 2  free  transition at x/c =  0.6645   57

   1   rms: 0.8490E-01   max: -.2335E+00   T at   57  2
       a = -0.500      CL =  0.5107
      Cm = -0.1355     CD =  0.00831   =>   CDf =  0.00378    CDp =  0.00453

 Side 1  free  transition at x/c =  0.8731   75
 Side 2  free  transition at x/c =  0.6695   57

   2   rms: 0.1766E-01   max: -.2749E+00   D at   75  1
       a = -0.500      CL =  0.5109
      Cm = -0.1355     CD =  0.00828   =>   CDf =  0.00388    CDp =  0.00439

 Side 1  free  transition at x/c =  0.8761   75
 Side 2  free  transition at x/c =  0.6691   57

   3   rms: 0.6210E-02   max: 0.7309E-01   C at   75  1
       a = -0.500      CL =  0.5106
      Cm = -0.1354     CD =  0.00831   =>   CDf =  0.00385    CDp =  0.00446

 Side 1  free  transition at x/c =  0.8745   75
 Side 2  free  transition at x/c =  0.6691   57

   4   rms: 0.3370E-03   max: -.3797E-02   D at   77  1
       a = -0.500      CL =  0.5105
      Cm = -0.1354     CD =  0.00831   =>   CDf =  0.00387    CDp =  0.00444

 Side 1  free  transition at x/c =  0.8744   75
 Side 2  free  transition at x/c =  0.6691   57

   5   rms: 0.3383E-05   max: -.3301E-04   D at    4  1
       a = -0.500      CL =  0.5105
      Cm = -0.1354     CD =  0.00831   =>   CDf =  0.00387    CDp =  0.00444
 plradd ia,ip,cpol            8           0  2.58549154E-02

 Point added to stored polar  1
 Point written to save file  nasasc2-0714_Re600k.base.pol                    
 Dump file unspecified or not available
 Calculating wake trajectory ...
 Calculating source influence matrix ...

 Solving BL system ...

 Side 1  free  transition at x/c =  0.8744   75
 Side 2  free  transition at x/c =  0.6691   57

   1   rms: 0.8863E-01   max: -.3889E+00   D at   76  1
       a =  0.000      CL =  0.5712
      Cm = -0.1356     CD =  0.00815   =>   CDf =  0.00387    CDp =  0.00428

 Side 1  free  transition at x/c =  0.8297   72
 Side 2  free  transition at x/c =  0.6719   57

   2   rms: 0.2108E-01   max: 0.3052E+00   D at   74  1
       a =  0.000      CL =  0.5665
      Cm = -0.1346     CD =  0.00827   =>   CDf =  0.00394    CDp =  0.00433

 Side 1  free  transition at x/c =  0.8363   72
 Side 2  free  transition at x/c =  0.6720   57

   3   rms: 0.2634E-02   max: -.5340E-01   D at   74  1
       a =  0.000      CL =  0.5665
      Cm = -0.1346     CD =  0.00829   =>   CDf =  0.00391    CDp =  0.00437

 Side 1  free  transition at x/c =  0.8351   72
 Side 2  free  transition at x/c =  0.6720   57

   4   rms: 0.7521E-04   max: -.1711E-02   D at   74  1
       a =  0.000      CL =  0.5665
      Cm = -0.1346     CD =  0.00829   =>   CDf =  0.00392    CDp =  0.00437
 plradd ia,ip,cpol            9           0  2.58549154E-02

 Point added to stored polar  1
 Point written to save file  nasasc2-0714_Re600k.base.pol                    
 Dump file unspecified or not available
 Calculating wake trajectory ...
 Calculating source influence matrix ...

 Solving BL system ...

 Side 1  free  transition at x/c =  0.8351   72
 Side 2  free  transition at x/c =  0.6720   57

   1   rms: 0.8573E-01   max: 0.4983E+00   C at   72  1
       a =  0.500      CL =  0.6208
      Cm = -0.1336     CD =  0.00836   =>   CDf =  0.00387    CDp =  0.00449

 Side 1  free  transition at x/c =  0.7159   66
 Side 2  free  transition at x/c =  0.6745   56

   2   rms: 0.2672E-01   max: -.4033E+00   C at   66  1
       a =  0.500      CL =  0.6178
      Cm = -0.1328     CD =  0.00868   =>   CDf =  0.00441    CDp =  0.00426

 Side 1  free  transition at x/c =  0.7392   68
 Side 2  free  transition at x/c =  0.6750   56

   3   rms: 0.9429E-02   max: 0.1873E+00   C at   68  1
       a =  0.500      CL =  0.6184
      Cm = -0.1329     CD =  0.00865   =>   CDf =  0.00427    CDp =  0.00438

 Side 1  free  transition at x/c =  0.7333   67
 Side 2  free  transition at x/c =  0.6750   56

   4   rms: 0.4497E-03   max: 0.7533E-02   C at   67  1
       a =  0.500      CL =  0.6185
      Cm = -0.1330     CD =  0.00865   =>   CDf =  0.00431    CDp =  0.00434

 Side 1  free  transition at x/c =  0.7331   67
 Side 2  free  transition at x/c =  0.6750   56

   5   rms: 0.1846E-05   max: -.1533E-04   C at   67  1
       a =  0.500      CL =  0.6185
      Cm = -0.1330     CD =  0.00865   =>   CDf =  0.00431    CDp =  0.00434
 plradd ia,ip,cpol           10           0  2.19389684E-02

 Point added to stored polar  1
 Point written to save file  nasasc2-0714_Re600k.base.pol                    
 Dump file unspecified or not available
 Calculating wake trajectory ...
 Calculating source influence matrix ...

 Solving BL system ...

 Side 1  free  transition at x/c =  0.7331   67
 Side 2  free  transition at x/c =  0.6750   56

   1   rms: 0.2447E+00   max: 0.4788E+01   C at   67  1   RLX: 0.313
       a =  1.000      CL =  0.6323
      Cm = -0.1320     CD =  0.00893   =>   CDf =  0.00431    CDp =  0.00462

 Side 1  free  transition at x/c =  0.6456   62
 Side 2  free  transition at x/c =  0.6759   56

   2   rms: 0.2046E+00   max: 0.4127E+01   C at   62  1   RLX: 0.363
       a =  1.000      CL =  0.6404
      Cm = -0.1306     CD =  0.00954   =>   CDf =  0.00475    CDp =  0.00480

 Side 1  free  transition at x/c =  0.5730   58
 Side 2  free  transition at x/c =  0.6767   56

   3   rms: 0.1314E+00   max: 0.2703E+01   C at   58  1   RLX: 0.555
       a =  1.000      CL =  0.6476
      Cm = -0.1293     CD =  0.01005   =>   CDf =  0.00505    CDp =  0.00500

 Side 1  free  transition at x/c =  0.5034   55
 Side 2  free  transition at x/c =  0.6775   55

   4   rms: 0.4610E-01   max: 0.9435E+00   C at   55  1
       a =  1.000      CL =  0.6529
      Cm = -0.1284     CD =  0.01042   =>   CDf =  0.00543    CDp =  0.00499

 Side 1  free  transition at x/c =  0.4638   53
 Side 2  free  transition at x/c =  0.6781   55

   5   rms: 0.8929E-02   max: -.1879E+00   C at   53  1
       a =  1.000      CL =  0.6522
      Cm = -0.1283     CD =  0.01048   =>   CDf =  0.00562    CDp =  0.00486

 Side 1  free  transition at x/c =  0.4697   54
 Side 2  free  transition at x/c =  0.6781   55

   6   rms: 0.1573E-02   max: 0.3254E-01   C at   54  1
       a =  1.000      CL =  0.6523
      Cm = -0.1283     CD =  0.01047   =>   CDf =  0.00559    CDp =  0.00489

 Side 1  free  transition at x/c =  0.4690   54
 Side 2  free  transition at x/c =  0.6781   55

   7   rms: 0.1094E-04   max: -.1991E-03   C at   54  1
       a =  1.000      CL =  0.6523
      Cm = -0.1283     CD =  0.01047   =>   CDf =  0.00559    CDp =  0.00488
 plradd ia,ip,cpol           11           0  1.84406005E-02

 Point added to stored polar  1
 Point written to save file  nasasc2-0714_Re600k.base.pol                    
 Dump file unspecified or not available
 Calculating wake trajectory ...
 Calculating source influence matrix ...

 Solving BL system ...

 Side 1  free  transition at x/c =  0.4690   54
 Side 2  free  transition at x/c =  0.6781   55

   1   rms: 0.3481E+00   max: 0.7118E+01   C at   54  1   RLX: 0.211
       a =  1.500      CL =  0.6595
      Cm = -0.1275     CD =  0.01093   =>   CDf =  0.00559    CDp =  0.00533

 Side 1  free  transition at x/c =  0.4155   51
 Side 2  free  transition at x/c =  0.6788   55

   2   rms: 0.2107E+00   max: 0.4133E+01   C at   51  1   RLX: 0.363
       a =  1.500      CL =  0.6710
      Cm = -0.1267     CD =  0.01139   =>   CDf =  0.00586    CDp =  0.00553

 Side 1  free  transition at x/c =  0.3544   47
 Side 2  free  transition at x/c =  0.6796   55

   3   rms: 0.1508E+00   max: 0.3259E+01   C at   47  1   RLX: 0.460
       a =  1.500      CL =  0.6821
      Cm = -0.1265     CD =  0.01163   =>   CDf =  0.00614    CDp =  0.00549

 Side 1  free  transition at x/c =  0.3108   45
 Side 2  free  transition at x/c =  0.6804   55

   4   rms: 0.6476E-01   max: 0.1278E+01   C at   45  1
       a =  1.500      CL =  0.6954
      Cm = -0.1262     CD =  0.01204   =>   CDf =  0.00635    CDp =  0.00569

 Side 1  free  transition at x/c =  0.2674   42
 Side 2  free  transition at x/c =  0.6812   55

   5   rms: 0.9020E-02   max: -.1285E+00   C at   42  1
       a =  1.500      CL =  0.6959
      Cm = -0.1263     CD =  0.01199   =>   CDf =  0.00658    CDp =  0.00541

 Side 1  free  transition at x/c =  0.2701   42
 Side 2  free  transition at x/c =  0.6813   55

   6   rms: 0.4334E-03   max: 0.8850E-02   C at   42  1
       a =  1.500      CL =  0.6959
      Cm = -0.1263     CD =  0.01199   =>   CDf =  0.00656    CDp =  0.00543

 Side 1  free  transition at x/c =  0.2699   42
 Side 2  free  transition at x/c =  0.6813   55

   7   rms: 0.1852E-05   max: 0.3746E-04   C at   42  1
       a =  1.500      CL =  0.6959
      Cm = -0.1263     CD =  0.01199   =>   CDf =  0.00657    CDp =  0.00543
 plradd ia,ip,cpol           12           0  1.53198885E-02

 Point added to stored polar  1
 Point written to save file  nasasc2-0714_Re600k.base.pol                    
 Dump file unspecified or not available
 Calculating wake trajectory ...
 Calculating source influence matrix ...

 Solving BL system ...

 Side 1  free  transition at x/c =  0.2699   42
 Side 2  free  transition at x/c =  0.6813   55

   1   rms: 0.2178E+00   max: 0.4685E+01   C at   42  1   RLX: 0.320
       a =  2.000      CL =  0.7123
      Cm = -0.1261     CD =  0.01229   =>   CDf =  0.00650    CDp =  0.00579

 Side 1  free  transition at x/c =  0.2207   41
 Side 2  free  transition at x/c =  0.6822   54

   2   rms: 0.1035E+00   max: 0.1329E+01   C at   41  1   RLX: 0.617
       a =  2.000      CL =  0.7322
      Cm = -0.1256     CD =  0.01289   =>   CDf =  0.00683    CDp =  0.00606

 Side 1  free  transition at x/c =  0.1806   38
 Side 2  free  transition at x/c =  0.6835   54

   3   rms: 0.3596E-01   max: 0.5890E+00   C at   38  1
       a =  2.000      CL =  0.7468
      Cm = -0.1256     CD =  0.01298   =>   CDf =  0.00703    CDp =  0.00595

 Side 1  free  transition at x/c =  0.1602   37
 Side 2  free  transition at x/c =  0.6842   54

   4   rms: 0.2666E-02   max: -.5238E-01   C at   37  1
       a =  2.000      CL =  0.7465
      Cm = -0.1256     CD =  0.01300   =>   CDf =  0.00714    CDp =  0.00586

 Side 1  free  transition at x/c =  0.1612   37
 Side 2  free  transition at x/c =  0.6842   54

   5   rms: 0.6987E-04   max: 0.1512E-02   C at   37  1
       a =  2.000      CL =  0.7465
      Cm = -0.1256     CD =  0.01300   =>   CDf =  0.00714    CDp =  0.00587
 plradd ia,ip,cpol           13           0  1.53198885E-02

 Point added to stored polar  1
 Point written to save file  nasasc2-0714_Re600k.base.pol                    
 Dump file unspecified or not available
 Calculating wake trajectory ...
 Calculating source influence matrix ...

 Solving BL system ...

 Side 1  free  transition at x/c =  0.1611   37
 Side 2  free  transition at x/c =  0.6842   54

   1   rms: 0.1503E+00   max: 0.2771E+01   C at   37  1   RLX: 0.541
       a =  2.500      CL =  0.7749
      Cm = -0.1253     CD =  0.01348   =>   CDf =  0.00714    CDp =  0.00634

 Side 1  free  transition at x/c =  0.1322   35
 Side 2  free  transition at x/c =  0.6859   55

   2   rms: 0.4612E-01   max: 0.4098E+00   C at   35  1
       a =  2.500      CL =  0.7997
      Cm = -0.1251     CD =  0.01362   =>   CDf =  0.00724    CDp =  0.00638

 Side 1  free  transition at x/c =  0.1132   35
 Side 2  free  transition at x/c =  0.6872   54

   3   rms: 0.4896E-02   max: -.6960E-01   D at   36  1
       a =  2.500      CL =  0.7988
      Cm = -0.1249     CD =  0.01370   =>   CDf =  0.00740    CDp =  0.00630

 Side 1  free  transition at x/c =  0.1119   35
 Side 2  free  transition at x/c =  0.6870   54

   4   rms: 0.4073E-03   max: 0.5478E-02   C at   35  1
       a =  2.500      CL =  0.7987
      Cm = -0.1249     CD =  0.01370   =>   CDf =  0.00742    CDp =  0.00629

 Side 1  free  transition at x/c =  0.1117   35
 Side 2  free  transition at x/c =  0.6870   54

   5   rms: 0.2591E-05   max: 0.2103E-04   C at   35  1
       a =  2.500      CL =  0.7987
      Cm = -0.1249     CD =  0.01370   =>   CDf =  0.00742    CDp =  0.00629
 plradd ia,ip,cpol           14           0  1.53198885E-02

 Point added to stored polar  1
 Point written to save file  nasasc2-0714_Re600k.base.pol                    
 Dump file unspecified or not available
 Calculating wake trajectory ...
 Calculating source influence matrix ...

 Solving BL system ...

 Side 1  free  transition at x/c =  0.1117   35
 Side 2  free  transition at x/c =  0.6870   54

   1   rms: 0.1101E+00   max: -.1011E+01   D at   35  1   RLX: 0.495
       a =  3.000      CL =  0.8235
      Cm = -0.1243     CD =  0.01411   =>   CDf =  0.00742    CDp =  0.00669

 Side 1  free  transition at x/c =  0.0989   34
 Side 2  free  transition at x/c =  0.6881   54

   2   rms: 0.5101E-01   max: -.4848E+00   D at   34  1
       a =  3.000      CL =  0.8507
      Cm = -0.1240     CD =  0.01434   =>   CDf =  0.00747    CDp =  0.00687

 Side 1  free  transition at x/c =  0.0892   33
 Side 2  free  transition at x/c =  0.6893   54

   3   rms: 0.1343E-01   max: -.1704E+00   D at   33  1
       a =  3.000      CL =  0.8510
      Cm = -0.1240     CD =  0.01428   =>   CDf =  0.00751    CDp =  0.00677

 Side 1  free  transition at x/c =  0.0886   33
 Side 2  free  transition at x/c =  0.6892   54

   4   rms: 0.8707E-03   max: 0.1251E-01   C at   33  1
       a =  3.000      CL =  0.8508
      Cm = -0.1240     CD =  0.01431   =>   CDf =  0.00753    CDp =  0.00678

 Side 1  free  transition at x/c =  0.0884   33
 Side 2  free  transition at x/c =  0.6892   54

   5   rms: 0.5097E-05   max: -.6613E-04   D at   34  1
       a =  3.000      CL =  0.8508
      Cm = -0.1240     CD =  0.01431   =>   CDf =  0.00753    CDp =  0.00677
 plradd ia,ip,cpol           15           0  1.25554018E-02

 Point added to stored polar  1
 Point written to save file  nasasc2-0714_Re600k.base.pol                    
 Dump file unspecified or not available
 Calculating wake trajectory ...
 Calculating source influence matrix ...

 Solving BL system ...

 Side 1  free  transition at x/c =  0.0884   33
 Side 2  free  transition at x/c =  0.6892   54

   1   rms: 0.8499E-01   max: -.5006E+00   D at   33  1   RLX: 0.999
       a =  3.500      CL =  0.9031
      Cm = -0.1231     CD =  0.01491   =>   CDf =  0.00742    CDp =  0.00749

 Side 1  free  transition at x/c =  0.0777   33
 Side 2  free  transition at x/c =  0.6919   53

   2   rms: 0.2878E-01   max: -.3304E+00   D at   33  1
       a =  3.500      CL =  0.9037
      Cm = -0.1232     CD =  0.01480   =>   CDf =  0.00755    CDp =  0.00725

 Side 1  free  transition at x/c =  0.0779   33
 Side 2  free  transition at x/c =  0.6918   53

   3   rms: 0.3648E-02   max: 0.4744E-01   C at   33  1
       a =  3.500      CL =  0.9030
      Cm = -0.1231     CD =  0.01489   =>   CDf =  0.00758    CDp =  0.00731

 Side 1  free  transition at x/c =  0.0773   33
 Side 2  free  transition at x/c =  0.6917   53

   4   rms: 0.6128E-04   max: -.1030E-02   D at   34  1
       a =  3.500      CL =  0.9030
      Cm = -0.1231     CD =  0.01489   =>   CDf =  0.00758    CDp =  0.00731
 plradd ia,ip,cpol           16           0  1.25554018E-02

 Point added to stored polar  1
 Point written to save file  nasasc2-0714_Re600k.base.pol                    
 Dump file unspecified or not available
 Calculating wake trajectory ...
 Calculating source influence matrix ...

 Solving BL system ...

 Side 1  free  transition at x/c =  0.0773   33
 Side 2  free  transition at x/c =  0.6917   53

   1   rms: 0.7874E-01   max: -.3214E+00   D at   33  1
       a =  4.000      CL =  0.9553
      Cm = -0.1222     CD =  0.01547   =>   CDf =  0.00745    CDp =  0.00803

 Side 1  free  transition at x/c =  0.0701   33
 Side 2  free  transition at x/c =  0.6950   52

   2   rms: 0.1770E-01   max: -.1731E+00   D at   34  1
       a =  4.000      CL =  0.9549
      Cm = -0.1221     CD =  0.01550   =>   CDf =  0.00760    CDp =  0.00790

 Side 1  free  transition at x/c =  0.0699   33
 Side 2  free  transition at x/c =  0.6950   52

   3   rms: 0.1065E-02   max: 0.1211E-01   D at   33  1
       a =  4.000      CL =  0.9546
      Cm = -0.1221     CD =  0.01554   =>   CDf =  0.00761    CDp =  0.00792

 Side 1  free  transition at x/c =  0.0698   33
 Side 2  free  transition at x/c =  0.6950   52

   4   rms: 0.5011E-05   max: 0.4534E-04   T at   33  1
       a =  4.000      CL =  0.9546
      Cm = -0.1221     CD =  0.01554   =>   CDf =  0.00761    CDp =  0.00792
 plradd ia,ip,cpol           17           0  1.25554018E-02

 Point added to stored polar  1
 Point written to save file  nasasc2-0714_Re600k.base.pol                    
 Dump file unspecified or not available
 Calculating wake trajectory ...
 Calculating source influence matrix ...

 Solving BL system ...

 Side 1  free  transition at x/c =  0.0698   33
 Side 2  free  transition at x/c =  0.6950   52

   1   rms: 0.7594E-01   max: 0.3124E+00   T at   33  1
       a =  4.500      CL =  1.0075
      Cm = -0.1213     CD =  0.01606   =>   CDf =  0.00761    CDp =  0.00845

 Side 1  free  transition at x/c =  0.0643   33
 Side 2  free  transition at x/c =  0.6982   52

   2   rms: 0.7108E-02   max: -.6537E-01   D at   33  1
       a =  4.500      CL =  1.0062
      Cm = -0.1212     CD =  0.01620   =>   CDf =  0.00764    CDp =  0.00856

 Side 1  free  transition at x/c =  0.0640   33
 Side 2  free  transition at x/c =  0.6986   52

   3   rms: 0.2620E-03   max: 0.1840E-02   T at   33  1
       a =  4.500      CL =  1.0062
      Cm = -0.1212     CD =  0.01621   =>   CDf =  0.00765    CDp =  0.00856

 Side 1  free  transition at x/c =  0.0639   33
 Side 2  free  transition at x/c =  0.6986   52

   4   rms: 0.2475E-05   max: 0.1000E-04   D at   32  1
       a =  4.500      CL =  1.0062
      Cm = -0.1212     CD =  0.01621   =>   CDf =  0.00765    CDp =  0.00856
 plradd ia,ip,cpol           18           0  1.01246573E-02

 Point added to stored polar  1
 Point written to save file  nasasc2-0714_Re600k.base.pol                    
 Dump file unspecified or not available
 Calculating wake trajectory ...
 Calculating source influence matrix ...

 Solving BL system ...

 Side 1  free  transition at x/c =  0.0639   33
 Side 2  free  transition at x/c =  0.6986   52

   1   rms: 0.8393E-01   max: 0.3006E+00   T at   33  1
       a =  5.000      CL =  1.0546
      Cm = -0.1197     CD =  0.01729   =>   CDf =  0.00748    CDp =  0.00981

 Side 1  free  transition at x/c =  0.0594   33
 Side 2  free  transition at x/c =  0.7014   51

   2   rms: 0.4502E-01   max: -.3874E+00   D at   33  1
       a =  5.000      CL =  1.0575
      Cm = -0.1202     CD =  0.01683   =>   CDf =  0.00759    CDp =  0.00924

 Side 1  free  transition at x/c =  0.0598   33
 Side 2  free  transition at x/c =  0.7017   51

   3   rms: 0.3385E-02   max: 0.4500E-01   D at   33  1
       a =  5.000      CL =  1.0574
      Cm = -0.1202     CD =  0.01693   =>   CDf =  0.00764    CDp =  0.00929

 Side 1  free  transition at x/c =  0.0595   33
 Side 2  free  transition at x/c =  0.7016   51

   4   rms: 0.2124E-04   max: -.2285E-03   D at   34  1
       a =  5.000      CL =  1.0574
      Cm = -0.1202     CD =  0.01693   =>   CDf =  0.00764    CDp =  0.00929
 plradd ia,ip,cpol           19           0  1.01246573E-02

 Point added to stored polar  1
 Point written to save file  nasasc2-0714_Re600k.base.pol                    
 Dump file unspecified or not available
 Calculating wake trajectory ...
 Calculating source influence matrix ...

 Solving BL system ...

 Side 1  free  transition at x/c =  0.0595   33
 Side 2  free  transition at x/c =  0.7016   51

   1   rms: 0.7643E-01   max: 0.3289E+00   T at   33  1
       a =  5.500      CL =  1.1093
      Cm = -0.1194     CD =  0.01758   =>   CDf =  0.00764    CDp =  0.00994

 Side 1  free  transition at x/c =  0.0549   33
 Side 2  free  transition at x/c =  0.7048   52

   2   rms: 0.1304E-01   max: 0.1458E+00   D at   52  2
       a =  5.500      CL =  1.1063
      Cm = -0.1188     CD =  0.01776   =>   CDf =  0.00767    CDp =  0.01010

 Side 1  free  transition at x/c =  0.0549   33
 Side 2  free  transition at x/c =  0.7042   52

   3   rms: 0.1417E-03   max: 0.1393E-02   T at   52  2
       a =  5.500      CL =  1.1062
      Cm = -0.1188     CD =  0.01776   =>   CDf =  0.00767    CDp =  0.01010

 Side 1  free  transition at x/c =  0.0549   33
 Side 2  free  transition at x/c =  0.7042   52

   4   rms: 0.1195E-05   max: -.7779E-05   T at   52  2
       a =  5.500      CL =  1.1062
      Cm = -0.1188     CD =  0.01776   =>   CDf =  0.00767    CDp =  0.01010
 plradd ia,ip,cpol           20           0  1.01246573E-02

 Point added to stored polar  1
 Point written to save file  nasasc2-0714_Re600k.base.pol                    
 Dump file unspecified or not available
 Calculating wake trajectory ...
 Calculating source influence matrix ...

 Solving BL system ...

 Side 1  free  transition at x/c =  0.0549   33
 Side 2  free  transition at x/c =  0.7042   52

   1   rms: 0.9212E-01   max: 0.3556E+00   T at   33  1
       a =  6.000      CL =  1.1461
      Cm = -0.1158     CD =  0.01948   =>   CDf =  0.00746    CDp =  0.01202

 Side 1  free  transition at x/c =  0.0512   33
 Side 2  free  transition at x/c =  0.7069   51

   2   rms: 0.5080E-01   max: -.4443E+00   D at   33  1
       a =  6.000      CL =  1.1509
      Cm = -0.1166     CD =  0.01856   =>   CDf =  0.00752    CDp =  0.01104

 Side 1  free  transition at x/c =  0.0519   33
 Side 2  free  transition at x/c =  0.7067   51

   3   rms: 0.5384E-02   max: 0.4766E-01   D at   33  1
       a =  6.000      CL =  1.1541
      Cm = -0.1171     CD =  0.01854   =>   CDf =  0.00757    CDp =  0.01097

 Side 1  free  transition at x/c =  0.0517   33
 Side 2  free  transition at x/c =  0.7067   51

   4   rms: 0.4202E-04   max: -.2726E-03   D at   34  1
       a =  6.000      CL =  1.1540
      Cm = -0.1171     CD =  0.01854   =>   CDf =  0.00757    CDp =  0.01097
 plradd ia,ip,cpol           21           0  1.01246573E-02

 Point added to stored polar  1
 Point written to save file  nasasc2-0714_Re600k.base.pol                    
 Dump file unspecified or not available
 Calculating wake trajectory ...
 Calculating source influence matrix ...

 Solving BL system ...

 Side 1  free  transition at x/c =  0.0517   33
 Side 2  free  transition at x/c =  0.7067   51

   1   rms: 0.7258E-01   max: 0.2919E+00   T at   33  1
       a =  6.500      CL =  1.2022
      Cm = -0.1155     CD =  0.01927   =>   CDf =  0.00735    CDp =  0.01191

 Side 1  free  transition at x/c =  0.0485   34
 Side 2  free  transition at x/c =  0.7097   50

   2   rms: 0.1328E-01   max: -.1453E+00   D at   34  1
       a =  6.500      CL =  1.2008
      Cm = -0.1153     CD =  0.01932   =>   CDf =  0.00752    CDp =  0.01180

 Side 1  free  transition at x/c =  0.0487   34
 Side 2  free  transition at x/c =  0.7095   50

   3   rms: 0.7947E-03   max: -.6278E-02   D at    4  1
       a =  6.500      CL =  1.2009
      Cm = -0.1153     CD =  0.01934   =>   CDf =  0.00753    CDp =  0.01181

 Side 1  free  transition at x/c =  0.0486   34
 Side 2  free  transition at x/c =  0.7095   50

   4   rms: 0.5464E-05   max: 0.2673E-04   D at   73  2
       a =  6.500      CL =  1.2009
      Cm = -0.1153     CD =  0.01934   =>   CDf =  0.00753    CDp =  0.01181
 plradd ia,ip,cpol           22           0  8.00882652E-03

 Point added to stored polar  1
 Point written to save file  nasasc2-0714_Re600k.base.pol                    
 Dump file unspecified or not available
 Calculating wake trajectory ...
 Calculating source influence matrix ...

 Solving BL system ...

 Side 1  free  transition at x/c =  0.0486   34
 Side 2  free  transition at x/c =  0.7095   50

   1   rms: 0.7438E-01   max: 0.3145E+00   T at   34  1
       a =  7.000      CL =  1.2457
      Cm = -0.1132     CD =  0.02038   =>   CDf =  0.00753    CDp =  0.01285

 Side 1  free  transition at x/c =  0.0462   33
 Side 2  free  transition at x/c =  0.7124   50

   2   rms: 0.2087E-01   max: -.1297E+00   D at   34  1
       a =  7.000      CL =  1.2437
      Cm = -0.1128     CD =  0.02049   =>   CDf =  0.00749    CDp =  0.01300

 Side 1  free  transition at x/c =  0.0459   33
 Side 2  free  transition at x/c =  0.7127   50

   3   rms: 0.8225E-03   max: 0.8761E-02   D at   33  1
       a =  7.000      CL =  1.2440
      Cm = -0.1129     CD =  0.02054   =>   CDf =  0.00749    CDp =  0.01305

 Side 1  free  transition at x/c =  0.0458   33
 Side 2  free  transition at x/c =  0.7127   50

   4   rms: 0.5866E-05   max: 0.3597E-04   D at   73  2
       a =  7.000      CL =  1.2440
      Cm = -0.1129     CD =  0.02054   =>   CDf =  0.00749    CDp =  0.01305
 plradd ia,ip,cpol           23           0  8.00882652E-03

 Point added to stored polar  1
 Point written to save file  nasasc2-0714_Re600k.base.pol                    
 Dump file unspecified or not available
 Calculating wake trajectory ...
 Calculating source influence matrix ...

 Solving BL system ...

 Side 1  free  transition at x/c =  0.0458   33
 Side 2  free  transition at x/c =  0.7127   50

   1   rms: 0.7159E-01   max: 0.3077E+00   T at   33  1
       a =  7.500      CL =  1.2926
      Cm = -0.1114     CD =  0.02115   =>   CDf =  0.00724    CDp =  0.01392

 Side 1  free  transition at x/c =  0.0434   34
 Side 2  free  transition at x/c =  0.7159   49

   2   rms: 0.3830E-02   max: -.2867E-01   D at   50  2
       a =  7.500      CL =  1.2907
      Cm = -0.1111     CD =  0.02129   =>   CDf =  0.00741    CDp =  0.01388

 Side 1  free  transition at x/c =  0.0434   34
 Side 2  free  transition at x/c =  0.7160   49

   3   rms: 0.4601E-03   max: -.5203E-02   D at    4  1
       a =  7.500      CL =  1.2907
      Cm = -0.1111     CD =  0.02129   =>   CDf =  0.00741    CDp =  0.01388

 Side 1  free  transition at x/c =  0.0434   34
 Side 2  free  transition at x/c =  0.7160   49

   4   rms: 0.7681E-06   max: -.4214E-05   D at   49  2
       a =  7.500      CL =  1.2907
      Cm = -0.1111     CD =  0.02129   =>   CDf =  0.00741    CDp =  0.01388
 plradd ia,ip,cpol           24           0  8.00882652E-03

 Point added to stored polar  1
 Point written to save file  nasasc2-0714_Re600k.base.pol                    
 Dump file unspecified or not available
 Calculating wake trajectory ...
 Calculating source influence matrix ...

 Solving BL system ...

 Side 1  free  transition at x/c =  0.0434   34
 Side 2  free  transition at x/c =  0.7160   49

   1   rms: 0.7073E-01   max: 0.2460E+00   T at   34  1
       a =  8.000      CL =  1.3362
      Cm = -0.1092     CD =  0.02217   =>   CDf =  0.00741    CDp =  0.01475

 Side 1  free  transition at x/c =  0.0413   34
 Side 2  free  transition at x/c =  0.7192   49

   2   rms: 0.1202E-01   max: -.1144E+00   D at   34  1
       a =  8.000      CL =  1.3339
      Cm = -0.1088     CD =  0.02225   =>   CDf =  0.00740    CDp =  0.01485

 Side 1  free  transition at x/c =  0.0414   34
 Side 2  free  transition at x/c =  0.7192   49

   3   rms: 0.6217E-03   max: 0.4810E-02   D at   34  1
       a =  8.000      CL =  1.3342
      Cm = -0.1089     CD =  0.02227   =>   CDf =  0.00741    CDp =  0.01486

 Side 1  free  transition at x/c =  0.0414   34
 Side 2  free  transition at x/c =  0.7192   49

   4   rms: 0.1088E-04   max: 0.5555E-04   D at   72  2
       a =  8.000      CL =  1.3342
      Cm = -0.1089     CD =  0.02227   =>   CDf =  0.00741    CDp =  0.01486
 plradd ia,ip,cpol           25           0  8.00882652E-03

 Point added to stored polar  1
 Point written to save file  nasasc2-0714_Re600k.base.pol                    
 Dump file unspecified or not available
 Calculating wake trajectory ...
 Calculating source influence matrix ...

 Solving BL system ...

 Side 1  free  transition at x/c =  0.0414   34
 Side 2  free  transition at x/c =  0.7192   49

   1   rms: 0.7266E-01   max: 0.2663E+00   T at   34  1
       a =  8.500      CL =  1.3738
      Cm = -0.1061     CD =  0.02367   =>   CDf =  0.00713    CDp =  0.01655

 Side 1  free  transition at x/c =  0.0399   34
 Side 2  free  transition at x/c =  0.7228   49

   2   rms: 0.2176E-01   max: 0.1853E+00   D at   49  2
       a =  8.500      CL =  1.3710
      Cm = -0.1055     CD =  0.02366   =>   CDf =  0.00733    CDp =  0.01634

 Side 1  free  transition at x/c =  0.0397   34
 Side 2  free  transition at x/c =  0.7221   49

   3   rms: 0.1152E-02   max: 0.6390E-02   D at   34  1
       a =  8.500      CL =  1.3718
      Cm = -0.1057     CD =  0.02371   =>   CDf =  0.00732    CDp =  0.01639

 Side 1  free  transition at x/c =  0.0397   34
 Side 2  free  transition at x/c =  0.7221   49

   4   rms: 0.2461E-04   max: 0.1454E-03   D at   70  2
       a =  8.500      CL =  1.3718
      Cm = -0.1057     CD =  0.02371   =>   CDf =  0.00732    CDp =  0.01639
 plradd ia,ip,cpol           26           0  8.00882652E-03

 Point added to stored polar  1
 Point written to save file  nasasc2-0714_Re600k.base.pol                    
 Dump file unspecified or not available
 Calculating wake trajectory ...
 Calculating source influence matrix ...

 Solving BL system ...

 Side 1  free  transition at x/c =  0.0397   34
 Side 2  free  transition at x/c =  0.7221   49

   1   rms: 0.6711E-01   max: 0.2314E+00   T at   34  1
       a =  9.000      CL =  1.4123
      Cm = -0.1028     CD =  0.02463   =>   CDf =  0.00732    CDp =  0.01731

 Side 1  free  transition at x/c =  0.0380   34
 Side 2  free  transition at x/c =  0.7251   49

   2   rms: 0.5549E-02   max: -.2777E-01   D at   34  1
       a =  9.000      CL =  1.4089
      Cm = -0.1022     CD =  0.02470   =>   CDf =  0.00716    CDp =  0.01754

 Side 1  free  transition at x/c =  0.0381   34
 Side 2  free  transition at x/c =  0.7249   49

   3   rms: 0.1159E-03   max: 0.5118E-03   D at   74  2
       a =  9.000      CL =  1.4088
      Cm = -0.1022     CD =  0.02470   =>   CDf =  0.00717    CDp =  0.01753

 Side 1  free  transition at x/c =  0.0381   34
 Side 2  free  transition at x/c =  0.7249   49

   4   rms: 0.1223E-05   max: -.8437E-05   D at   53  2
       a =  9.000      CL =  1.4088
      Cm = -0.1022     CD =  0.02470   =>   CDf =  0.00717    CDp =  0.01753
 plradd ia,ip,cpol           27           0  8.00882652E-03

 Point added to stored polar  1
 Point written to save file  nasasc2-0714_Re600k.base.pol                    
 Dump file unspecified or not available
 Calculating wake trajectory ...
 Calculating source influence matrix ...

 Solving BL system ...

 Side 1  free  transition at x/c =  0.0381   34
 Side 2  free  transition at x/c =  0.7249   49

   1   rms: 0.6296E-01   max: 0.1965E+00   T at   34  1
       a =  9.500      CL =  1.4414
      Cm = -0.0979     CD =  0.02573   =>   CDf =  0.00687    CDp =  0.01886

 Side 1  free  transition at x/c =  0.0365   35
 Side 2  free  transition at x/c =  0.7278   48

   2   rms: 0.9470E-02   max: -.7702E-01   D at   35  1
       a =  9.500      CL =  1.4397
      Cm = -0.0977     CD =  0.02572   =>   CDf =  0.00706    CDp =  0.01865

 Side 1  free  transition at x/c =  0.0367   35
 Side 2  free  transition at x/c =  0.7280   48

   3   rms: 0.7156E-03   max: -.4870E-02   D at    4  1
       a =  9.500      CL =  1.4403
      Cm = -0.0978     CD =  0.02572   =>   CDf =  0.00707    CDp =  0.01865

 Side 1  free  transition at x/c =  0.0367   35
 Side 2  free  transition at x/c =  0.7280   48

   4   rms: 0.3566E-05   max: 0.3475E-04   D at   49  2
       a =  9.500      CL =  1.4403
      Cm = -0.0978     CD =  0.02573   =>   CDf =  0.00707    CDp =  0.01865
 plradd ia,ip,cpol           28           0  6.20445283E-03

 Point added to stored polar  1
 Point written to save file  nasasc2-0714_Re600k.base.pol                    
 Dump file unspecified or not available
 Calculating wake trajectory ...
 Calculating source influence matrix ...

 Solving BL system ...

 Side 1  free  transition at x/c =  0.0367   35
 Side 2  free  transition at x/c =  0.7280   48

   1   rms: 0.6421E-01   max: 0.2064E+00   T at   35  1
       a = 10.000      CL =  1.4746
      Cm = -0.0942     CD =  0.02686   =>   CDf =  0.00708    CDp =  0.01979

 Side 1  free  transition at x/c =  0.0355   35
 Side 2  free  transition at x/c =  0.7313   48

   2   rms: 0.4338E-02   max: -.2954E-01   D at   49  2
       a = 10.000      CL =  1.4720
      Cm = -0.0939     CD =  0.02719   =>   CDf =  0.00702    CDp =  0.02017

 Side 1  free  transition at x/c =  0.0354   35
 Side 2  free  transition at x/c =  0.7314   48

   3   rms: 0.1650E-03   max: 0.8321E-03   D at   93  1
       a = 10.000      CL =  1.4719
      Cm = -0.0939     CD =  0.02720   =>   CDf =  0.00702    CDp =  0.02018

 Side 1  free  transition at x/c =  0.0354   35
 Side 2  free  transition at x/c =  0.7314   48

   4   rms: 0.2930E-05   max: -.1331E-04   T at   48  2
       a = 10.000      CL =  1.4719
      Cm = -0.0939     CD =  0.02720   =>   CDf =  0.00702    CDp =  0.02018
 plradd ia,ip,cpol           29           0  6.20445283E-03

 Point added to stored polar  1
 Point written to save file  nasasc2-0714_Re600k.base.pol                    
 Dump file unspecified or not available

.OPERva   c>  
 Solving BL system ...

 Side 1  free  transition at x/c =  0.0354   35
 Side 2  free  transition at x/c =  0.7314   48

   1   rms: 0.1134E-05   max: 0.3499E-05   D at   89  1
       a = 10.000      CL =  1.4719
      Cm = -0.0939     CD =  0.02720   =>   CDf =  0.00702    CDp =  0.02018
 plradd ia,ip,cpol           30         182  6.20445283E-03

 Point added to stored polar  1
 Point written to save file  nasasc2-0714_Re600k.base.pol                    
 Dump file unspecified or not available
 Calculating wake trajectory ...
 Calculating source influence matrix ...

 Solving BL system ...

 Side 1  free  transition at x/c =  0.0354   35
 Side 2  free  transition at x/c =  0.7314   48

   1   rms: 0.3506E-01   max: 0.1091E+00   T at   35  1
       a = 10.250      CL =  1.4856
      Cm = -0.0917     CD =  0.02834   =>   CDf =  0.00703    CDp =  0.02131

 Side 1  free  transition at x/c =  0.0347   35
 Side 2  free  transition at x/c =  0.7331   48

   2   rms: 0.9695E-02   max: 0.3556E-01   T at   35  1
       a = 10.250      CL =  1.4822
      Cm = -0.0913     CD =  0.02896   =>   CDf =  0.00697    CDp =  0.02199

 Side 1  free  transition at x/c =  0.0346   34
 Side 2  free  transition at x/c =  0.7331   48

   3   rms: 0.5924E-02   max: -.6111E-01   D at   34  1
       a = 10.250      CL =  1.4836
      Cm = -0.0914     CD =  0.02858   =>   CDf =  0.00696    CDp =  0.02162

 Side 1  free  transition at x/c =  0.0346   34
 Side 2  free  transition at x/c =  0.7332   48

   4   rms: 0.2854E-03   max: -.1135E-02   D at   93  1
       a = 10.250      CL =  1.4839
      Cm = -0.0915     CD =  0.02857   =>   CDf =  0.00697    CDp =  0.02160

 Side 1  free  transition at x/c =  0.0346   34
 Side 2  free  transition at x/c =  0.7332   48

   5   rms: 0.3491E-05   max: 0.2523E-04   D at   49  2
       a = 10.250      CL =  1.4839
      Cm = -0.0915     CD =  0.02857   =>   CDf =  0.00697    CDp =  0.02160
 plradd ia,ip,cpol           31           0  6.20445283E-03

 Point added to stored polar  1
 Point written to save file  nasasc2-0714_Re600k.base.pol                    
 Dump file unspecified or not available
 Calculating wake trajectory ...
 Calculating source influence matrix ...

 Solving BL system ...

 Side 1  free  transition at x/c =  0.0346   34
 Side 2  free  transition at x/c =  0.7332   48

   1   rms: 0.3176E-01   max: 0.1045E+00   T at   34  1
       a = 10.500      CL =  1.5009
      Cm = -0.0898     CD =  0.02924   =>   CDf =  0.00662    CDp =  0.02261

 Side 1  free  transition at x/c =  0.0343   35
 Side 2  free  transition at x/c =  0.7349   47

   2   rms: 0.1845E-02   max: -.1948E-01   D at    3  1
       a = 10.500      CL =  1.5001
      Cm = -0.0897     CD =  0.02928   =>   CDf =  0.00688    CDp =  0.02240

 Side 1  free  transition at x/c =  0.0343   35
 Side 2  free  transition at x/c =  0.7350   47

   3   rms: 0.5089E-03   max: -.5946E-02   D at    4  1
       a = 10.500      CL =  1.5001
      Cm = -0.0897     CD =  0.02928   =>   CDf =  0.00688    CDp =  0.02240

 Side 1  free  transition at x/c =  0.0343   35
 Side 2  free  transition at x/c =  0.7350   47

   4   rms: 0.8812E-06   max: -.3122E-05   D at   35  1
       a = 10.500      CL =  1.5001
      Cm = -0.0897     CD =  0.02928   =>   CDf =  0.00688    CDp =  0.02240
 plradd ia,ip,cpol           32           0  6.20445283E-03

 Point added to stored polar  1
 Point written to save file  nasasc2-0714_Re600k.base.pol                    
 Dump file unspecified or not available
 Calculating wake trajectory ...
 Calculating source influence matrix ...

 Solving BL system ...

 Side 1  free  transition at x/c =  0.0343   35
 Side 2  free  transition at x/c =  0.7350   47

   1   rms: 0.3175E-01   max: 0.9187E-01   T at   35  1
       a = 10.750      CL =  1.5162
      Cm = -0.0879     CD =  0.03006   =>   CDf =  0.00688    CDp =  0.02318

 Side 1  free  transition at x/c =  0.0338   35
 Side 2  free  transition at x/c =  0.7366   47

   2   rms: 0.1058E-02   max: -.9646E-02   D at   48  2
       a = 10.750      CL =  1.5153
      Cm = -0.0877     CD =  0.03009   =>   CDf =  0.00679    CDp =  0.02330

 Side 1  free  transition at x/c =  0.0338   35
 Side 2  free  transition at x/c =  0.7366   47

   3   rms: 0.8295E-05   max: -.7468E-04   D at   48  2
       a = 10.750      CL =  1.5153
      Cm = -0.0877     CD =  0.03009   =>   CDf =  0.00679    CDp =  0.02330
 plradd ia,ip,cpol           33           0  6.20445283E-03

 Point added to stored polar  1
 Point written to save file  nasasc2-0714_Re600k.base.pol                    
 Dump file unspecified or not available
 Calculating wake trajectory ...
 Calculating source influence matrix ...

 Solving BL system ...

 Side 1  free  transition at x/c =  0.0338   35
 Side 2  free  transition at x/c =  0.7366   47

   1   rms: 0.3176E-01   max: 0.8428E-01   T at   35  1
       a = 11.000      CL =  1.5306
      Cm = -0.0859     CD =  0.03097   =>   CDf =  0.00679    CDp =  0.02417

 Side 1  free  transition at x/c =  0.0334   35
 Side 2  free  transition at x/c =  0.7385   48

   2   rms: 0.3023E-02   max: 0.4877E-01   D at   48  2
       a = 11.000      CL =  1.5296
      Cm = -0.0858     CD =  0.03096   =>   CDf =  0.00670    CDp =  0.02426

 Side 1  free  transition at x/c =  0.0334   35
 Side 2  free  transition at x/c =  0.7383   48

   3   rms: 0.1570E-03   max: 0.1776E-02   D at   48  2
       a = 11.000      CL =  1.5296
      Cm = -0.0858     CD =  0.03096   =>   CDf =  0.00670    CDp =  0.02426

 Side 1  free  transition at x/c =  0.0334   35
 Side 2  free  transition at x/c =  0.7383   48

   4   rms: 0.1181E-05   max: 0.1152E-04   T at   48  2
       a = 11.000      CL =  1.5296
      Cm = -0.0858     CD =  0.03096   =>   CDf =  0.00670    CDp =  0.02426
 plradd ia,ip,cpol           34           0  6.20445283E-03

 Point added to stored polar  1
 Point written to save file  nasasc2-0714_Re600k.base.pol                    
 Dump file unspecified or not available
 Calculating wake trajectory ...
 Calculating source influence matrix ...

 Solving BL system ...

 Side 1  free  transition at x/c =  0.0334   35
 Side 2  free  transition at x/c =  0.7383   48

   1   rms: 0.3162E-01   max: -.9412E-01   T at   48  2
       a = 11.250      CL =  1.5440
      Cm = -0.0838     CD =  0.03185   =>   CDf =  0.00670    CDp =  0.02515

 Side 1  free  transition at x/c =  0.0329   35
 Side 2  free  transition at x/c =  0.7403   48

   2   rms: 0.1720E-02   max: 0.1505E-01   T at   48  2
       a = 11.250      CL =  1.5427
      Cm = -0.0836     CD =  0.03187   =>   CDf =  0.00660    CDp =  0.02527

 Side 1  free  transition at x/c =  0.0329   35
 Side 2  free  transition at x/c =  0.7401   48

   3   rms: 0.4312E-04   max: -.1943E-03   D at   49  2
       a = 11.250      CL =  1.5427
      Cm = -0.0836     CD =  0.03186   =>   CDf =  0.00660    CDp =  0.02527
 plradd ia,ip,cpol           35           0  6.20445283E-03

 Point added to stored polar  1
 Point written to save file  nasasc2-0714_Re600k.base.pol                    
 Dump file unspecified or not available
 Calculating wake trajectory ...
 Calculating source influence matrix ...

 Solving BL system ...

 Side 1  free  transition at x/c =  0.0329   35
 Side 2  free  transition at x/c =  0.7401   48

   1   rms: 0.3083E-01   max: -.8084E-01   T at   48  2
       a = 11.500      CL =  1.5558
      Cm = -0.0816     CD =  0.03286   =>   CDf =  0.00624    CDp =  0.02662

 Side 1  free  transition at x/c =  0.0324   36
 Side 2  free  transition at x/c =  0.7417   47
 idif Ue xi dudx           1  8.07672963E-02  6.00588322E-03   13.448030    
 Uenew xinew           2  3.02991568E-04  2.25305557E-05

   2   rms: 0.4945E-01   max: -.8755E+00   T at    2  1   RLX: 0.571
       a = 11.500      CL =  1.5554
      Cm = -0.0815     CD =  0.03285   =>   CDf =  0.00685    CDp =  0.02600

 Side 1  free  transition at x/c =  0.0325   35
 Side 2  free  transition at x/c =  0.7417   48

   3   rms: 0.1357E-02   max: -.1645E-01   D at    3  1
       a = 11.500      CL =  1.5550
      Cm = -0.0815     CD =  0.03284   =>   CDf =  0.00650    CDp =  0.02634

 Side 1  free  transition at x/c =  0.0325   35
 Side 2  free  transition at x/c =  0.7417   48

   4   rms: 0.3832E-03   max: 0.4507E-02   D at    4  2
       a = 11.500      CL =  1.5550
      Cm = -0.0815     CD =  0.03284   =>   CDf =  0.00650    CDp =  0.02634

 Side 1  free  transition at x/c =  0.0325   35
 Side 2  free  transition at x/c =  0.7417   48

   5   rms: 0.3135E-05   max: -.3602E-04   D at    4  2
       a = 11.500      CL =  1.5550
      Cm = -0.0815     CD =  0.03284   =>   CDf =  0.00650    CDp =  0.02634
 plradd ia,ip,cpol           36           0  6.20445283E-03

 Point added to stored polar  1
 Point written to save file  nasasc2-0714_Re600k.base.pol                    
 Dump file unspecified or not available
 Calculating wake trajectory ...
 Calculating source influence matrix ...

 Solving BL system ...

 Side 1  free  transition at x/c =  0.0325   35
 Side 2  free  transition at x/c =  0.7417   48

   1   rms: 0.3292E-01   max: -.2443E+00   D at    3  2
       a = 11.750      CL =  1.5676
      Cm = -0.0794     CD =  0.03386   =>   CDf =  0.00614    CDp =  0.02772

 Side 1  free  transition at x/c =  0.0320   36
 Side 2  free  transition at x/c =  0.7433   47

   2   rms: 0.3260E-02   max: -.2762E-01   D at    3  1
       a = 11.750      CL =  1.5665
      Cm = -0.0793     CD =  0.03385   =>   CDf =  0.00641    CDp =  0.02743

 Side 1  free  transition at x/c =  0.0320   36
 Side 2  free  transition at x/c =  0.7434   47

   3   rms: 0.5420E-03   max: -.6143E-02   D at    4  1
       a = 11.750      CL =  1.5665
      Cm = -0.0793     CD =  0.03385   =>   CDf =  0.00641    CDp =  0.02743

 Side 1  free  transition at x/c =  0.0320   36
 Side 2  free  transition at x/c =  0.7434   47

   4   rms: 0.1129E-05   max: -.7637E-05   T at   36  1
       a = 11.750      CL =  1.5665
      Cm = -0.0793     CD =  0.03385   =>   CDf =  0.00641    CDp =  0.02743
 plradd ia,ip,cpol           37           0  6.20445283E-03

 Point added to stored polar  1
 Point written to save file  nasasc2-0714_Re600k.base.pol                    
 Dump file unspecified or not available
 Calculating wake trajectory ...
 Calculating source influence matrix ...

 Solving BL system ...

 Side 1  free  transition at x/c =  0.0320   36
 Side 2  free  transition at x/c =  0.7434   47

   1   rms: 0.3002E-01   max: 0.7167E-01   T at   36  1
       a = 12.000      CL =  1.5783
      Cm = -0.0772     CD =  0.03491   =>   CDf =  0.00642    CDp =  0.02849

 Side 1  free  transition at x/c =  0.0316   36
 Side 2  free  transition at x/c =  0.7450   47

   2   rms: 0.1626E-02   max: -.1037E-01   D at   47  2
       a = 12.000      CL =  1.5775
      Cm = -0.0771     CD =  0.03489   =>   CDf =  0.00634    CDp =  0.02855

 Side 1  free  transition at x/c =  0.0316   36
 Side 2  free  transition at x/c =  0.7451   47

   3   rms: 0.5225E-04   max: -.2332E-03   D at   79  2
       a = 12.000      CL =  1.5775
      Cm = -0.0771     CD =  0.03489   =>   CDf =  0.00634    CDp =  0.02855
 plradd ia,ip,cpol           38           0  6.20445283E-03

 Point added to stored polar  1
 Point written to save file  nasasc2-0714_Re600k.base.pol                    
 Dump file unspecified or not available
 Calculating wake trajectory ...
 Calculating source influence matrix ...

 Solving BL system ...

 Side 1  free  transition at x/c =  0.0316   36
 Side 2  free  transition at x/c =  0.7451   47

   1   rms: 0.2988E-01   max: 0.6938E-01   T at   36  1   RLX: 0.966
       a = 12.250      CL =  1.5884
      Cm = -0.0751     CD =  0.03598   =>   CDf =  0.00634    CDp =  0.02964

 Side 1  free  transition at x/c =  0.0313   36
 Side 2  free  transition at x/c =  0.7467   47

   2   rms: 0.1696E-02   max: 0.1095E-01   D at   91  1
       a = 12.250      CL =  1.5877
      Cm = -0.0749     CD =  0.03602   =>   CDf =  0.00627    CDp =  0.02975

 Side 1  free  transition at x/c =  0.0313   36
 Side 2  free  transition at x/c =  0.7469   47

   3   rms: 0.3708E-04   max: -.2248E-03   D at   80  2
       a = 12.250      CL =  1.5877
      Cm = -0.0749     CD =  0.03602   =>   CDf =  0.00627    CDp =  0.02974
 plradd ia,ip,cpol           39           0  6.20445283E-03

 Point added to stored polar  1
 Point written to save file  nasasc2-0714_Re600k.base.pol                    
 Dump file unspecified or not available
 Calculating wake trajectory ...
 Calculating source influence matrix ...

 Solving BL system ...

 Side 1  free  transition at x/c =  0.0313   36
 Side 2  free  transition at x/c =  0.7469   47

   1   rms: 0.2984E-01   max: 0.7259E-01   T at   36  1   RLX: 0.930
       a = 12.500      CL =  1.5975
      Cm = -0.0730     CD =  0.03715   =>   CDf =  0.00628    CDp =  0.03088

 Side 1  free  transition at x/c =  0.0310   36
 Side 2  free  transition at x/c =  0.7486   47

   2   rms: 0.2139E-02   max: 0.1527E-01   D at   77  2
       a = 12.500      CL =  1.5970
      Cm = -0.0728     CD =  0.03725   =>   CDf =  0.00622    CDp =  0.03104

 Side 1  free  transition at x/c =  0.0309   36
 Side 2  free  transition at x/c =  0.7488   47

   3   rms: 0.7177E-04   max: 0.8408E-03   D at   77  2
       a = 12.500      CL =  1.5970
      Cm = -0.0728     CD =  0.03725   =>   CDf =  0.00621    CDp =  0.03104
 plradd ia,ip,cpol           40           0  6.20445283E-03

 Point added to stored polar  1
 Point written to save file  nasasc2-0714_Re600k.base.pol                    
 Dump file unspecified or not available
 Calculating wake trajectory ...
 Calculating source influence matrix ...

 Solving BL system ...

 Side 1  free  transition at x/c =  0.0309   36
 Side 2  free  transition at x/c =  0.7488   47

   1   rms: 0.2991E-01   max: 0.7502E-01   T at   36  1   RLX: 0.895
       a = 12.750      CL =  1.6052
      Cm = -0.0709     CD =  0.03847   =>   CDf =  0.00622    CDp =  0.03226

 Side 1  free  transition at x/c =  0.0306   36
 Side 2  free  transition at x/c =  0.7504   47

   2   rms: 0.3233E-02   max: 0.1307E-01   D at   90  1
       a = 12.750      CL =  1.6047
      Cm = -0.0706     CD =  0.03868   =>   CDf =  0.00616    CDp =  0.03252

 Side 1  free  transition at x/c =  0.0306   36
 Side 2  free  transition at x/c =  0.7506   47

   3   rms: 0.1156E-03   max: 0.7043E-03   D at   78  2
       a = 12.750      CL =  1.6046
      Cm = -0.0706     CD =  0.03867   =>   CDf =  0.00615    CDp =  0.03252

 Side 1  free  transition at x/c =  0.0306   36
 Side 2  free  transition at x/c =  0.7506   47

   4   rms: 0.1819E-05   max: -.1282E-04   D at   48  2
       a = 12.750      CL =  1.6046
      Cm = -0.0706     CD =  0.03867   =>   CDf =  0.00615    CDp =  0.03252
 plradd ia,ip,cpol           41           0  6.20445283E-03

 Point added to stored polar  1
 Point written to save file  nasasc2-0714_Re600k.base.pol                    
 Dump file unspecified or not available
 Calculating wake trajectory ...
 Calculating source influence matrix ...

 Solving BL system ...

 Side 1  free  transition at x/c =  0.0306   36
 Side 2  free  transition at x/c =  0.7506   47

   1   rms: 0.3074E-01   max: 0.7964E-01   D at   85  1   RLX: 0.860
       a = 13.000      CL =  1.6114
      Cm = -0.0688     CD =  0.04006   =>   CDf =  0.00576    CDp =  0.03431

 Side 1  free  transition at x/c =  0.0303   37
 Side 2  free  transition at x/c =  0.7522   46

   2   rms: 0.5767E-02   max: 0.2646E-01   D at   90  1
       a = 13.000      CL =  1.6100
      Cm = -0.0683     CD =  0.04046   =>   CDf =  0.00609    CDp =  0.03437

 Side 1  free  transition at x/c =  0.0302   37
 Side 2  free  transition at x/c =  0.7524   46

   3   rms: 0.5304E-03   max: -.4696E-02   D at    4  1
       a = 13.000      CL =  1.6097
      Cm = -0.0682     CD =  0.04045   =>   CDf =  0.00607    CDp =  0.03438

 Side 1  free  transition at x/c =  0.0302   37
 Side 2  free  transition at x/c =  0.7524   46

   4   rms: 0.4153E-05   max: -.4641E-04   D at   47  2
       a = 13.000      CL =  1.6097
      Cm = -0.0682     CD =  0.04045   =>   CDf =  0.00607    CDp =  0.03438
 plradd ia,ip,cpol           42           0  6.20445283E-03

 Point added to stored polar  1
 Point written to save file  nasasc2-0714_Re600k.base.pol                    
 Dump file unspecified or not available
 Calculating wake trajectory ...
 Calculating source influence matrix ...

 Solving BL system ...

 Side 1  free  transition at x/c =  0.0302   37
 Side 2  free  transition at x/c =  0.7524   46

   1   rms: 0.3445E-01   max: 0.9774E-01   D at   84  1   RLX: 0.821
       a = 13.250      CL =  1.6131
      Cm = -0.0664     CD =  0.04227   =>   CDf =  0.00607    CDp =  0.03620

 Side 1  free  transition at x/c =  0.0299   37
 Side 2  free  transition at x/c =  0.7537   46

   2   rms: 0.1242E-01   max: 0.4039E-01   D at   77  2
       a = 13.250      CL =  1.6088
      Cm = -0.0655     CD =  0.04326   =>   CDf =  0.00598    CDp =  0.03728

 Side 1  free  transition at x/c =  0.0298   36
 Side 2  free  transition at x/c =  0.7539   46

   3   rms: 0.1383E-02   max: -.1218E-01   D at   36  1
       a = 13.250      CL =  1.6084
      Cm = -0.0655     CD =  0.04315   =>   CDf =  0.00593    CDp =  0.03721

 Side 1  free  transition at x/c =  0.0298   36
 Side 2  free  transition at x/c =  0.7539   46

   4   rms: 0.1037E-03   max: -.4464E-03   D at   90  1
       a = 13.250      CL =  1.6085
      Cm = -0.0655     CD =  0.04314   =>   CDf =  0.00594    CDp =  0.03720

 Side 1  free  transition at x/c =  0.0298   36
 Side 2  free  transition at x/c =  0.7539   46

   5   rms: 0.2575E-05   max: 0.1859E-04   D at   47  2
       a = 13.250      CL =  1.6085
      Cm = -0.0655     CD =  0.04314   =>   CDf =  0.00594    CDp =  0.03720
 plradd ia,ip,cpol           43           0  6.20445283E-03

 Point added to stored polar  1
 Point written to save file  nasasc2-0714_Re600k.base.pol                    
 Dump file unspecified or not available
 Calculating wake trajectory ...
 Calculating source influence matrix ...

 Solving BL system ...

 Side 1  free  transition at x/c =  0.0298   36
 Side 2  free  transition at x/c =  0.7539   46

   1   rms: 0.2877E-01   max: 0.7829E-01   D at   85  1   RLX: 0.785
       a = 13.500      CL =  1.6136
      Cm = -0.0640     CD =  0.04443   =>   CDf =  0.00594    CDp =  0.03849

 Side 1  free  transition at x/c =  0.0296   36
 Side 2  free  transition at x/c =  0.7551   47

   2   rms: 0.6690E-02   max: -.3006E-01   D at   46  2
       a = 13.500      CL =  1.6139
      Cm = -0.0635     CD =  0.04478   =>   CDf =  0.00584    CDp =  0.03893

 Side 1  free  transition at x/c =  0.0296   36
 Side 2  free  transition at x/c =  0.7556   47

   3   rms: 0.5449E-03   max: 0.5523E-02   D at   47  2
       a = 13.500      CL =  1.6136
      Cm = -0.0635     CD =  0.04476   =>   CDf =  0.00581    CDp =  0.03895

 Side 1  free  transition at x/c =  0.0296   36
 Side 2  free  transition at x/c =  0.7556   47

   4   rms: 0.2772E-05   max: 0.2549E-04   D at   78  2
       a = 13.500      CL =  1.6136
      Cm = -0.0635     CD =  0.04476   =>   CDf =  0.00581    CDp =  0.03895
 plradd ia,ip,cpol           44           0  6.20445283E-03

 Point added to stored polar  1
 Point written to save file  nasasc2-0714_Re600k.base.pol                    
 Dump file unspecified or not available
 Calculating wake trajectory ...
 Calculating source influence matrix ...

 Solving BL system ...

 Side 1  free  transition at x/c =  0.0296   36
 Side 2  free  transition at x/c =  0.7556   47

   1   rms: 0.2903E-01   max: -.8599E-01   T at   47  2   RLX: 0.756
       a = 13.750      CL =  1.6178
      Cm = -0.0621     CD =  0.04609   =>   CDf =  0.00581    CDp =  0.04028

 Side 1  free  transition at x/c =  0.0294   36
 Side 2  free  transition at x/c =  0.7569   47

   2   rms: 0.7018E-02   max: 0.2943E-01   D at   88  1
       a = 13.750      CL =  1.6176
      Cm = -0.0615     CD =  0.04656   =>   CDf =  0.00569    CDp =  0.04087

 Side 1  free  transition at x/c =  0.0294   36
 Side 2  free  transition at x/c =  0.7572   47

   3   rms: 0.3093E-03   max: 0.2362E-02   D at   78  2
       a = 13.750      CL =  1.6173
      Cm = -0.0615     CD =  0.04654   =>   CDf =  0.00566    CDp =  0.04088

 Side 1  free  transition at x/c =  0.0294   36
 Side 2  free  transition at x/c =  0.7572   47

   4   rms: 0.3940E-05   max: 0.4039E-04   D at   78  2
       a = 13.750      CL =  1.6173
      Cm = -0.0615     CD =  0.04653   =>   CDf =  0.00566    CDp =  0.04088
 plradd ia,ip,cpol           45           0  6.20445283E-03

 Point added to stored polar  1
 Point written to save file  nasasc2-0714_Re600k.base.pol                    
 Dump file unspecified or not available
 Calculating wake trajectory ...
 Calculating source influence matrix ...

 Solving BL system ...

 Side 1  free  transition at x/c =  0.0294   36
 Side 2  free  transition at x/c =  0.7572   47

   1   rms: 0.2876E-01   max: 0.8508E-01   D at   83  1   RLX: 0.727
       a = 14.000      CL =  1.6206
      Cm = -0.0602     CD =  0.04796   =>   CDf =  0.00566    CDp =  0.04230

 Side 1  free  transition at x/c =  0.0292   36
 Side 2  free  transition at x/c =  0.7583   47

   2   rms: 0.8144E-02   max: 0.3683E-01   D at   87  1
       a = 14.000      CL =  1.6200
      Cm = -0.0596     CD =  0.04854   =>   CDf =  0.00555    CDp =  0.04299

 Side 1  free  transition at x/c =  0.0292   36
 Side 2  free  transition at x/c =  0.7587   47

   3   rms: 0.5092E-03   max: 0.5344E-02   D at   78  2
       a = 14.000      CL =  1.6196
      Cm = -0.0596     CD =  0.04850   =>   CDf =  0.00551    CDp =  0.04300

 Side 1  free  transition at x/c =  0.0292   36
 Side 2  free  transition at x/c =  0.7587   47

   4   rms: 0.1056E-04   max: 0.1490E-03   D at   78  2
       a = 14.000      CL =  1.6196
      Cm = -0.0596     CD =  0.04850   =>   CDf =  0.00551    CDp =  0.04299
 plradd ia,ip,cpol           46           0  6.20445283E-03

 Point added to stored polar  1
 Point written to save file  nasasc2-0714_Re600k.base.pol                    
 Dump file unspecified or not available
 Calculating wake trajectory ...
 Calculating source influence matrix ...

 Solving BL system ...

 Side 1  free  transition at x/c =  0.0292   36
 Side 2  free  transition at x/c =  0.7587   47

   1   rms: 0.2897E-01   max: 0.9063E-01   D at   82  1   RLX: 0.698
       a = 14.250      CL =  1.6218
      Cm = -0.0584     CD =  0.05004   =>   CDf =  0.00551    CDp =  0.04453

 Side 1  free  transition at x/c =  0.0290   36
 Side 2  free  transition at x/c =  0.7598   47

   2   rms: 0.9281E-02   max: 0.4291E-01   D at   86  1
       a = 14.250      CL =  1.6207
      Cm = -0.0578     CD =  0.05076   =>   CDf =  0.00541    CDp =  0.04536

 Side 1  free  transition at x/c =  0.0289   36
 Side 2  free  transition at x/c =  0.7603   47

   3   rms: 0.6285E-03   max: 0.3388E-02   D at   78  2
       a = 14.250      CL =  1.6201
      Cm = -0.0578     CD =  0.05072   =>   CDf =  0.00536    CDp =  0.04536

 Side 1  free  transition at x/c =  0.0289   36
 Side 2  free  transition at x/c =  0.7603   47

   4   rms: 0.1554E-04   max: 0.1239E-03   D at   78  2
       a = 14.250      CL =  1.6201
      Cm = -0.0578     CD =  0.05072   =>   CDf =  0.00536    CDp =  0.04536
 plradd ia,ip,cpol           47           0  6.20445283E-03

 Point added to stored polar  1
 Point written to save file  nasasc2-0714_Re600k.base.pol                    
 Dump file unspecified or not available
 Calculating wake trajectory ...
 Calculating source influence matrix ...

 Solving BL system ...

 Side 1  free  transition at x/c =  0.0289   36
 Side 2  free  transition at x/c =  0.7603   47

   1   rms: 0.2899E-01   max: 0.9447E-01   D at   82  1   RLX: 0.671
       a = 14.500      CL =  1.6215
      Cm = -0.0568     CD =  0.05233   =>   CDf =  0.00536    CDp =  0.04697

 Side 1  free  transition at x/c =  0.0288   36
 Side 2  free  transition at x/c =  0.7615   47

   2   rms: 0.1024E-01   max: 0.4649E-01   D at   85  1
       a = 14.500      CL =  1.6201
      Cm = -0.0562     CD =  0.05319   =>   CDf =  0.00526    CDp =  0.04792

 Side 1  free  transition at x/c =  0.0287   36
 Side 2  free  transition at x/c =  0.7620   47

   3   rms: 0.7540E-03   max: 0.4657E-02   D at   79  2
       a = 14.500      CL =  1.6195
      Cm = -0.0562     CD =  0.05314   =>   CDf =  0.00521    CDp =  0.04792

 Side 1  free  transition at x/c =  0.0287   36
 Side 2  free  transition at x/c =  0.7620   47

   4   rms: 0.2352E-04   max: 0.1746E-03   D at   79  2
       a = 14.500      CL =  1.6194
      Cm = -0.0562     CD =  0.05314   =>   CDf =  0.00521    CDp =  0.04792
 plradd ia,ip,cpol           48           0  6.20445283E-03

 Point added to stored polar  1
 Point written to save file  nasasc2-0714_Re600k.base.pol                    
 Dump file unspecified or not available
 Calculating wake trajectory ...
 Calculating source influence matrix ...

 Solving BL system ...

 Side 1  free  transition at x/c =  0.0287   36
 Side 2  free  transition at x/c =  0.7620   47

   1   rms: 0.2968E-01   max: 0.1021E+00   D at   81  1   RLX: 0.644
       a = 14.750      CL =  1.6197
      Cm = -0.0553     CD =  0.05492   =>   CDf =  0.00481    CDp =  0.05011

 Side 1  free  transition at x/c =  0.0285   37
 Side 2  free  transition at x/c =  0.7632   46

   2   rms: 0.1484E-01   max: 0.1643E+00   D at    2  1
       a = 14.750      CL =  1.6179
      Cm = -0.0549     CD =  0.05594   =>   CDf =  0.00512    CDp =  0.05082

 Side 1  free  transition at x/c =  0.0285   37
 Side 2  free  transition at x/c =  0.7639   46

   3   rms: 0.1073E-02   max: 0.6560E-02   D at   84  1
       a = 14.750      CL =  1.6170
      Cm = -0.0548     CD =  0.05588   =>   CDf =  0.00506    CDp =  0.05082

 Side 1  free  transition at x/c =  0.0285   37
 Side 2  free  transition at x/c =  0.7639   46

   4   rms: 0.4484E-04   max: 0.5362E-03   D at   78  2
       a = 14.750      CL =  1.6169
      Cm = -0.0548     CD =  0.05587   =>   CDf =  0.00506    CDp =  0.05081
 plradd ia,ip,cpol           49           0  6.20445283E-03

 Point added to stored polar  1
 Point written to save file  nasasc2-0714_Re600k.base.pol                    
 Dump file unspecified or not available
 Calculating wake trajectory ...
 Calculating source influence matrix ...

 Solving BL system ...

 Side 1  free  transition at x/c =  0.0285   37
 Side 2  free  transition at x/c =  0.7639   46

   1   rms: 0.2979E-01   max: 0.1065E+00   D at   81  1   RLX: 0.618
       a = 15.000      CL =  1.6165
      Cm = -0.0542     CD =  0.05774   =>   CDf =  0.00507    CDp =  0.05268

 Side 1  free  transition at x/c =  0.0283   37
 Side 2  free  transition at x/c =  0.7650   46

   2   rms: 0.1244E-01   max: 0.4907E-01   D at   83  1
       a = 15.000      CL =  1.6143
      Cm = -0.0537     CD =  0.05892   =>   CDf =  0.00498    CDp =  0.05395

 Side 1  free  transition at x/c =  0.0283   37
 Side 2  free  transition at x/c =  0.7658   46

   3   rms: 0.1648E-02   max: 0.1275E-01   D at   83  1
       a = 15.000      CL =  1.6129
      Cm = -0.0537     CD =  0.05888   =>   CDf =  0.00492    CDp =  0.05397

 Side 1  free  transition at x/c =  0.0283   37
 Side 2  free  transition at x/c =  0.7658   46

   4   rms: 0.6570E-04   max: 0.4881E-03   D at   78  2
       a = 15.000      CL =  1.6129
      Cm = -0.0537     CD =  0.05887   =>   CDf =  0.00491    CDp =  0.05396
 plradd ia,ip,cpol           50           0  6.20445283E-03

 Point added to stored polar  1
 Point written to save file  nasasc2-0714_Re600k.base.pol                    
 Dump file unspecified or not available
 Calculating wake trajectory ...
 Calculating source influence matrix ...

 Solving BL system ...

 Side 1  free  transition at x/c =  0.0283   37
 Side 2  free  transition at x/c =  0.7658   46

   1   rms: 0.3072E-01   max: 0.1144E+00   D at   80  1   RLX: 0.593
       a = 15.250      CL =  1.6114
      Cm = -0.0533     CD =  0.06091   =>   CDf =  0.00492    CDp =  0.05599

 Side 1  free  transition at x/c =  0.0281   37
 Side 2  free  transition at x/c =  0.7668   46

   2   rms: 0.1341E-01   max: 0.5794E-01   D at   82  1
       a = 15.250      CL =  1.6084
      Cm = -0.0530     CD =  0.06231   =>   CDf =  0.00483    CDp =  0.05749

 Side 1  free  transition at x/c =  0.0281   37
 Side 2  free  transition at x/c =  0.7676   46

   3   rms: 0.1509E-02   max: 0.8992E-02   D at   82  1
       a = 15.250      CL =  1.6071
      Cm = -0.0529     CD =  0.06223   =>   CDf =  0.00476    CDp =  0.05746

 Side 1  free  transition at x/c =  0.0281   37
 Side 2  free  transition at x/c =  0.7676   46

   4   rms: 0.3903E-04   max: 0.3619E-03   D at   79  2
       a = 15.250      CL =  1.6071
      Cm = -0.0529     CD =  0.06221   =>   CDf =  0.00476    CDp =  0.05745
 plradd ia,ip,cpol           51           0  6.20445283E-03

 Point added to stored polar  1
 Point written to save file  nasasc2-0714_Re600k.base.pol                    
 Dump file unspecified or not available
 Calculating wake trajectory ...
 Calculating source influence matrix ...

 Solving BL system ...

 Side 1  free  transition at x/c =  0.0281   37
 Side 2  free  transition at x/c =  0.7676   46

   1   rms: 0.3131E-01   max: 0.1199E+00   D at   78  1   RLX: 0.569
       a = 15.500      CL =  1.6051
      Cm = -0.0527     CD =  0.06439   =>   CDf =  0.00477    CDp =  0.05962

 Side 1  free  transition at x/c =  0.0280   37
 Side 2  free  transition at x/c =  0.7686   46

   2   rms: 0.1490E-01   max: 0.6822E-01   D at   81  1
       a = 15.500      CL =  1.6014
      Cm = -0.0527     CD =  0.06609   =>   CDf =  0.00468    CDp =  0.06141

 Side 1  free  transition at x/c =  0.0279   37
 Side 2  free  transition at x/c =  0.7693   46

   3   rms: 0.1990E-02   max: 0.1511E-01   D at   80  1
       a = 15.500      CL =  1.5998
      Cm = -0.0526     CD =  0.06600   =>   CDf =  0.00461    CDp =  0.06139

 Side 1  free  transition at x/c =  0.0279   37
 Side 2  free  transition at x/c =  0.7693   46

   4   rms: 0.7929E-04   max: 0.6838E-03   D at   79  2
       a = 15.500      CL =  1.5997
      Cm = -0.0526     CD =  0.06598   =>   CDf =  0.00461    CDp =  0.06137
 plradd ia,ip,cpol           52           0  6.20445283E-03

 Point added to stored polar  1
 Point written to save file  nasasc2-0714_Re600k.base.pol                    
 Dump file unspecified or not available
 Calculating wake trajectory ...
 Calculating source influence matrix ...

 Solving BL system ...

 Side 1  free  transition at x/c =  0.0279   37
 Side 2  free  transition at x/c =  0.7693   46

   1   rms: 0.3221E-01   max: 0.1274E+00   D at   77  1   RLX: 0.546
       a = 15.750      CL =  1.5972
      Cm = -0.0527     CD =  0.06832   =>   CDf =  0.00462    CDp =  0.06370

 Side 1  free  transition at x/c =  0.0278   37
 Side 2  free  transition at x/c =  0.7701   46

   2   rms: 0.1604E-01   max: 0.7160E-01   D at   79  1
       a = 15.750      CL =  1.5930
      Cm = -0.0529     CD =  0.07029   =>   CDf =  0.00453    CDp =  0.06576

 Side 1  free  transition at x/c =  0.0277   37
 Side 2  free  transition at x/c =  0.7708   46

   3   rms: 0.2242E-02   max: 0.1284E-01   D at   79  2
       a = 15.750      CL =  1.5912
      Cm = -0.0529     CD =  0.07017   =>   CDf =  0.00446    CDp =  0.06571

 Side 1  free  transition at x/c =  0.0278   37
 Side 2  free  transition at x/c =  0.7708   46

   4   rms: 0.1512E-03   max: 0.1765E-02   D at   79  2
       a = 15.750      CL =  1.5911
      Cm = -0.0528     CD =  0.07015   =>   CDf =  0.00446    CDp =  0.06569

 Side 1  free  transition at x/c =  0.0278   37
 Side 2  free  transition at x/c =  0.7708   46

   5   rms: 0.4221E-05   max: 0.4953E-04   D at   79  2
       a = 15.750      CL =  1.5911
      Cm = -0.0528     CD =  0.07015   =>   CDf =  0.00446    CDp =  0.06569
 plradd ia,ip,cpol           53           0  6.20445283E-03

 Point added to stored polar  1
 Point written to save file  nasasc2-0714_Re600k.base.pol                    
 Dump file unspecified or not available
 Calculating wake trajectory ...
 Calculating source influence matrix ...

 Solving BL system ...

 Side 1  free  transition at x/c =  0.0278   37
 Side 2  free  transition at x/c =  0.7708   46

   1   rms: 0.3342E-01   max: 0.1353E+00   D at   76  1   RLX: 0.524
       a = 16.000      CL =  1.5879
      Cm = -0.0532     CD =  0.07269   =>   CDf =  0.00447    CDp =  0.06822

 Side 1  free  transition at x/c =  0.0277   37
 Side 2  free  transition at x/c =  0.7715   46

   2   rms: 0.1744E-01   max: 0.7587E-01   D at   77  1
       a = 16.000      CL =  1.5829
      Cm = -0.0537     CD =  0.07498   =>   CDf =  0.00439    CDp =  0.07059

 Side 1  free  transition at x/c =  0.0276   37
 Side 2  free  transition at x/c =  0.7721   47

   3   rms: 0.3175E-02   max: -.2019E-01   D at   46  2
       a = 16.000      CL =  1.5806
      Cm = -0.0536     CD =  0.07486   =>   CDf =  0.00431    CDp =  0.07055

 Side 1  free  transition at x/c =  0.0276   37
 Side 2  free  transition at x/c =  0.7722   47

   4   rms: 0.2759E-03   max: 0.2818E-02   D at   47  2
       a = 16.000      CL =  1.5805
      Cm = -0.0536     CD =  0.07482   =>   CDf =  0.00430    CDp =  0.07052

 Side 1  free  transition at x/c =  0.0276   37
 Side 2  free  transition at x/c =  0.7722   47

   5   rms: 0.8443E-05   max: 0.5747E-04   D at   79  2
       a = 16.000      CL =  1.5805
      Cm = -0.0536     CD =  0.07482   =>   CDf =  0.00430    CDp =  0.07052
 plradd ia,ip,cpol           54           0  6.20445283E-03

 Point added to stored polar  1
 Point written to save file  nasasc2-0714_Re600k.base.pol                    
 Dump file unspecified or not available

.OPERva   c>  
 Polar accumulation disabled

.OPERv   c>  
 XFOIL   c>  
 XFOIL   c>  