
 ===================================================
  XFOIL Version 6.99
  Copyright (C) 2000   Mark Drela, Harold Youngren

  This software comes with ABSOLUTELY NO WARRANTY,
    subject to the GNU General Public License.

  Caveat computor
 ===================================================

 File  xfoil.def  not found

   QUIT    Exit program

  .OPER    Direct operating point(s)
  .MDES    Complex mapping design routine
  .QDES    Surface speed design routine
  .GDES    Geometry design routine

   SAVE f  Write airfoil to labeled coordinate file
   PSAV f  Write airfoil to plain coordinate file
   ISAV f  Write airfoil to ISES coordinate file
   MSAV f  Write airfoil to MSES coordinate file
   REVE    Reverse written-airfoil node ordering

   LOAD f  Read buffer airfoil from coordinate file
   NACA i  Set NACA 4,5-digit airfoil and buffer airfoil
   INTE    Set buffer airfoil by interpolating two airfoils
   NORM    Buffer airfoil normalization toggle
   XYCM rr Change CM reference location, currently  0.25000 0.00000

   BEND    Display structural properties of current airfoil

   PCOP    Set current-airfoil panel nodes directly from buffer airfoil points
   PANE    Set current-airfoil panel nodes ( 160 ) based on curvature
  .PPAR    Show/change paneling

  .PLOP    Plotting options

   WDEF f  Write  current-settings file
   RDEF f  Reread current-settings file
   NAME s  Specify new airfoil name
   NINC    Increment name version number

   Z       Zoom    | (available in all menus)
   U       Unzoom  | 

 XFOIL   c>  
 Labeled airfoil file.  Name:  NASA NLF(1)-0414F                               

 Number of input coordinate points:  82
 Counterclockwise ordering
 Max thickness =     0.141726  at x =   0.466
 Max camber    =     0.023902  at x =   0.513

  LE  x,y  =  -0.00001   0.00046  |   Chord =   1.00001
  TE  x,y  =   1.00001   0.00000  |

 Current airfoil nodes set from buffer airfoil nodes (  82 )

 XFOIL   c>  
 XFOIL   c>  
 Blunt trailing edge.  Gap =  0.00039

 Paneling parameters used...
   Number of panel nodes       160
   Panel bunching parameter    1.000
   TE/LE panel density ratio   0.150
   Refined-area/LE panel density ratio    0.200
   Top    side refined area x/c limits  1.000 1.000
   Bottom side refined area x/c limits  1.000 1.000

 XFOIL   c>  
.OPERi   c>  
 Xtr/c     =  1.0000    top    side
 Xtr/c     =  1.0000    bottom side
 Ncrit     =    9.00   ( 0.070 % turb. level )
 Vacc      =  0.0100

 Klag  =  5.6000     Uxwt  =    1.00
 A     =  6.7000     B     =  0.7500       KCt = 0.01485
 CtiniK=  1.8000     CtiniX=  3.3000

..VPAR   c>  
..VPAR   c>  
.OPERi   c>  
 M  =    0.0000
 Re =    150000

.OPERv   c>  
.OPERv   c>  
.OPERv   c>  
 Polar  1 newly created for accumulation
 Airfoil archived with polar: NASA NLF(1)-0414F                               

Enter  polar save filename  OR  <return> for no file   s>  
 New polar save file available

Enter  polar dump filename  OR  <return> for no file   s>  
 Polar dump file will NOT be written

 Polar accumulation enabled

.OPERva   c>   Calculating unit vorticity distributions ...
 Calculating wake trajectory ...
 Calculating source influence matrix ...

 Solving BL system ...

 Initializing BL ...
    side            1  ...
 MRCHUE: Inverse mode at  57     Hk =   3.800
 MRCHUE: Inverse mode at  58     Hk =   4.154
 MRCHUE: Convergence failed at  59  side 1    Res =  0.1109E+02
 MRCHUE: Convergence failed at  60  side 1    Res =  0.5117E+01
 MRCHUE: Inverse mode at  61     Hk =   4.539
 MRCHUE: Convergence failed at  62  side 1    Res =  0.3620E+01
 MRCHUE: Inverse mode at  63     Hk =   4.901
 MRCHUE: Convergence failed at  64  side 1    Res =  0.2557E+01
 MRCHUE: Inverse mode at  65     Hk =   5.240
 MRCHUE: Inverse mode at  66     Hk =   5.570
 MRCHUE: Inverse mode at  67     Hk =   5.893
 MRCHUE: Inverse mode at  68     Hk =   6.212
 MRCHUE: Inverse mode at  69     Hk =   6.524
 MRCHUE: Inverse mode at  70     Hk =   6.829
 MRCHUE: Inverse mode at  71     Hk =   7.127
 MRCHUE: Inverse mode at  72     Hk =   7.411
 MRCHUE: Inverse mode at  73     Hk =   7.675
 MRCHUE: Inverse mode at  74     Hk =   7.910
 MRCHUE: Inverse mode at  75     Hk =   8.113
 MRCHUE: Inverse mode at  76     Hk =   8.228
    side            2  ...
 MRCHUE: Inverse mode at  14     Hk =   3.800
 MRCHUE: Inverse mode at  15     Hk =   4.413
 MRCHUE: Inverse mode at  16     Hk =   4.960
 MRCHUE: Inverse mode at  17     Hk =   5.475
 MRCHUE: Inverse mode at  18     Hk =   5.981
 MRCHUE: Convergence failed at  18  side 2    Res =  0.7012E-01
 MRCHUE: Inverse mode at  19     Hk =   6.536
 MRCHUE: Inverse mode at  20     Hk =   7.078
 MRCHUE: Inverse mode at  21     Hk =   7.661
 MRCHUE: Inverse mode at  22     Hk =   8.299
 MRCHUE: Inverse mode at  23     Hk =   9.006
 MRCHUE: Inverse mode at  24     Hk =   9.792
 MRCHUE: Inverse mode at  25     Hk =  10.661
 MRCHUE: Inverse mode at  26     Hk =   6.339
 MRCHUE: Inverse mode at  27     Hk =   4.125
 MRCHUE: Inverse mode at  28     Hk =   2.654
 MRCHUE: Inverse mode at  74     Hk =   2.500
 MRCHUE: Inverse mode at  75     Hk =   2.500
 MRCHUE: Inverse mode at  76     Hk =   2.500
 MRCHUE: Inverse mode at  77     Hk =   2.500
 MRCHUE: Inverse mode at  78     Hk =   2.500
 MRCHUE: Inverse mode at  79     Hk =   2.500
 MRCHUE: Inverse mode at  80     Hk =   2.500
 MRCHUE: Inverse mode at  81     Hk =   2.500
 MRCHUE: Inverse mode at  82     Hk =   2.500
 MRCHUE: Inverse mode at  84     Hk =   2.500
 MRCHUE: Inverse mode at  85     Hk =   2.500
 MRCHUE: Inverse mode at  86     Hk =   2.500

 MRCHDU: Convergence failed at  60  side 1    Res =  0.2890E+01
 MRCHDU: Convergence failed at  61  side 1    Res =  0.1685E+01
 MRCHDU: Convergence failed at  62  side 1    Res =  0.4726E+01
 MRCHDU: Convergence failed at  63  side 1    Res =  0.3207E+01
 MRCHDU: Convergence failed at  64  side 1    Res =  0.4856E+01
 MRCHDU: Convergence failed at  65  side 1    Res =  0.4322E+01
 MRCHDU: Convergence failed at  66  side 1    Res =  0.4974E+01
 MRCHDU: Convergence failed at  67  side 1    Res =  0.6005E+01
 MRCHDU: Convergence failed at  68  side 1    Res =  0.7463E+01
 MRCHDU: Convergence failed at  69  side 1    Res =  0.9983E+01
 MRCHDU: Convergence failed at  70  side 1    Res =  0.1595E+02
 MRCHDU: Convergence failed at  71  side 1    Res =  0.4626E+02
 MRCHDU: Convergence failed at  72  side 1    Res =  0.3624E+02
 MRCHDU: Convergence failed at  73  side 1    Res =  0.1508E+02
 MRCHDU: Convergence failed at  74  side 1    Res =  0.9448E+01
 MRCHDU: Convergence failed at  75  side 1    Res =  0.6988E+01
 MRCHDU: Convergence failed at  76  side 1    Res =  0.6545E+01
 Side 1 forced transition at x/c =  1.0000   76
 Side 2  free  transition at x/c =  0.0607   26

   1   rms: 0.5802E+00   max: 0.4120E+01   C at   76  1   RLX: 0.330
       a = -4.000      CL = -0.1221
      Cm = -0.1223     CD =  0.01507   =>   CDf =  0.00914    CDp =  0.00593

 MRCHDU: Convergence failed at  26  side 2    Res =  0.5563E+01
 MRCHDU: Convergence failed at  27  side 2    Res =  0.4892E+01
 MRCHDU: Convergence failed at  28  side 2    Res =  0.7505E+01
 MRCHDU: Convergence failed at  29  side 2    Res =  0.6948E+01
 MRCHDU: Convergence failed at  30  side 2    Res =  0.6682E+01
 MRCHDU: Convergence failed at  31  side 2    Res =  0.7334E+01
 MRCHDU: Convergence failed at  32  side 2    Res =  0.8385E+01
 MRCHDU: Convergence failed at  33  side 2    Res =  0.9810E+01
 MRCHDU: Convergence failed at  34  side 2    Res =  0.1159E+02
 MRCHDU: Convergence failed at  35  side 2    Res =  0.1407E+02
 MRCHDU: Convergence failed at  36  side 2    Res =  0.1728E+02
 MRCHDU: Convergence failed at  37  side 2    Res =  0.2152E+02
 MRCHDU: Convergence failed at  38  side 2    Res =  0.5270E+02
 MRCHDU: Convergence failed at  39  side 2    Res =  0.4551E+02
 MRCHDU: Convergence failed at  40  side 2    Res =  0.4119E+02
 MRCHDU: Convergence failed at  41  side 2    Res =  0.3791E+02
 MRCHDU: Convergence failed at  42  side 2    Res =  0.3586E+02
 MRCHDU: Convergence failed at  43  side 2    Res =  0.3391E+02
 MRCHDU: Convergence failed at  44  side 2    Res =  0.3226E+02
 MRCHDU: Convergence failed at  45  side 2    Res =  0.3059E+02
 MRCHDU: Convergence failed at  46  side 2    Res =  0.2831E+02
 MRCHDU: Convergence failed at  47  side 2    Res =  0.2760E+02
 MRCHDU: Convergence failed at  48  side 2    Res =  0.2639E+02
 MRCHDU: Convergence failed at  49  side 2    Res =  0.2537E+02
 MRCHDU: Convergence failed at  50  side 2    Res =  0.2434E+02
 MRCHDU: Convergence failed at  51  side 2    Res =  0.2379E+02
 MRCHDU: Convergence failed at  52  side 2    Res =  0.2312E+02
 MRCHDU: Convergence failed at  53  side 2    Res =  0.2255E+02
 MRCHDU: Convergence failed at  54  side 2    Res =  0.2217E+02
 MRCHDU: Convergence failed at  55  side 2    Res =  0.2176E+02
 MRCHDU: Convergence failed at  56  side 2    Res =  0.2454E+02
 MRCHDU: Convergence failed at  57  side 2    Res =  0.2314E+02
 MRCHDU: Convergence failed at  58  side 2    Res =  0.2269E+02
 MRCHDU: Convergence failed at  59  side 2    Res =  0.2234E+02
 MRCHDU: Convergence failed at  60  side 2    Res =  0.2112E+02
 MRCHDU: Convergence failed at  61  side 2    Res =  0.1926E+02
 MRCHDU: Convergence failed at  62  side 2    Res =  0.2659E+02
 MRCHDU: Convergence failed at  63  side 2    Res =  0.1995E+02
 MRCHDU: Convergence failed at  64  side 2    Res =  0.1884E+02
 MRCHDU: Convergence failed at  65  side 2    Res =  0.1932E+03
 MRCHDU: Convergence failed at  66  side 2    Res =  0.4818E+02
 MRCHDU: Convergence failed at  67  side 2    Res =  0.5772E+02
 MRCHDU: Convergence failed at  68  side 2    Res =  0.8811E+02
 MRCHDU: Convergence failed at  69  side 2    Res =  0.2119E+02
 MRCHDU: Convergence failed at  70  side 2    Res =  0.4506E+02
 MRCHDU: Convergence failed at  71  side 2    Res =  0.8344E+02
 MRCHDU: Convergence failed at  72  side 2    Res =  0.1100E+03
 MRCHDU: Convergence failed at  73  side 2    Res =  0.1383E+03
 MRCHDU: Convergence failed at  74  side 2    Res =  0.1750E+03
 MRCHDU: Convergence failed at  75  side 2    Res =  0.1637E+03
 MRCHDU: Convergence failed at  76  side 2    Res =  0.1598E+03
 MRCHDU: Convergence failed at  77  side 2    Res =  0.1616E+03
 MRCHDU: Convergence failed at  78  side 2    Res =  0.9196E+02
 MRCHDU: Convergence failed at  79  side 2    Res =  0.9258E+02
 MRCHDU: Convergence failed at  80  side 2    Res =  0.9199E+02
 MRCHDU: Convergence failed at  81  side 2    Res =  0.9155E+02
 MRCHDU: Convergence failed at  82  side 2    Res =  0.9403E+02
 MRCHDU: Convergence failed at  83  side 2    Res =  0.2814E+03
 MRCHDU: Convergence failed at  84  side 2    Res =  0.1271E+03
 MRCHDU: Convergence failed at  85  side 2    Res =  0.4017E+03
 MRCHDU: Convergence failed at  86  side 2    Res =  0.3914E+03
 Side 1 forced transition at x/c =  1.0000   76
 Side 2  free  transition at x/c =  0.0579   25

   2   rms: 0.1278E+01   max: 0.7780E+01   D at   88  2   RLX: 0.193
       a = -4.000      CL = -1.0304
      Cm =  0.1918     CD =  0.00622   =>   CDf =  0.00406    CDp =  0.00215

 MRCHDU: Convergence failed at  32  side 2    Res =  0.2733E+00
 MRCHDU: Convergence failed at  33  side 2    Res =  0.2065E+00
 MRCHDU: Convergence failed at  34  side 2    Res =  0.1162E+00
 MRCHDU: Convergence failed at  36  side 2    Res =  0.2264E+00
 MRCHDU: Convergence failed at  37  side 2    Res =  0.2224E+00
 MRCHDU: Convergence failed at  38  side 2    Res =  0.2187E+00
 MRCHDU: Convergence failed at  39  side 2    Res =  0.2149E+00
 MRCHDU: Convergence failed at  40  side 2    Res =  0.2104E+00
 MRCHDU: Convergence failed at  41  side 2    Res =  0.2068E+00
 MRCHDU: Convergence failed at  42  side 2    Res =  0.2036E+00
 MRCHDU: Convergence failed at  43  side 2    Res =  0.2005E+00
 MRCHDU: Convergence failed at  44  side 2    Res =  0.1968E+00
 MRCHDU: Convergence failed at  45  side 2    Res =  0.1931E+00
 MRCHDU: Convergence failed at  46  side 2    Res =  0.1895E+00
 MRCHDU: Convergence failed at  47  side 2    Res =  0.1858E+00
 MRCHDU: Convergence failed at  48  side 2    Res =  0.1825E+00
 MRCHDU: Convergence failed at  49  side 2    Res =  0.1790E+00
 MRCHDU: Convergence failed at  50  side 2    Res =  0.1752E+00
 MRCHDU: Convergence failed at  51  side 2    Res =  0.1713E+00
 MRCHDU: Convergence failed at  52  side 2    Res =  0.1675E+00
 MRCHDU: Convergence failed at  53  side 2    Res =  0.1634E+00
 MRCHDU: Convergence failed at  54  side 2    Res =  0.1588E+00
 MRCHDU: Convergence failed at  55  side 2    Res =  0.1539E+00
 MRCHDU: Convergence failed at  56  side 2    Res =  0.1486E+00
 MRCHDU: Convergence failed at  57  side 2    Res =  0.1431E+00
 MRCHDU: Convergence failed at  58  side 2    Res =  0.1363E+00
 MRCHDU: Convergence failed at  59  side 2    Res =  0.1269E+00
 MRCHDU: Convergence failed at  60  side 2    Res =  0.1157E+00
 MRCHDU: Convergence failed at  61  side 2    Res =  0.1025E+00
 MRCHDU: Convergence failed at  62  side 2    Res =  0.7376E-01
 MRCHDU: Convergence failed at  63  side 2    Res =  0.1440E+01
 MRCHDU: Convergence failed at  64  side 2    Res =  0.1509E+01
 MRCHDU: Convergence failed at  89  side 2    Res =  0.1376E+01
 MRCHDU: Convergence failed at  90  side 2    Res =  0.1151E+02
 MRCHDU: Convergence failed at  91  side 2    Res =  0.2451E+01
 Side 1  free  transition at x/c =  0.9783   74
 Side 2  free  transition at x/c =  0.0536   25

   3   rms: 0.4962E+00   max: 0.1959E+01   T at   74  1   RLX: 0.370
       a = -4.000      CL = -0.3499
      Cm =  0.0097     CD =  0.02613   =>   CDf =  0.00518    CDp =  0.02095

 Side 1  free  transition at x/c =  0.9582   73
 Side 2  free  transition at x/c =  0.0594   25

   4   rms: 0.3751E+00   max: 0.1678E+01   T at   73  1   RLX: 0.356
       a = -4.000      CL = -0.2673
      Cm = -0.0224     CD =  0.02656   =>   CDf =  0.00789    CDp =  0.01867

 Side 1  free  transition at x/c =  0.9517   73
 Side 2  free  transition at x/c =  0.0564   24
 idif Ue xi dudx           1  0.27479345      4.97245789E-03   55.263103    
 Uenew xinew           2  0.14004505      2.53415108E-03

   5   rms: 0.8408E+00   max: 0.4813E+01   D at    2  1   RLX: 0.208
       a = -4.000      CL = -0.4295
      Cm = -0.0042     CD =  0.03227   =>   CDf =  0.00740    CDp =  0.02487

 Side 1  free  transition at x/c =  0.9540   72
 Side 2  free  transition at x/c =  0.0503   25
 idif Ue xi dudx           1  0.24332683      4.35638428E-03   55.855225    
 Uenew xinew           2  9.76929516E-02  1.74903870E-03

   6   rms: 0.1086E+01   max: 0.1037E+02   T at   25  2   RLX: 0.145
       a = -4.000      CL = -0.5364
      Cm =  0.0088     CD =  0.03978   =>   CDf =  0.00661    CDp =  0.03317

 MRCHDU: Convergence failed at  26  side 2    Res =  0.1896E+02
 MRCHDU: Convergence failed at  27  side 2    Res =  0.2885E+02
 MRCHDU: Convergence failed at  28  side 2    Res =  0.2070E+02
 MRCHDU: Convergence failed at  29  side 2    Res =  0.1999E+03
 MRCHDU: Convergence failed at  30  side 2    Res =  0.5574E+02
 MRCHDU: Convergence failed at  31  side 2    Res =  0.4859E+02
 MRCHDU: Convergence failed at  32  side 2    Res =  0.6789E+02
 MRCHDU: Convergence failed at  33  side 2    Res =  0.7839E+02
 MRCHDU: Convergence failed at  34  side 2    Res =  0.7475E+02
 MRCHDU: Convergence failed at  35  side 2    Res =  0.1185E+03
 MRCHDU: Convergence failed at  36  side 2    Res =  0.3184E+03
 MRCHDU: Convergence failed at  37  side 2    Res =  0.4580E+02
 MRCHDU: Convergence failed at  38  side 2    Res =  0.7794E+02
 MRCHDU: Convergence failed at  39  side 2    Res =  0.4619E+03
 MRCHDU: Convergence failed at  40  side 2    Res =  0.7639E+02
 MRCHDU: Convergence failed at  41  side 2    Res =  0.2378E+03
 MRCHDU: Convergence failed at  42  side 2    Res =  0.1270E+03
 MRCHDU: Convergence failed at  43  side 2    Res =  0.7039E+02
 MRCHDU: Convergence failed at  44  side 2    Res =  0.7183E+02
 MRCHDU: Convergence failed at  45  side 2    Res =  0.7421E+02
 MRCHDU: Convergence failed at  46  side 2    Res =  0.2866E+03
 MRCHDU: Convergence failed at  47  side 2    Res =  0.1190E+03
 MRCHDU: Convergence failed at  48  side 2    Res =  0.1678E+03
 MRCHDU: Convergence failed at  49  side 2    Res =  0.9483E+02
 MRCHDU: Convergence failed at  50  side 2    Res =  0.1058E+03
 MRCHDU: Convergence failed at  51  side 2    Res =  0.8761E+02
 MRCHDU: Convergence failed at  52  side 2    Res =  0.8576E+02
 MRCHDU: Convergence failed at  53  side 2    Res =  0.7592E+02
 MRCHDU: Convergence failed at  54  side 2    Res =  0.8271E+02
 MRCHDU: Convergence failed at  55  side 2    Res =  0.7266E+03
 MRCHDU: Convergence failed at  56  side 2    Res =  0.2010E+03
 MRCHDU: Convergence failed at  57  side 2    Res =  0.8437E+02
 MRCHDU: Convergence failed at  58  side 2    Res =  0.1100E+03
 MRCHDU: Convergence failed at  59  side 2    Res =  0.7684E+02
 MRCHDU: Convergence failed at  60  side 2    Res =  0.7536E+02
 MRCHDU: Convergence failed at  61  side 2    Res =  0.9057E+02
 MRCHDU: Convergence failed at  62  side 2    Res =  0.8192E+02
 MRCHDU: Convergence failed at  63  side 2    Res =  0.2705E+03
 MRCHDU: Convergence failed at  64  side 2    Res =  0.1810E+03
 MRCHDU: Convergence failed at  65  side 2    Res =  0.1142E+03
 MRCHDU: Convergence failed at  66  side 2    Res =  0.7750E+03
 MRCHDU: Convergence failed at  67  side 2    Res =  0.9611E+03
 MRCHDU: Convergence failed at  68  side 2    Res =  0.5095E+02
 MRCHDU: Convergence failed at  69  side 2    Res =  0.3742E+03
 MRCHDU: Convergence failed at  70  side 2    Res =  0.1888E+03
 MRCHDU: Convergence failed at  71  side 2    Res =  0.5955E+02
 MRCHDU: Convergence failed at  72  side 2    Res =  0.2828E+03
 MRCHDU: Convergence failed at  73  side 2    Res =  0.1006E+03
 MRCHDU: Convergence failed at  74  side 2    Res =  0.8928E+02
 MRCHDU: Convergence failed at  75  side 2    Res =  0.8238E+02
 MRCHDU: Convergence failed at  76  side 2    Res =  0.3841E+03
 MRCHDU: Convergence failed at  77  side 2    Res =  0.7154E+02
 MRCHDU: Convergence failed at  78  side 2    Res =  0.2184E+03
 MRCHDU: Convergence failed at  79  side 2    Res =  0.8171E+02
 MRCHDU: Convergence failed at  80  side 2    Res =  0.8544E+02
 MRCHDU: Convergence failed at  81  side 2    Res =  0.9427E+02
 MRCHDU: Convergence failed at  82  side 2    Res =  0.1094E+03
 MRCHDU: Convergence failed at  83  side 2    Res =  0.5413E+02
 MRCHDU: Convergence failed at  84  side 2    Res =  0.3052E+03
 MRCHDU: Convergence failed at  85  side 2    Res =  0.7048E+03
 MRCHDU: Convergence failed at  86  side 2    Res =  0.7217E+02
 MRCHDU: Convergence failed at  87  side 2    Res =  0.5938E+03
 Side 1  free  transition at x/c =  0.9644   72
 Side 2  free  transition at x/c =  0.0469   25

   7   rms: 0.1102E+01   max: 0.3016E+01   D at   91  2   RLX: 0.479
       a = -4.000      CL = -0.6720
      Cm =  0.1164     CD =  0.01753   =>   CDf =  0.00328    CDp =  0.01425

 MRCHDU: Convergence failed at  88  side 2    Res =  0.6473E+01
 MRCHDU: Convergence failed at  89  side 2    Res =  0.1738E+01
 MRCHDU: Convergence failed at  90  side 2    Res =  0.2153E+01
 MRCHDU: Convergence failed at  91  side 2    Res =  0.4303E+01
 MRCHDU: Convergence failed at  92  side 2    Res =  0.7936E+01
 Side 1  free  transition at x/c =  0.9535   73
 Side 2  free  transition at x/c =  0.0641   25
 idif Ue xi dudx           1  0.16523039      2.93803215E-03   56.238457    
 Uenew xinew           2  2.81037819E-02  4.99725342E-04

   8   rms: 0.4641E+00   max: 0.2355E+01   D at   74  1   RLX: 0.387
       a = -4.000      CL = -0.1484
      Cm = -0.0774     CD =  0.06055   =>   CDf =  0.00431    CDp =  0.05624

 Side 1  free  transition at x/c =  0.9512   72
 Side 2  free  transition at x/c =  0.0573   25

   9   rms: 0.6754E+00   max: 0.4871E+01   T at   25  2   RLX: 0.308
       a = -4.000      CL = -0.2911
      Cm = -0.0486     CD =  0.07610   =>   CDf =  0.00418    CDp =  0.07192

 MRCHDU: Convergence failed at  25  side 2    Res =  0.1749E+03
 Side 1  free  transition at x/c =  0.9829   74
 Side 2  free  transition at x/c =  0.0564   25

  10   rms: 0.1066E+01   max: -.1617E+02   T at   74  1   RLX: 0.031
       a = -4.000      CL = -0.2843
      Cm = -0.0665     CD =  0.07611   =>   CDf =  0.00372    CDp =  0.07240

 Side 1  free  transition at x/c =  0.9826   74
 Side 2  free  transition at x/c =  0.0562   25
 idif Ue xi dudx           1  0.22158466      4.14502621E-03   53.457966    
 Uenew xinew           2  8.22012797E-02  1.53768063E-03

  11   rms: 0.5498E+00   max: 0.3631E+01   T at   25  2   RLX: 0.336
       a = -4.000      CL = -0.3949
      Cm = -0.0527     CD =  0.06422   =>   CDf =  0.00372    CDp =  0.06050

 Side 1 forced transition at x/c =  1.0000   75
 Side 2  free  transition at x/c =  0.0493   25
 idif Ue xi dudx           1  0.16917670      3.31115723E-03   51.092922    
 Uenew xinew           2  2.52583437E-02  4.94360924E-04

  12   rms: 0.8962E+00   max: -.2783E+01   D at   50  2   RLX: 0.180
       a = -4.000      CL = -0.4732
      Cm = -0.0597     CD =  0.05586   =>   CDf =  0.00359    CDp =  0.05226

 Side 1 forced transition at x/c =  1.0000   74
 Side 2  free  transition at x/c =  0.0501   27
 idif Ue xi dudx           1  0.17557392      4.07326221E-03   43.104004    
 Uenew xinew           2  4.36095819E-02  1.01172924E-03

  13   rms: 0.4793E+01   max: 0.1627E+02   T at   27  2   RLX: 0.047
       a = -4.000      CL = -0.6316
      Cm = -0.0590     CD =  0.05975   =>   CDf =  0.00366    CDp =  0.05608

 Side 1 forced transition at x/c =  1.0000   73
 Side 2  free  transition at x/c =  0.0497   27

  14   rms: 0.1187E+01   max: 0.1774E+02   T at   27  2   RLX: 0.045
       a = -4.000      CL = -0.6362
      Cm = -0.0626     CD =  0.04695   =>   CDf =  0.00441    CDp =  0.04255

 MRCHDU: Convergence failed at  63  side 2    Res =  0.4114E+01
 MRCHDU: Convergence failed at  64  side 2    Res =  0.8347E+01
 MRCHDU: Convergence failed at  65  side 2    Res =  0.5337E+01
 MRCHDU: Convergence failed at  66  side 2    Res =  0.1779E+01
 MRCHDU: Convergence failed at  67  side 2    Res =  0.1804E+01
 MRCHDU: Convergence failed at  68  side 2    Res =  0.2004E+01
 MRCHDU: Convergence failed at  69  side 2    Res =  0.2045E+01
 MRCHDU: Convergence failed at  70  side 2    Res =  0.1846E+01
 MRCHDU: Convergence failed at  71  side 2    Res =  0.1717E+01
 MRCHDU: Convergence failed at  72  side 2    Res =  0.3424E+01
 MRCHDU: Convergence failed at  73  side 2    Res =  0.2611E+01
 MRCHDU: Convergence failed at  74  side 2    Res =  0.2174E+01
 MRCHDU: Convergence failed at  75  side 2    Res =  0.1874E+01
 MRCHDU: Convergence failed at  76  side 2    Res =  0.1590E+01
 MRCHDU: Convergence failed at  77  side 2    Res =  0.1334E+01
 MRCHDU: Convergence failed at  78  side 2    Res =  0.1418E+01
 MRCHDU: Convergence failed at  79  side 2    Res =  0.1521E+01
 MRCHDU: Convergence failed at  80  side 2    Res =  0.1766E+01
 MRCHDU: Convergence failed at  81  side 2    Res =  0.1938E+01
 MRCHDU: Convergence failed at  82  side 2    Res =  0.2123E+01
 MRCHDU: Convergence failed at  83  side 2    Res =  0.2268E+01
 MRCHDU: Convergence failed at  84  side 2    Res =  0.2417E+01
 MRCHDU: Convergence failed at  85  side 2    Res =  0.2515E+01
 MRCHDU: Convergence failed at  86  side 2    Res =  0.2581E+01
 MRCHDU: Convergence failed at  87  side 2    Res =  0.2539E+01
 MRCHDU: Convergence failed at  88  side 2    Res =  0.2448E+01
 MRCHDU: Convergence failed at  89  side 2    Res =  0.2246E+01
 Side 1 forced transition at x/c =  1.0000   73
 Side 2  free  transition at x/c =  0.0497   27

  15   rms: 0.7478E+00   max: -.2560E+01   D at   58  2   RLX: 0.195
       a = -4.000      CL = -0.7588
      Cm = -0.0175     CD =  0.04196   =>   CDf =  0.00364    CDp =  0.03831

 Side 1 forced transition at x/c =  1.0000   73
 Side 2  free  transition at x/c =  0.0495   27

  16   rms: 0.6242E+00   max: 0.2088E+01   T at   27  2   RLX: 0.260
       a = -4.000      CL = -0.6898
      Cm = -0.0301     CD =  0.03331   =>   CDf =  0.00446    CDp =  0.02884

 Side 1 forced transition at x/c =  1.0000   73
 Side 2  free  transition at x/c =  0.0484   27

  17   rms: 0.6359E+00   max: -.2158E+01   D at   58  2   RLX: 0.232
       a = -4.000      CL = -0.6451
      Cm = -0.0399     CD =  0.03585   =>   CDf =  0.00448    CDp =  0.03137

 Side 1 forced transition at x/c =  1.0000   74
 Side 2  free  transition at x/c =  0.0475   26

  18   rms: 0.4997E+00   max: -.1874E+01   D at    2  1   RLX: 0.267
       a = -4.000      CL = -0.6008
      Cm = -0.0423     CD =  0.03477   =>   CDf =  0.00519    CDp =  0.02957

 Side 1 forced transition at x/c =  1.0000   74
 Side 2  free  transition at x/c =  0.0467   26

  19   rms: 0.3388E+00   max: -.1233E+01   D at   62  2   RLX: 0.405
       a = -4.000      CL = -0.5574
      Cm = -0.0388     CD =  0.03289   =>   CDf =  0.00607    CDp =  0.02681

 Side 1 forced transition at x/c =  1.0000   74
 Side 2  free  transition at x/c =  0.0463   26

  20   rms: 0.1902E+00   max: -.7478E+00   D at   61  2   RLX: 0.669
       a = -4.000      CL = -0.5205
      Cm = -0.0304     CD =  0.03197   =>   CDf =  0.00705    CDp =  0.02493

 Side 1 forced transition at x/c =  1.0000   74
 Side 2  free  transition at x/c =  0.0466   26

  21   rms: 0.6053E-01   max: -.2827E+00   D at   61  2
       a = -4.000      CL = -0.5060
      Cm = -0.0235     CD =  0.03224   =>   CDf =  0.00787    CDp =  0.02437

 Side 1 forced transition at x/c =  1.0000   75
 Side 2  free  transition at x/c =  0.0473   25

  22   rms: 0.3656E-02   max: -.4335E-01   T at    2  1
       a = -4.000      CL = -0.5060
      Cm = -0.0233     CD =  0.03244   =>   CDf =  0.00826    CDp =  0.02418

 Side 1 forced transition at x/c =  1.0000   75
 Side 2  free  transition at x/c =  0.0473   25

  23   rms: 0.5925E-03   max: 0.7414E-02   D at    4  1
       a = -4.000      CL = -0.5060
      Cm = -0.0233     CD =  0.03244   =>   CDf =  0.00827    CDp =  0.02417

 Side 1 forced transition at x/c =  1.0000   75
 Side 2  free  transition at x/c =  0.0473   25

  24   rms: 0.1289E-05   max: 0.1160E-04   D at    6  1
       a = -4.000      CL = -0.5060
      Cm = -0.0233     CD =  0.03244   =>   CDf =  0.00827    CDp =  0.02417
 plradd ia,ip,cpol            1           0  2.01180344E-03

 Point added to stored polar  1
 Point written to save file  nlf414f_Re150k.base.pol                         
 Dump file unspecified or not available
 Calculating wake trajectory ...
 Calculating source influence matrix ...

 Solving BL system ...

 Side 1 forced transition at x/c =  1.0000   75
 Side 2  free  transition at x/c =  0.0473   25

   1   rms: 0.1106E+00   max: 0.3281E+00   T at   25  2
       a = -3.500      CL = -0.4572
      Cm = -0.0225     CD =  0.02899   =>   CDf =  0.00827    CDp =  0.02072

 Side 1 forced transition at x/c =  1.0000   75
 Side 2  free  transition at x/c =  0.0461   25

   2   rms: 0.8874E-02   max: 0.1471E+00   D at   25  2
       a = -3.500      CL = -0.4562
      Cm = -0.0225     CD =  0.02987   =>   CDf =  0.00868    CDp =  0.02119

 Side 1 forced transition at x/c =  1.0000   75
 Side 2  free  transition at x/c =  0.0461   25

   3   rms: 0.8969E-03   max: 0.5159E-02   D at   28  2
       a = -3.500      CL = -0.4562
      Cm = -0.0225     CD =  0.02986   =>   CDf =  0.00868    CDp =  0.02118

 Side 1 forced transition at x/c =  1.0000   75
 Side 2  free  transition at x/c =  0.0461   25

   4   rms: 0.1161E-04   max: 0.7374E-04   D at   99  2
       a = -3.500      CL = -0.4562
      Cm = -0.0225     CD =  0.02985   =>   CDf =  0.00868    CDp =  0.02118
 plradd ia,ip,cpol            2           0  2.01180344E-03

 Point added to stored polar  1
 Point written to save file  nlf414f_Re150k.base.pol                         
 Dump file unspecified or not available
 Calculating wake trajectory ...
 Calculating source influence matrix ...

 Solving BL system ...

 Side 1 forced transition at x/c =  1.0000   75
 Side 2  free  transition at x/c =  0.0461   25

   1   rms: 0.9859E-01   max: -.3180E+00   D at   30  2
       a = -3.000      CL = -0.4075
      Cm = -0.0216     CD =  0.02784   =>   CDf =  0.00866    CDp =  0.01918

 Side 1 forced transition at x/c =  1.0000   76
 Side 2  free  transition at x/c =  0.0493   24

   2   rms: 0.1546E-01   max: -.8655E-01   D at   24  2
       a = -3.000      CL = -0.4079
      Cm = -0.0217     CD =  0.02862   =>   CDf =  0.00893    CDp =  0.01969

 Side 1 forced transition at x/c =  1.0000   76
 Side 2  free  transition at x/c =  0.0490   24

   3   rms: 0.1480E-02   max: 0.1129E-01   D at   25  2
       a = -3.000      CL = -0.4078
      Cm = -0.0218     CD =  0.02864   =>   CDf =  0.00895    CDp =  0.01969

 Side 1 forced transition at x/c =  1.0000   76
 Side 2  free  transition at x/c =  0.0490   24

   4   rms: 0.1862E-04   max: 0.1082E-03   D at  100  2
       a = -3.000      CL = -0.4078
      Cm = -0.0218     CD =  0.02864   =>   CDf =  0.00895    CDp =  0.01969
 plradd ia,ip,cpol            3           0  2.01180344E-03

 Point added to stored polar  1
 Point written to save file  nlf414f_Re150k.base.pol                         
 Dump file unspecified or not available
 Calculating wake trajectory ...
 Calculating source influence matrix ...

 Solving BL system ...

 Side 1 forced transition at x/c =  1.0000   76
 Side 2  free  transition at x/c =  0.0490   24

   1   rms: 0.8062E-01   max: -.5812E+00   T at   24  2   RLX: 0.860
       a = -2.500      CL = -0.3674
      Cm = -0.0210     CD =  0.02825   =>   CDf =  0.00895    CDp =  0.01929

 Side 1  free  transition at x/c =  0.9783   74
 Side 2  free  transition at x/c =  0.0525   25

   2   rms: 0.8331E-01   max: -.1260E+01   T at   74  1   RLX: 0.397
       a = -2.500      CL = -0.3530
      Cm = -0.0232     CD =  0.03075   =>   CDf =  0.00886    CDp =  0.02189

 Side 1  free  transition at x/c =  0.9786   74
 Side 2  free  transition at x/c =  0.0534   25

   3   rms: 0.7124E-01   max: -.5101E+00   D at   76  1   RLX: 0.980
       a = -2.500      CL = -0.3077
      Cm = -0.0314     CD =  0.02962   =>   CDf =  0.00884    CDp =  0.02078

 Side 1  free  transition at x/c =  0.9865   75
 Side 2  free  transition at x/c =  0.0564   25

   4   rms: 0.6940E-01   max: -.6987E+00   T at   75  1   RLX: 0.716
       a = -2.500      CL = -0.3385
      Cm = -0.0256     CD =  0.02738   =>   CDf =  0.00884    CDp =  0.01854

 Side 1  free  transition at x/c =  0.9893   75
 Side 2  free  transition at x/c =  0.0544   25

   5   rms: 0.3534E-01   max: -.5303E+00   T at   75  1   RLX: 0.943
       a = -2.500      CL = -0.3392
      Cm = -0.0253     CD =  0.02774   =>   CDf =  0.00884    CDp =  0.01890

 Side 1  free  transition at x/c =  0.9910   75
 Side 2  free  transition at x/c =  0.0544   25

   6   rms: 0.3095E-01   max: -.3718E+00   D at   75  1
       a = -2.500      CL = -0.3281
      Cm = -0.0273     CD =  0.02814   =>   CDf =  0.00884    CDp =  0.01930

 Side 1 forced transition at x/c =  1.0000   76
 Side 2  free  transition at x/c =  0.0551   25

   7   rms: 0.4692E-01   max: 0.4366E+00   D at   76  1
       a = -2.500      CL = -0.3563
      Cm = -0.0221     CD =  0.02743   =>   CDf =  0.00884    CDp =  0.01859

 Side 1  free  transition at x/c =  0.9838   75
 Side 2  free  transition at x/c =  0.0534   25

   8   rms: 0.5620E-01   max: -.5110E+00   T at   75  1   RLX: 0.979
       a = -2.500      CL = -0.3457
      Cm = -0.0241     CD =  0.02709   =>   CDf =  0.00885    CDp =  0.01824

 Side 1  free  transition at x/c =  0.9898   75
 Side 2  free  transition at x/c =  0.0540   25

   9   rms: 0.3656E-01   max: -.4511E+00   T at   75  1
       a = -2.500      CL = -0.3359
      Cm = -0.0258     CD =  0.02785   =>   CDf =  0.00883    CDp =  0.01901

 Side 1  free  transition at x/c =  0.9924   75
 Side 2  free  transition at x/c =  0.0546   25

  10   rms: 0.2618E-01   max: -.3136E+00   D at   75  1
       a = -2.500      CL = -0.3248
      Cm = -0.0279     CD =  0.02824   =>   CDf =  0.00884    CDp =  0.01940

 Side 1 forced transition at x/c =  1.0000   76
 Side 2  free  transition at x/c =  0.0553   25

  11   rms: 0.5274E-01   max: 0.4718E+00   D at   76  1
       a = -2.500      CL = -0.3564
      Cm = -0.0221     CD =  0.02747   =>   CDf =  0.00884    CDp =  0.01863

 Side 1  free  transition at x/c =  0.9838   75
 Side 2  free  transition at x/c =  0.0534   25

  12   rms: 0.5628E-01   max: -.5107E+00   T at   75  1   RLX: 0.979
       a = -2.500      CL = -0.3457
      Cm = -0.0241     CD =  0.02709   =>   CDf =  0.00885    CDp =  0.01823

 Side 1  free  transition at x/c =  0.9898   75
 Side 2  free  transition at x/c =  0.0540   25

  13   rms: 0.3655E-01   max: -.4510E+00   T at   75  1
       a = -2.500      CL = -0.3359
      Cm = -0.0258     CD =  0.02785   =>   CDf =  0.00883    CDp =  0.01902

 Side 1  free  transition at x/c =  0.9924   75
 Side 2  free  transition at x/c =  0.0546   25

  14   rms: 0.2616E-01   max: -.3137E+00   D at   75  1
       a = -2.500      CL = -0.3248
      Cm = -0.0279     CD =  0.02824   =>   CDf =  0.00884    CDp =  0.01940

 Side 1 forced transition at x/c =  1.0000   76
 Side 2  free  transition at x/c =  0.0553   25

  15   rms: 0.5274E-01   max: 0.4718E+00   D at   76  1
       a = -2.500      CL = -0.3564
      Cm = -0.0221     CD =  0.02747   =>   CDf =  0.00884    CDp =  0.01863

 Side 1  free  transition at x/c =  0.9838   75
 Side 2  free  transition at x/c =  0.0534   25

  16   rms: 0.5629E-01   max: -.5099E+00   T at   75  1   RLX: 0.981
       a = -2.500      CL = -0.3456
      Cm = -0.0242     CD =  0.02708   =>   CDf =  0.00885    CDp =  0.01823

 Side 1  free  transition at x/c =  0.9899   75
 Side 2  free  transition at x/c =  0.0540   25

  17   rms: 0.3651E-01   max: -.4521E+00   T at   75  1
       a = -2.500      CL = -0.3359
      Cm = -0.0258     CD =  0.02785   =>   CDf =  0.00883    CDp =  0.01902

 Side 1  free  transition at x/c =  0.9924   75
 Side 2  free  transition at x/c =  0.0546   25

  18   rms: 0.2618E-01   max: -.3152E+00   D at   75  1
       a = -2.500      CL = -0.3248
      Cm = -0.0278     CD =  0.02824   =>   CDf =  0.00884    CDp =  0.01940

 Side 1 forced transition at x/c =  1.0000   76
 Side 2  free  transition at x/c =  0.0553   25

  19   rms: 0.5269E-01   max: 0.4714E+00   D at   76  1
       a = -2.500      CL = -0.3564
      Cm = -0.0221     CD =  0.02747   =>   CDf =  0.00884    CDp =  0.01863

 Side 1  free  transition at x/c =  0.9838   75
 Side 2  free  transition at x/c =  0.0534   25

  20   rms: 0.5635E-01   max: -.5101E+00   T at   75  1   RLX: 0.980
       a = -2.500      CL = -0.3457
      Cm = -0.0241     CD =  0.02708   =>   CDf =  0.00885    CDp =  0.01823

 Side 1  free  transition at x/c =  0.9898   75
 Side 2  free  transition at x/c =  0.0540   25

  21   rms: 0.3653E-01   max: -.4519E+00   T at   75  1
       a = -2.500      CL = -0.3360
      Cm = -0.0258     CD =  0.02784   =>   CDf =  0.00883    CDp =  0.01901

 Side 1  free  transition at x/c =  0.9924   75
 Side 2  free  transition at x/c =  0.0546   25

  22   rms: 0.2626E-01   max: -.3151E+00   D at   75  1
       a = -2.500      CL = -0.3248
      Cm = -0.0279     CD =  0.02824   =>   CDf =  0.00884    CDp =  0.01940

 Side 1 forced transition at x/c =  1.0000   76
 Side 2  free  transition at x/c =  0.0553   25

  23   rms: 0.5271E-01   max: 0.4718E+00   D at   76  1
       a = -2.500      CL = -0.3564
      Cm = -0.0221     CD =  0.02747   =>   CDf =  0.00884    CDp =  0.01863

 Side 1  free  transition at x/c =  0.9838   75
 Side 2  free  transition at x/c =  0.0534   25

  24   rms: 0.5627E-01   max: -.5107E+00   T at   75  1   RLX: 0.979
       a = -2.500      CL = -0.3457
      Cm = -0.0241     CD =  0.02709   =>   CDf =  0.00885    CDp =  0.01824

 Side 1  free  transition at x/c =  0.9898   75
 Side 2  free  transition at x/c =  0.0540   25

  25   rms: 0.3654E-01   max: -.4511E+00   T at   75  1
       a = -2.500      CL = -0.3359
      Cm = -0.0258     CD =  0.02785   =>   CDf =  0.00883    CDp =  0.01902

 Side 1  free  transition at x/c =  0.9924   75
 Side 2  free  transition at x/c =  0.0546   25

  26   rms: 0.2616E-01   max: -.3138E+00   D at   75  1
       a = -2.500      CL = -0.3248
      Cm = -0.0279     CD =  0.02824   =>   CDf =  0.00884    CDp =  0.01940

 Side 1 forced transition at x/c =  1.0000   76
 Side 2  free  transition at x/c =  0.0553   25

  27   rms: 0.5276E-01   max: 0.4720E+00   D at   76  1
       a = -2.500      CL = -0.3564
      Cm = -0.0221     CD =  0.02747   =>   CDf =  0.00884    CDp =  0.01863

 Side 1  free  transition at x/c =  0.9838   75
 Side 2  free  transition at x/c =  0.0534   25

  28   rms: 0.5640E-01   max: -.5101E+00   T at   75  1   RLX: 0.980
       a = -2.500      CL = -0.3457
      Cm = -0.0241     CD =  0.02707   =>   CDf =  0.00885    CDp =  0.01822

 Side 1  free  transition at x/c =  0.9898   75
 Side 2  free  transition at x/c =  0.0540   25

  29   rms: 0.3656E-01   max: -.4524E+00   T at   75  1
       a = -2.500      CL = -0.3360
      Cm = -0.0258     CD =  0.02785   =>   CDf =  0.00883    CDp =  0.01901

 Side 1  free  transition at x/c =  0.9924   75
 Side 2  free  transition at x/c =  0.0546   25

  30   rms: 0.2623E-01   max: -.3155E+00   D at   75  1
       a = -2.500      CL = -0.3249
      Cm = -0.0278     CD =  0.02824   =>   CDf =  0.00884    CDp =  0.01940

 Side 1 forced transition at x/c =  1.0000   76
 Side 2  free  transition at x/c =  0.0553   25

  31   rms: 0.5263E-01   max: 0.4711E+00   D at   76  1
       a = -2.500      CL = -0.3564
      Cm = -0.0221     CD =  0.02747   =>   CDf =  0.00884    CDp =  0.01863

 Side 1  free  transition at x/c =  0.9838   75
 Side 2  free  transition at x/c =  0.0534   25

  32   rms: 0.5633E-01   max: -.5101E+00   T at   75  1   RLX: 0.980
       a = -2.500      CL = -0.3457
      Cm = -0.0241     CD =  0.02708   =>   CDf =  0.00885    CDp =  0.01823

 Side 1  free  transition at x/c =  0.9898   75
 Side 2  free  transition at x/c =  0.0540   25

  33   rms: 0.3654E-01   max: -.4523E+00   T at   75  1
       a = -2.500      CL = -0.3359
      Cm = -0.0258     CD =  0.02785   =>   CDf =  0.00883    CDp =  0.01901

 Side 1  free  transition at x/c =  0.9924   75
 Side 2  free  transition at x/c =  0.0546   25

  34   rms: 0.2620E-01   max: -.3154E+00   D at   75  1
       a = -2.500      CL = -0.3249
      Cm = -0.0278     CD =  0.02824   =>   CDf =  0.00884    CDp =  0.01940

 Side 1 forced transition at x/c =  1.0000   76
 Side 2  free  transition at x/c =  0.0553   25

  35   rms: 0.5265E-01   max: 0.4713E+00   D at   76  1
       a = -2.500      CL = -0.3564
      Cm = -0.0221     CD =  0.02747   =>   CDf =  0.00884    CDp =  0.01863

 Side 1  free  transition at x/c =  0.9838   75
 Side 2  free  transition at x/c =  0.0534   25

  36   rms: 0.5633E-01   max: -.5102E+00   T at   75  1   RLX: 0.980
       a = -2.500      CL = -0.3457
      Cm = -0.0241     CD =  0.02708   =>   CDf =  0.00885    CDp =  0.01823

 Side 1  free  transition at x/c =  0.9898   75
 Side 2  free  transition at x/c =  0.0540   25

  37   rms: 0.3655E-01   max: -.4522E+00   T at   75  1
       a = -2.500      CL = -0.3359
      Cm = -0.0258     CD =  0.02785   =>   CDf =  0.00883    CDp =  0.01901

 Side 1  free  transition at x/c =  0.9924   75
 Side 2  free  transition at x/c =  0.0546   25

  38   rms: 0.2619E-01   max: -.3153E+00   D at   75  1
       a = -2.500      CL = -0.3249
      Cm = -0.0278     CD =  0.02824   =>   CDf =  0.00884    CDp =  0.01940

 Side 1 forced transition at x/c =  1.0000   76
 Side 2  free  transition at x/c =  0.0553   25

  39   rms: 0.5261E-01   max: 0.4710E+00   D at   76  1
       a = -2.500      CL = -0.3564
      Cm = -0.0221     CD =  0.02747   =>   CDf =  0.00884    CDp =  0.01863

 Side 1  free  transition at x/c =  0.9838   75
 Side 2  free  transition at x/c =  0.0534   25

  40   rms: 0.5628E-01   max: -.5105E+00   T at   75  1   RLX: 0.979
       a = -2.500      CL = -0.3457
      Cm = -0.0241     CD =  0.02708   =>   CDf =  0.00885    CDp =  0.01823

 Side 1  free  transition at x/c =  0.9898   75
 Side 2  free  transition at x/c =  0.0540   25

  41   rms: 0.3656E-01   max: -.4512E+00   T at   75  1
       a = -2.500      CL = -0.3359
      Cm = -0.0258     CD =  0.02785   =>   CDf =  0.00883    CDp =  0.01902

 Side 1  free  transition at x/c =  0.9924   75
 Side 2  free  transition at x/c =  0.0546   25

  42   rms: 0.2618E-01   max: -.3140E+00   D at   75  1
       a = -2.500      CL = -0.3248
      Cm = -0.0279     CD =  0.02824   =>   CDf =  0.00884    CDp =  0.01940

 Side 1 forced transition at x/c =  1.0000   76
 Side 2  free  transition at x/c =  0.0553   25

  43   rms: 0.5275E-01   max: 0.4720E+00   D at   76  1
       a = -2.500      CL = -0.3564
      Cm = -0.0221     CD =  0.02747   =>   CDf =  0.00884    CDp =  0.01863

 Side 1  free  transition at x/c =  0.9838   75
 Side 2  free  transition at x/c =  0.0534   25

  44   rms: 0.5632E-01   max: -.5101E+00   T at   75  1   RLX: 0.980
       a = -2.500      CL = -0.3457
      Cm = -0.0241     CD =  0.02708   =>   CDf =  0.00885    CDp =  0.01823

 Side 1  free  transition at x/c =  0.9898   75
 Side 2  free  transition at x/c =  0.0540   25

  45   rms: 0.3652E-01   max: -.4519E+00   T at   75  1
       a = -2.500      CL = -0.3359
      Cm = -0.0258     CD =  0.02785   =>   CDf =  0.00883    CDp =  0.01901

 Side 1  free  transition at x/c =  0.9924   75
 Side 2  free  transition at x/c =  0.0546   25

  46   rms: 0.2621E-01   max: -.3151E+00   D at   75  1
       a = -2.500      CL = -0.3248
      Cm = -0.0278     CD =  0.02824   =>   CDf =  0.00884    CDp =  0.01940

 Side 1 forced transition at x/c =  1.0000   76
 Side 2  free  transition at x/c =  0.0553   25

  47   rms: 0.5269E-01   max: 0.4715E+00   D at   76  1
       a = -2.500      CL = -0.3564
      Cm = -0.0221     CD =  0.02747   =>   CDf =  0.00884    CDp =  0.01863

 Side 1  free  transition at x/c =  0.9838   75
 Side 2  free  transition at x/c =  0.0534   25

  48   rms: 0.5633E-01   max: -.5102E+00   T at   75  1   RLX: 0.980
       a = -2.500      CL = -0.3457
      Cm = -0.0241     CD =  0.02708   =>   CDf =  0.00885    CDp =  0.01823

 Side 1  free  transition at x/c =  0.9898   75
 Side 2  free  transition at x/c =  0.0540   25

  49   rms: 0.3653E-01   max: -.4518E+00   T at   75  1
       a = -2.500      CL = -0.3359
      Cm = -0.0258     CD =  0.02785   =>   CDf =  0.00883    CDp =  0.01901

 MRCHDU: Convergence failed at  75  side 1    Res =  0.5310E-05
 Side 1  free  transition at x/c =  0.9924   75
 Side 2  free  transition at x/c =  0.0546   25

  50   rms: 0.2622E-01   max: -.3148E+00   D at   75  1
       a = -2.500      CL = -0.3248
      Cm = -0.0279     CD =  0.02824   =>   CDf =  0.00884    CDp =  0.01940

 Side 1 forced transition at x/c =  1.0000   76
 Side 2  free  transition at x/c =  0.0553   25

  51   rms: 0.5271E-01   max: 0.4717E+00   D at   76  1
       a = -2.500      CL = -0.3564
      Cm = -0.0221     CD =  0.02747   =>   CDf =  0.00884    CDp =  0.01863

 Side 1  free  transition at x/c =  0.9838   75
 Side 2  free  transition at x/c =  0.0534   25

  52   rms: 0.5631E-01   max: -.5102E+00   T at   75  1   RLX: 0.980
       a = -2.500      CL = -0.3457
      Cm = -0.0241     CD =  0.02708   =>   CDf =  0.00885    CDp =  0.01823

 Side 1  free  transition at x/c =  0.9898   75
 Side 2  free  transition at x/c =  0.0540   25

  53   rms: 0.3654E-01   max: -.4515E+00   T at   75  1
       a = -2.500      CL = -0.3359
      Cm = -0.0258     CD =  0.02785   =>   CDf =  0.00883    CDp =  0.01901

 Side 1  free  transition at x/c =  0.9924   75
 Side 2  free  transition at x/c =  0.0546   25

  54   rms: 0.2619E-01   max: -.3145E+00   D at   75  1
       a = -2.500      CL = -0.3248
      Cm = -0.0279     CD =  0.02824   =>   CDf =  0.00884    CDp =  0.01940

 Side 1 forced transition at x/c =  1.0000   76
 Side 2  free  transition at x/c =  0.0553   25

  55   rms: 0.5272E-01   max: 0.4718E+00   D at   76  1
       a = -2.500      CL = -0.3564
      Cm = -0.0221     CD =  0.02747   =>   CDf =  0.00884    CDp =  0.01863

 Side 1  free  transition at x/c =  0.9838   75
 Side 2  free  transition at x/c =  0.0534   25

  56   rms: 0.5632E-01   max: -.5097E+00   T at   75  1   RLX: 0.981
       a = -2.500      CL = -0.3457
      Cm = -0.0241     CD =  0.02708   =>   CDf =  0.00885    CDp =  0.01822

 Side 1  free  transition at x/c =  0.9899   75
 Side 2  free  transition at x/c =  0.0540   25

  57   rms: 0.3652E-01   max: -.4523E+00   T at   75  1
       a = -2.500      CL = -0.3359
      Cm = -0.0258     CD =  0.02785   =>   CDf =  0.00883    CDp =  0.01902

 Side 1  free  transition at x/c =  0.9924   75
 Side 2  free  transition at x/c =  0.0546   25

  58   rms: 0.2619E-01   max: -.3156E+00   D at   75  1
       a = -2.500      CL = -0.3249
      Cm = -0.0278     CD =  0.02824   =>   CDf =  0.00884    CDp =  0.01940

 Side 1 forced transition at x/c =  1.0000   76
 Side 2  free  transition at x/c =  0.0553   25

  59   rms: 0.5264E-01   max: 0.4712E+00   D at   76  1
       a = -2.500      CL = -0.3564
      Cm = -0.0221     CD =  0.02747   =>   CDf =  0.00884    CDp =  0.01863

 Side 1  free  transition at x/c =  0.9838   75
 Side 2  free  transition at x/c =  0.0534   25

  60   rms: 0.5633E-01   max: -.5101E+00   T at   75  1   RLX: 0.980
       a = -2.500      CL = -0.3457
      Cm = -0.0241     CD =  0.02708   =>   CDf =  0.00885    CDp =  0.01823

 Side 1  free  transition at x/c =  0.9898   75
 Side 2  free  transition at x/c =  0.0540   25

  61   rms: 0.3653E-01   max: -.4519E+00   T at   75  1
       a = -2.500      CL = -0.3359
      Cm = -0.0258     CD =  0.02785   =>   CDf =  0.00883    CDp =  0.01901

 Side 1  free  transition at x/c =  0.9924   75
 Side 2  free  transition at x/c =  0.0546   25

  62   rms: 0.2620E-01   max: -.3151E+00   D at   75  1
       a = -2.500      CL = -0.3248
      Cm = -0.0278     CD =  0.02824   =>   CDf =  0.00884    CDp =  0.01940

 Side 1 forced transition at x/c =  1.0000   76
 Side 2  free  transition at x/c =  0.0553   25

  63   rms: 0.5268E-01   max: 0.4715E+00   D at   76  1
       a = -2.500      CL = -0.3564
      Cm = -0.0221     CD =  0.02747   =>   CDf =  0.00884    CDp =  0.01863

 Side 1  free  transition at x/c =  0.9838   75
 Side 2  free  transition at x/c =  0.0534   25

  64   rms: 0.5636E-01   max: -.5100E+00   T at   75  1   RLX: 0.980
       a = -2.500      CL = -0.3457
      Cm = -0.0241     CD =  0.02708   =>   CDf =  0.00885    CDp =  0.01822

 Side 1  free  transition at x/c =  0.9898   75
 Side 2  free  transition at x/c =  0.0540   25

  65   rms: 0.3654E-01   max: -.4527E+00   T at   75  1
       a = -2.500      CL = -0.3360
      Cm = -0.0258     CD =  0.02785   =>   CDf =  0.00883    CDp =  0.01901

 Side 1  free  transition at x/c =  0.9924   75
 Side 2  free  transition at x/c =  0.0546   25

  66   rms: 0.2622E-01   max: -.3160E+00   D at   75  1
       a = -2.500      CL = -0.3249
      Cm = -0.0278     CD =  0.02824   =>   CDf =  0.00884    CDp =  0.01940

 Side 1 forced transition at x/c =  1.0000   76
 Side 2  free  transition at x/c =  0.0553   25

  67   rms: 0.5260E-01   max: 0.4709E+00   D at   76  1
       a = -2.500      CL = -0.3564
      Cm = -0.0221     CD =  0.02747   =>   CDf =  0.00884    CDp =  0.01863

 Side 1  free  transition at x/c =  0.9838   75
 Side 2  free  transition at x/c =  0.0534   25

  68   rms: 0.5630E-01   max: -.5101E+00   T at   75  1   RLX: 0.980
       a = -2.500      CL = -0.3457
      Cm = -0.0241     CD =  0.02708   =>   CDf =  0.00885    CDp =  0.01823

 Side 1  free  transition at x/c =  0.9898   75
 Side 2  free  transition at x/c =  0.0540   25

  69   rms: 0.3654E-01   max: -.4518E+00   T at   75  1
       a = -2.500      CL = -0.3359
      Cm = -0.0258     CD =  0.02785   =>   CDf =  0.00883    CDp =  0.01902

 Side 1  free  transition at x/c =  0.9924   75
 Side 2  free  transition at x/c =  0.0546   25

  70   rms: 0.2619E-01   max: -.3148E+00   D at   75  1
       a = -2.500      CL = -0.3248
      Cm = -0.0279     CD =  0.02824   =>   CDf =  0.00884    CDp =  0.01940

 Side 1 forced transition at x/c =  1.0000   76
 Side 2  free  transition at x/c =  0.0553   25

  71   rms: 0.5271E-01   max: 0.4717E+00   D at   76  1
       a = -2.500      CL = -0.3564
      Cm = -0.0221     CD =  0.02747   =>   CDf =  0.00884    CDp =  0.01863

 Side 1  free  transition at x/c =  0.9838   75
 Side 2  free  transition at x/c =  0.0534   25

  72   rms: 0.5630E-01   max: -.5099E+00   T at   75  1   RLX: 0.981
       a = -2.500      CL = -0.3457
      Cm = -0.0241     CD =  0.02708   =>   CDf =  0.00885    CDp =  0.01823

 Side 1  free  transition at x/c =  0.9898   75
 Side 2  free  transition at x/c =  0.0540   25

  73   rms: 0.3654E-01   max: -.4523E+00   T at   75  1
       a = -2.500      CL = -0.3359
      Cm = -0.0258     CD =  0.02785   =>   CDf =  0.00883    CDp =  0.01902

 Side 1  free  transition at x/c =  0.9924   75
 Side 2  free  transition at x/c =  0.0546   25

  74   rms: 0.2617E-01   max: -.3154E+00   D at   75  1
       a = -2.500      CL = -0.3249
      Cm = -0.0278     CD =  0.02824   =>   CDf =  0.00884    CDp =  0.01940

 Side 1 forced transition at x/c =  1.0000   76
 Side 2  free  transition at x/c =  0.0553   25

  75   rms: 0.5266E-01   max: 0.4714E+00   D at   76  1
       a = -2.500      CL = -0.3564
      Cm = -0.0221     CD =  0.02747   =>   CDf =  0.00884    CDp =  0.01863

 Side 1  free  transition at x/c =  0.9838   75
 Side 2  free  transition at x/c =  0.0534   25

  76   rms: 0.5630E-01   max: -.5107E+00   T at   75  1   RLX: 0.979
       a = -2.500      CL = -0.3457
      Cm = -0.0241     CD =  0.02709   =>   CDf =  0.00885    CDp =  0.01824

 Side 1  free  transition at x/c =  0.9898   75
 Side 2  free  transition at x/c =  0.0540   25

  77   rms: 0.3656E-01   max: -.4518E+00   T at   75  1
       a = -2.500      CL = -0.3359
      Cm = -0.0258     CD =  0.02785   =>   CDf =  0.00883    CDp =  0.01902

 Side 1  free  transition at x/c =  0.9924   75
 Side 2  free  transition at x/c =  0.0546   25

  78   rms: 0.2619E-01   max: -.3145E+00   D at   75  1
       a = -2.500      CL = -0.3248
      Cm = -0.0279     CD =  0.02824   =>   CDf =  0.00884    CDp =  0.01940

 Side 1 forced transition at x/c =  1.0000   76
 Side 2  free  transition at x/c =  0.0553   25

  79   rms: 0.5273E-01   max: 0.4719E+00   D at   76  1
       a = -2.500      CL = -0.3564
      Cm = -0.0221     CD =  0.02747   =>   CDf =  0.00884    CDp =  0.01863

 Side 1  free  transition at x/c =  0.9838   75
 Side 2  free  transition at x/c =  0.0534   25

  80   rms: 0.5626E-01   max: -.5102E+00   T at   75  1   RLX: 0.980
       a = -2.500      CL = -0.3457
      Cm = -0.0241     CD =  0.02708   =>   CDf =  0.00885    CDp =  0.01823

 Side 1  free  transition at x/c =  0.9899   75
 Side 2  free  transition at x/c =  0.0540   25

  81   rms: 0.3651E-01   max: -.4511E+00   T at   75  1
       a = -2.500      CL = -0.3359
      Cm = -0.0258     CD =  0.02785   =>   CDf =  0.00883    CDp =  0.01902

 Side 1  free  transition at x/c =  0.9924   75
 Side 2  free  transition at x/c =  0.0546   25

  82   rms: 0.2618E-01   max: -.3141E+00   D at   75  1
       a = -2.500      CL = -0.3248
      Cm = -0.0279     CD =  0.02824   =>   CDf =  0.00884    CDp =  0.01940

 Side 1 forced transition at x/c =  1.0000   76
 Side 2  free  transition at x/c =  0.0553   25

  83   rms: 0.5276E-01   max: 0.4721E+00   D at   76  1
       a = -2.500      CL = -0.3564
      Cm = -0.0221     CD =  0.02747   =>   CDf =  0.00884    CDp =  0.01863

 Side 1  free  transition at x/c =  0.9838   75
 Side 2  free  transition at x/c =  0.0534   25

  84   rms: 0.5633E-01   max: -.5101E+00   T at   75  1   RLX: 0.980
       a = -2.500      CL = -0.3457
      Cm = -0.0241     CD =  0.02708   =>   CDf =  0.00885    CDp =  0.01822

 Side 1  free  transition at x/c =  0.9898   75
 Side 2  free  transition at x/c =  0.0540   25

  85   rms: 0.3654E-01   max: -.4519E+00   T at   75  1
       a = -2.500      CL = -0.3359
      Cm = -0.0258     CD =  0.02785   =>   CDf =  0.00883    CDp =  0.01901

 Side 1  free  transition at x/c =  0.9924   75
 Side 2  free  transition at x/c =  0.0546   25

  86   rms: 0.2621E-01   max: -.3150E+00   D at   75  1
       a = -2.500      CL = -0.3248
      Cm = -0.0279     CD =  0.02824   =>   CDf =  0.00884    CDp =  0.01940

 Side 1 forced transition at x/c =  1.0000   76
 Side 2  free  transition at x/c =  0.0553   25

  87   rms: 0.5271E-01   max: 0.4717E+00   D at   76  1
       a = -2.500      CL = -0.3564
      Cm = -0.0221     CD =  0.02747   =>   CDf =  0.00884    CDp =  0.01863

 Side 1  free  transition at x/c =  0.9838   75
 Side 2  free  transition at x/c =  0.0534   25

  88   rms: 0.5634E-01   max: -.5100E+00   T at   75  1   RLX: 0.980
       a = -2.500      CL = -0.3457
      Cm = -0.0241     CD =  0.02708   =>   CDf =  0.00885    CDp =  0.01823

 Side 1  free  transition at x/c =  0.9898   75
 Side 2  free  transition at x/c =  0.0540   25

  89   rms: 0.3654E-01   max: -.4523E+00   T at   75  1
       a = -2.500      CL = -0.3359
      Cm = -0.0258     CD =  0.02785   =>   CDf =  0.00883    CDp =  0.01901

 Side 1  free  transition at x/c =  0.9924   75
 Side 2  free  transition at x/c =  0.0546   25

  90   rms: 0.2619E-01   max: -.3154E+00   D at   75  1
       a = -2.500      CL = -0.3249
      Cm = -0.0278     CD =  0.02824   =>   CDf =  0.00884    CDp =  0.01940

 Side 1 forced transition at x/c =  1.0000   76
 Side 2  free  transition at x/c =  0.0553   25

  91   rms: 0.5264E-01   max: 0.4711E+00   D at   76  1
       a = -2.500      CL = -0.3564
      Cm = -0.0221     CD =  0.02747   =>   CDf =  0.00884    CDp =  0.01863

 Side 1  free  transition at x/c =  0.9838   75
 Side 2  free  transition at x/c =  0.0534   25

  92   rms: 0.5631E-01   max: -.5107E+00   T at   75  1   RLX: 0.979
       a = -2.500      CL = -0.3457
      Cm = -0.0241     CD =  0.02709   =>   CDf =  0.00885    CDp =  0.01823

 Side 1  free  transition at x/c =  0.9898   75
 Side 2  free  transition at x/c =  0.0540   25

  93   rms: 0.3657E-01   max: -.4517E+00   T at   75  1
       a = -2.500      CL = -0.3359
      Cm = -0.0258     CD =  0.02785   =>   CDf =  0.00883    CDp =  0.01901

 Side 1  free  transition at x/c =  0.9924   75
 Side 2  free  transition at x/c =  0.0546   25

  94   rms: 0.2620E-01   max: -.3146E+00   D at   75  1
       a = -2.500      CL = -0.3248
      Cm = -0.0279     CD =  0.02824   =>   CDf =  0.00884    CDp =  0.01940

 Side 1 forced transition at x/c =  1.0000   76
 Side 2  free  transition at x/c =  0.0553   25

  95   rms: 0.5273E-01   max: 0.4718E+00   D at   76  1
       a = -2.500      CL = -0.3564
      Cm = -0.0221     CD =  0.02747   =>   CDf =  0.00884    CDp =  0.01863

 Side 1  free  transition at x/c =  0.9838   75
 Side 2  free  transition at x/c =  0.0534   25

  96   rms: 0.5630E-01   max: -.5099E+00   T at   75  1   RLX: 0.981
       a = -2.500      CL = -0.3457
      Cm = -0.0241     CD =  0.02708   =>   CDf =  0.00885    CDp =  0.01823

 Side 1  free  transition at x/c =  0.9898   75
 Side 2  free  transition at x/c =  0.0540   25

  97   rms: 0.3653E-01   max: -.4520E+00   T at   75  1
       a = -2.500      CL = -0.3359
      Cm = -0.0258     CD =  0.02785   =>   CDf =  0.00883    CDp =  0.01902

 Side 1  free  transition at x/c =  0.9924   75
 Side 2  free  transition at x/c =  0.0546   25

  98   rms: 0.2618E-01   max: -.3152E+00   D at   75  1
       a = -2.500      CL = -0.3249
      Cm = -0.0278     CD =  0.02824   =>   CDf =  0.00884    CDp =  0.01940

 Side 1 forced transition at x/c =  1.0000   76
 Side 2  free  transition at x/c =  0.0553   25

  99   rms: 0.5267E-01   max: 0.4713E+00   D at   76  1
       a = -2.500      CL = -0.3564
      Cm = -0.0221     CD =  0.02747   =>   CDf =  0.00884    CDp =  0.01863

 Side 1  free  transition at x/c =  0.9838   75
 Side 2  free  transition at x/c =  0.0534   25

 100   rms: 0.5633E-01   max: -.5106E+00   T at   75  1   RLX: 0.979
       a = -2.500      CL = -0.3457
      Cm = -0.0241     CD =  0.02709   =>   CDf =  0.00885    CDp =  0.01823

 Side 1  free  transition at x/c =  0.9898   75
 Side 2  free  transition at x/c =  0.0540   25

 101   rms: 0.3656E-01   max: -.4520E+00   T at   75  1
       a = -2.500      CL = -0.3359
      Cm = -0.0258     CD =  0.02785   =>   CDf =  0.00883    CDp =  0.01901

 Side 1  free  transition at x/c =  0.9924   75
 Side 2  free  transition at x/c =  0.0546   25

 102   rms: 0.2620E-01   max: -.3149E+00   D at   75  1
       a = -2.500      CL = -0.3248
      Cm = -0.0278     CD =  0.02824   =>   CDf =  0.00884    CDp =  0.01940

 Side 1 forced transition at x/c =  1.0000   76
 Side 2  free  transition at x/c =  0.0553   25

 103   rms: 0.5268E-01   max: 0.4715E+00   D at   76  1
       a = -2.500      CL = -0.3564
      Cm = -0.0221     CD =  0.02747   =>   CDf =  0.00884    CDp =  0.01863

 Side 1  free  transition at x/c =  0.9838   75
 Side 2  free  transition at x/c =  0.0534   25

 104   rms: 0.5637E-01   max: -.5104E+00   T at   75  1   RLX: 0.980
       a = -2.500      CL = -0.3457
      Cm = -0.0241     CD =  0.02708   =>   CDf =  0.00885    CDp =  0.01823

 Side 1  free  transition at x/c =  0.9898   75
 Side 2  free  transition at x/c =  0.0540   25

 105   rms: 0.3656E-01   max: -.4523E+00   T at   75  1
       a = -2.500      CL = -0.3360
      Cm = -0.0258     CD =  0.02784   =>   CDf =  0.00883    CDp =  0.01901

 Side 1  free  transition at x/c =  0.9924   75
 Side 2  free  transition at x/c =  0.0546   25

 106   rms: 0.2622E-01   max: -.3153E+00   D at   75  1
       a = -2.500      CL = -0.3249
      Cm = -0.0278     CD =  0.02824   =>   CDf =  0.00884    CDp =  0.01940

 Side 1 forced transition at x/c =  1.0000   76
 Side 2  free  transition at x/c =  0.0553   25

 107   rms: 0.5262E-01   max: 0.4711E+00   D at   76  1
       a = -2.500      CL = -0.3564
      Cm = -0.0221     CD =  0.02747   =>   CDf =  0.00884    CDp =  0.01863

 Side 1  free  transition at x/c =  0.9838   75
 Side 2  free  transition at x/c =  0.0534   25

 108   rms: 0.5628E-01   max: -.5104E+00   T at   75  1   RLX: 0.980
       a = -2.500      CL = -0.3457
      Cm = -0.0241     CD =  0.02708   =>   CDf =  0.00885    CDp =  0.01823

 Side 1  free  transition at x/c =  0.9898   75
 Side 2  free  transition at x/c =  0.0540   25

 109   rms: 0.3656E-01   max: -.4519E+00   T at   75  1
       a = -2.500      CL = -0.3359
      Cm = -0.0258     CD =  0.02785   =>   CDf =  0.00883    CDp =  0.01902

 Side 1  free  transition at x/c =  0.9924   75
 Side 2  free  transition at x/c =  0.0546   25

 110   rms: 0.2615E-01   max: -.3148E+00   D at   75  1
       a = -2.500      CL = -0.3248
      Cm = -0.0279     CD =  0.02824   =>   CDf =  0.00884    CDp =  0.01940

 Side 1 forced transition at x/c =  1.0000   76
 Side 2  free  transition at x/c =  0.0553   25

 111   rms: 0.5271E-01   max: 0.4716E+00   D at   76  1
       a = -2.500      CL = -0.3564
      Cm = -0.0221     CD =  0.02747   =>   CDf =  0.00884    CDp =  0.01863

 Side 1  free  transition at x/c =  0.9838   75
 Side 2  free  transition at x/c =  0.0534   25

 112   rms: 0.5633E-01   max: -.5105E+00   T at   75  1   RLX: 0.979
       a = -2.500      CL = -0.3457
      Cm = -0.0241     CD =  0.02709   =>   CDf =  0.00885    CDp =  0.01823

 Side 1  free  transition at x/c =  0.9898   75
 Side 2  free  transition at x/c =  0.0540   25

 113   rms: 0.3655E-01   max: -.4519E+00   T at   75  1
       a = -2.500      CL = -0.3359
      Cm = -0.0258     CD =  0.02785   =>   CDf =  0.00883    CDp =  0.01901

 Side 1  free  transition at x/c =  0.9924   75
 Side 2  free  transition at x/c =  0.0546   25

 114   rms: 0.2620E-01   max: -.3148E+00   D at   75  1
       a = -2.500      CL = -0.3248
      Cm = -0.0279     CD =  0.02824   =>   CDf =  0.00884    CDp =  0.01940

 Side 1 forced transition at x/c =  1.0000   76
 Side 2  free  transition at x/c =  0.0553   25

 115   rms: 0.5270E-01   max: 0.4716E+00   D at   76  1
       a = -2.500      CL = -0.3564
      Cm = -0.0221     CD =  0.02747   =>   CDf =  0.00884    CDp =  0.01863

 Side 1  free  transition at x/c =  0.9838   75
 Side 2  free  transition at x/c =  0.0534   25

 116   rms: 0.5630E-01   max: -.5101E+00   T at   75  1   RLX: 0.980
       a = -2.500      CL = -0.3457
      Cm = -0.0241     CD =  0.02708   =>   CDf =  0.00885    CDp =  0.01823

 Side 1  free  transition at x/c =  0.9898   75
 Side 2  free  transition at x/c =  0.0540   25

 117   rms: 0.3653E-01   max: -.4518E+00   T at   75  1
       a = -2.500      CL = -0.3359
      Cm = -0.0258     CD =  0.02785   =>   CDf =  0.00883    CDp =  0.01901

 Side 1  free  transition at x/c =  0.9924   75
 Side 2  free  transition at x/c =  0.0546   25

 118   rms: 0.2618E-01   max: -.3148E+00   D at   75  1
       a = -2.500      CL = -0.3248
      Cm = -0.0278     CD =  0.02824   =>   CDf =  0.00884    CDp =  0.01940

 Side 1 forced transition at x/c =  1.0000   76
 Side 2  free  transition at x/c =  0.0553   25

 119   rms: 0.5268E-01   max: 0.4714E+00   D at   76  1
       a = -2.500      CL = -0.3564
      Cm = -0.0221     CD =  0.02747   =>   CDf =  0.00884    CDp =  0.01863

 Side 1  free  transition at x/c =  0.9838   75
 Side 2  free  transition at x/c =  0.0534   25

 120   rms: 0.5639E-01   max: -.5106E+00   T at   75  1   RLX: 0.979
       a = -2.500      CL = -0.3457
      Cm = -0.0241     CD =  0.02708   =>   CDf =  0.00885    CDp =  0.01823

 Side 1  free  transition at x/c =  0.9898   75
 Side 2  free  transition at x/c =  0.0540   25

 121   rms: 0.3658E-01   max: -.4523E+00   T at   75  1
       a = -2.500      CL = -0.3360
      Cm = -0.0258     CD =  0.02785   =>   CDf =  0.00883    CDp =  0.01901

 Side 1  free  transition at x/c =  0.9924   75
 Side 2  free  transition at x/c =  0.0546   25

 122   rms: 0.2626E-01   max: -.3152E+00   D at   75  1
       a = -2.500      CL = -0.3248
      Cm = -0.0278     CD =  0.02824   =>   CDf =  0.00884    CDp =  0.01940

 Side 1 forced transition at x/c =  1.0000   76
 Side 2  free  transition at x/c =  0.0553   25

 123   rms: 0.5270E-01   max: 0.4718E+00   D at   76  1
       a = -2.500      CL = -0.3564
      Cm = -0.0221     CD =  0.02747   =>   CDf =  0.00884    CDp =  0.01863

 Side 1  free  transition at x/c =  0.9838   75
 Side 2  free  transition at x/c =  0.0534   25

 124   rms: 0.5633E-01   max: -.5102E+00   T at   75  1   RLX: 0.980
       a = -2.500      CL = -0.3457
      Cm = -0.0241     CD =  0.02708   =>   CDf =  0.00885    CDp =  0.01823

 Side 1  free  transition at x/c =  0.9898   75
 Side 2  free  transition at x/c =  0.0540   25

 125   rms: 0.3655E-01   max: -.4520E+00   T at   75  1
       a = -2.500      CL = -0.3359
      Cm = -0.0258     CD =  0.02785   =>   CDf =  0.00883    CDp =  0.01901

 Side 1  free  transition at x/c =  0.9924   75
 Side 2  free  transition at x/c =  0.0546   25

 126   rms: 0.2620E-01   max: -.3150E+00   D at   75  1
       a = -2.500      CL = -0.3248
      Cm = -0.0279     CD =  0.02824   =>   CDf =  0.00884    CDp =  0.01940

 Side 1 forced transition at x/c =  1.0000   76
 Side 2  free  transition at x/c =  0.0553   25

 127   rms: 0.5270E-01   max: 0.4716E+00   D at   76  1
       a = -2.500      CL = -0.3564
      Cm = -0.0221     CD =  0.02747   =>   CDf =  0.00884    CDp =  0.01863

 Side 1  free  transition at x/c =  0.9838   75
 Side 2  free  transition at x/c =  0.0534   25

 128   rms: 0.5636E-01   max: -.5106E+00   T at   75  1   RLX: 0.979
       a = -2.500      CL = -0.3457
      Cm = -0.0241     CD =  0.02708   =>   CDf =  0.00885    CDp =  0.01823

 Side 1  free  transition at x/c =  0.9898   75
 Side 2  free  transition at x/c =  0.0540   25

 129   rms: 0.3658E-01   max: -.4520E+00   T at   75  1
       a = -2.500      CL = -0.3359
      Cm = -0.0258     CD =  0.02785   =>   CDf =  0.00883    CDp =  0.01901

 Side 1  free  transition at x/c =  0.9924   75
 Side 2  free  transition at x/c =  0.0546   25

 130   rms: 0.2622E-01   max: -.3149E+00   D at   75  1
       a = -2.500      CL = -0.3249
      Cm = -0.0278     CD =  0.02824   =>   CDf =  0.00884    CDp =  0.01940

 Side 1 forced transition at x/c =  1.0000   76
 Side 2  free  transition at x/c =  0.0553   25

 131   rms: 0.5268E-01   max: 0.4715E+00   D at   76  1
       a = -2.500      CL = -0.3564
      Cm = -0.0221     CD =  0.02747   =>   CDf =  0.00884    CDp =  0.01863

 Side 1  free  transition at x/c =  0.9838   75
 Side 2  free  transition at x/c =  0.0534   25

 132   rms: 0.5633E-01   max: -.5103E+00   T at   75  1   RLX: 0.980
       a = -2.500      CL = -0.3457
      Cm = -0.0241     CD =  0.02708   =>   CDf =  0.00885    CDp =  0.01823

 Side 1  free  transition at x/c =  0.9898   75
 Side 2  free  transition at x/c =  0.0540   25

 133   rms: 0.3654E-01   max: -.4521E+00   T at   75  1
       a = -2.500      CL = -0.3359
      Cm = -0.0258     CD =  0.02785   =>   CDf =  0.00883    CDp =  0.01901

 Side 1  free  transition at x/c =  0.9924   75
 Side 2  free  transition at x/c =  0.0546   25

 134   rms: 0.2619E-01   max: -.3151E+00   D at   75  1
       a = -2.500      CL = -0.3249
      Cm = -0.0278     CD =  0.02824   =>   CDf =  0.00884    CDp =  0.01940

 Side 1 forced transition at x/c =  1.0000   76
 Side 2  free  transition at x/c =  0.0553   25

 135   rms: 0.5266E-01   max: 0.4713E+00   D at   76  1
       a = -2.500      CL = -0.3564
      Cm = -0.0221     CD =  0.02747   =>   CDf =  0.00884    CDp =  0.01863

 Side 1  free  transition at x/c =  0.9838   75
 Side 2  free  transition at x/c =  0.0534   25

 136   rms: 0.5632E-01   max: -.5103E+00   T at   75  1   RLX: 0.980
       a = -2.500      CL = -0.3457
      Cm = -0.0241     CD =  0.02708   =>   CDf =  0.00885    CDp =  0.01823

 Side 1  free  transition at x/c =  0.9898   75
 Side 2  free  transition at x/c =  0.0540   25

 137   rms: 0.3657E-01   max: -.4521E+00   T at   75  1
       a = -2.500      CL = -0.3359
      Cm = -0.0258     CD =  0.02785   =>   CDf =  0.00883    CDp =  0.01901

 Side 1  free  transition at x/c =  0.9924   75
 Side 2  free  transition at x/c =  0.0546   25

 138   rms: 0.2620E-01   max: -.3150E+00   D at   75  1
       a = -2.500      CL = -0.3248
      Cm = -0.0278     CD =  0.02824   =>   CDf =  0.00884    CDp =  0.01940

 Side 1 forced transition at x/c =  1.0000   76
 Side 2  free  transition at x/c =  0.0553   25

 139   rms: 0.5270E-01   max: 0.4716E+00   D at   76  1
       a = -2.500      CL = -0.3564
      Cm = -0.0221     CD =  0.02747   =>   CDf =  0.00884    CDp =  0.01863

 Side 1  free  transition at x/c =  0.9838   75
 Side 2  free  transition at x/c =  0.0534   25

 140   rms: 0.5635E-01   max: -.5101E+00   T at   75  1   RLX: 0.980
       a = -2.500      CL = -0.3457
      Cm = -0.0241     CD =  0.02708   =>   CDf =  0.00885    CDp =  0.01823

 Side 1  free  transition at x/c =  0.9898   75
 Side 2  free  transition at x/c =  0.0540   25

 141   rms: 0.3655E-01   max: -.4520E+00   T at   75  1
       a = -2.500      CL = -0.3359
      Cm = -0.0258     CD =  0.02785   =>   CDf =  0.00883    CDp =  0.01901

 Side 1  free  transition at x/c =  0.9924   75
 Side 2  free  transition at x/c =  0.0546   25

 142   rms: 0.2622E-01   max: -.3151E+00   D at   75  1
       a = -2.500      CL = -0.3248
      Cm = -0.0278     CD =  0.02824   =>   CDf =  0.00884    CDp =  0.01940

 Side 1 forced transition at x/c =  1.0000   76
 Side 2  free  transition at x/c =  0.0553   25

 143   rms: 0.5268E-01   max: 0.4715E+00   D at   76  1
       a = -2.500      CL = -0.3564
      Cm = -0.0221     CD =  0.02747   =>   CDf =  0.00884    CDp =  0.01863

 Side 1  free  transition at x/c =  0.9838   75
 Side 2  free  transition at x/c =  0.0534   25

 144   rms: 0.5635E-01   max: -.5102E+00   T at   75  1   RLX: 0.980
       a = -2.500      CL = -0.3457
      Cm = -0.0241     CD =  0.02708   =>   CDf =  0.00885    CDp =  0.01823

 Side 1  free  transition at x/c =  0.9898   75
 Side 2  free  transition at x/c =  0.0540   25

 145   rms: 0.3655E-01   max: -.4522E+00   T at   75  1
       a = -2.500      CL = -0.3359
      Cm = -0.0258     CD =  0.02785   =>   CDf =  0.00883    CDp =  0.01901

 Side 1  free  transition at x/c =  0.9924   75
 Side 2  free  transition at x/c =  0.0546   25

 146   rms: 0.2620E-01   max: -.3152E+00   D at   75  1
       a = -2.500      CL = -0.3249
      Cm = -0.0278     CD =  0.02824   =>   CDf =  0.00884    CDp =  0.01940

 Side 1 forced transition at x/c =  1.0000   76
 Side 2  free  transition at x/c =  0.0553   25

 147   rms: 0.5265E-01   max: 0.4712E+00   D at   76  1
       a = -2.500      CL = -0.3564
      Cm = -0.0221     CD =  0.02747   =>   CDf =  0.00884    CDp =  0.01863

 Side 1  free  transition at x/c =  0.9838   75
 Side 2  free  transition at x/c =  0.0534   25

 148   rms: 0.5627E-01   max: -.5101E+00   T at   75  1   RLX: 0.980
       a = -2.500      CL = -0.3457
      Cm = -0.0241     CD =  0.02708   =>   CDf =  0.00885    CDp =  0.01823

 Side 1  free  transition at x/c =  0.9898   75
 Side 2  free  transition at x/c =  0.0540   25

 149   rms: 0.3652E-01   max: -.4514E+00   T at   75  1
       a = -2.500      CL = -0.3359
      Cm = -0.0258     CD =  0.02785   =>   CDf =  0.00883    CDp =  0.01902

 Side 1  free  transition at x/c =  0.9924   75
 Side 2  free  transition at x/c =  0.0546   25

 150   rms: 0.2617E-01   max: -.3144E+00   D at   75  1
       a = -2.500      CL = -0.3248
      Cm = -0.0279     CD =  0.02824   =>   CDf =  0.00884    CDp =  0.01940

 Side 1 forced transition at x/c =  1.0000   76
 Side 2  free  transition at x/c =  0.0553   25

 151   rms: 0.5271E-01   max: 0.4717E+00   D at   76  1
       a = -2.500      CL = -0.3564
      Cm = -0.0221     CD =  0.02747   =>   CDf =  0.00884    CDp =  0.01863

 Side 1  free  transition at x/c =  0.9838   75
 Side 2  free  transition at x/c =  0.0534   25

 152   rms: 0.5625E-01   max: -.5098E+00   T at   75  1   RLX: 0.981
       a = -2.500      CL = -0.3457
      Cm = -0.0241     CD =  0.02708   =>   CDf =  0.00885    CDp =  0.01822

 Side 1  free  transition at x/c =  0.9899   75
 Side 2  free  transition at x/c =  0.0540   25

 153   rms: 0.3651E-01   max: -.4515E+00   T at   75  1
       a = -2.500      CL = -0.3359
      Cm = -0.0258     CD =  0.02785   =>   CDf =  0.00883    CDp =  0.01902

 Side 1  free  transition at x/c =  0.9924   75
 Side 2  free  transition at x/c =  0.0546   25

 154   rms: 0.2617E-01   max: -.3146E+00   D at   75  1
       a = -2.500      CL = -0.3248
      Cm = -0.0279     CD =  0.02824   =>   CDf =  0.00884    CDp =  0.01940

 Side 1 forced transition at x/c =  1.0000   76
 Side 2  free  transition at x/c =  0.0553   25

 155   rms: 0.5274E-01   max: 0.4719E+00   D at   76  1
       a = -2.500      CL = -0.3564
      Cm = -0.0221     CD =  0.02747   =>   CDf =  0.00884    CDp =  0.01863
 VISCAL:  Convergence failed
 Calculating wake trajectory ...
 Calculating source influence matrix ...

 Solving BL system ...

 Side 1  free  transition at x/c =  0.9838   75
 Side 2  free  transition at x/c =  0.0534   25

   1   rms: 0.1341E+00   max: -.6189E+00   T at   25  2   RLX: 0.808
       a = -2.000      CL = -0.2920
      Cm = -0.0267     CD =  0.02818   =>   CDf =  0.00882    CDp =  0.01937

 Side 1  free  transition at x/c =  0.9878   76
 Side 2  free  transition at x/c =  0.0611   25

   2   rms: 0.7455E-01   max: -.5364E+00   T at   25  2   RLX: 0.932
       a = -2.000      CL = -0.2755
      Cm = -0.0287     CD =  0.02662   =>   CDf =  0.00886    CDp =  0.01777

 Side 1  free  transition at x/c =  0.9921   76
 Side 2  free  transition at x/c =  0.0679   25

   3   rms: 0.2756E-01   max: -.2130E+00   D at   25  2
       a = -2.000      CL = -0.2725
      Cm = -0.0289     CD =  0.02717   =>   CDf =  0.00876    CDp =  0.01841

 Side 1  free  transition at x/c =  0.9929   76
 Side 2  free  transition at x/c =  0.0692   25

   4   rms: 0.1021E-02   max: -.1618E-01   T at   76  1
       a = -2.000      CL = -0.2722
      Cm = -0.0290     CD =  0.02718   =>   CDf =  0.00877    CDp =  0.01841

 Side 1  free  transition at x/c =  0.9931   76
 Side 2  free  transition at x/c =  0.0692   25

   5   rms: 0.1370E-03   max: -.1876E-02   D at   76  1
       a = -2.000      CL = -0.2722
      Cm = -0.0290     CD =  0.02718   =>   CDf =  0.00877    CDp =  0.01841

 Side 1  free  transition at x/c =  0.9931   76
 Side 2  free  transition at x/c =  0.0692   25

   6   rms: 0.4595E-05   max: -.6789E-04   T at   76  1
       a = -2.000      CL = -0.2722
      Cm = -0.0290     CD =  0.02718   =>   CDf =  0.00877    CDp =  0.01841
 plradd ia,ip,cpol            4           0  3.39465472E-03

 Point added to stored polar  1
 Point written to save file  nlf414f_Re150k.base.pol                         
 Dump file unspecified or not available
 Calculating wake trajectory ...
 Calculating source influence matrix ...

 Solving BL system ...

 Side 1  free  transition at x/c =  0.9931   76
 Side 2  free  transition at x/c =  0.0692   25

   1   rms: 0.1482E+00   max: 0.1715E+01   T at   76  1   RLX: 0.363
       a = -1.500      CL = -0.2487
      Cm = -0.0303     CD =  0.02703   =>   CDf =  0.00877    CDp =  0.01826

 Side 1  free  transition at x/c =  0.9812   75
 Side 2  free  transition at x/c =  0.0825   26

   2   rms: 0.1689E+00   max: -.1916E+01   T at   26  2   RLX: 0.261
       a = -1.500      CL = -0.2315
      Cm = -0.0320     CD =  0.02981   =>   CDf =  0.00873    CDp =  0.02108

 Side 1  free  transition at x/c =  0.9817   75
 Side 2  free  transition at x/c =  0.1026   28

   3   rms: 0.9273E+00   max: -.8150E+01   C at   28  2   RLX: 0.061
       a = -1.500      CL = -0.2205
      Cm = -0.0343     CD =  0.02941   =>   CDf =  0.00868    CDp =  0.02073

 Side 1  free  transition at x/c =  0.9821   75
 Side 2  free  transition at x/c =  0.1260   29

   4   rms: 0.2052E+01   max: -.4016E+02   C at   29  2   RLX: 0.012
       a = -1.500      CL = -0.2165
      Cm = -0.0349     CD =  0.02962   =>   CDf =  0.00848    CDp =  0.02113

 Side 1  free  transition at x/c =  0.9823   75
 Side 2  free  transition at x/c =  0.1296   29

   5   rms: 0.5184E+00   max: 0.6689E+01   C at   29  2   RLX: 0.080
       a = -1.500      CL = -0.2093
      Cm = -0.0355     CD =  0.02978   =>   CDf =  0.00858    CDp =  0.02119

 Side 1  free  transition at x/c =  0.9827   75
 Side 2  free  transition at x/c =  0.1622   31

   6   rms: 0.4255E+00   max: 0.5147E+01   C at   31  2   RLX: 0.101
       a = -1.500      CL = -0.1998
      Cm = -0.0364     CD =  0.02963   =>   CDf =  0.00841    CDp =  0.02121

 Side 1  free  transition at x/c =  0.9831   75
 Side 2  free  transition at x/c =  0.2096   34

   7   rms: 0.7343E+03   max: -.1317E+05   C at   34  2   RLX: 0.000
       a = -1.500      CL = -0.1977
      Cm = -0.0366     CD =  0.02931   =>   CDf =  0.00795    CDp =  0.02136

 Side 1  free  transition at x/c =  0.9831   75
 Side 2  free  transition at x/c =  0.2115   34

   8   rms: 0.1534E+03   max: 0.2558E+04   C at   34  2   RLX: 0.001
       a = -1.500      CL = -0.2018
      Cm = -0.0356     CD =  0.02938   =>   CDf =  0.00786    CDp =  0.02152

 Side 1  free  transition at x/c =  0.9829   75
 Side 2  free  transition at x/c =  0.2059   34

   9   rms: 0.1398E+03   max: -.2732E+04   C at   34  2   RLX: 0.000
       a = -1.500      CL = -0.2002
      Cm = -0.0360     CD =  0.02928   =>   CDf =  0.00807    CDp =  0.02122

 MRCHDU: Convergence failed at  75  side 1    Res =  0.5352E-05
 Side 1  free  transition at x/c =  0.9830   75
 Side 2  free  transition at x/c =  0.2094   34

  10   rms: 0.9011E+02   max: -.1635E+04   C at   34  2   RLX: 0.000
       a = -1.500      CL = -0.1987
      Cm = -0.0364     CD =  0.02928   =>   CDf =  0.00795    CDp =  0.02132

 Side 1  free  transition at x/c =  0.9831   75
 Side 2  free  transition at x/c =  0.2115   34

  11   rms: 0.3934E+04   max: -.6625E+05   C at   34  2   RLX: 0.000
       a = -1.500      CL = -0.1974
      Cm = -0.0367     CD =  0.02927   =>   CDf =  0.00787    CDp =  0.02140

 Side 1  free  transition at x/c =  0.9831   75
 Side 2  free  transition at x/c =  0.2085   34

  12   rms: 0.3457E+00   max: -.4028E+01   T at   34  2   RLX: 0.124
       a = -1.500      CL = -0.1836
      Cm = -0.0388     CD =  0.02954   =>   CDf =  0.00818    CDp =  0.02136

 Side 1 forced transition at x/c =  1.0000   77
 Side 2  free  transition at x/c =  0.2651   38

  13   rms: 0.1054E+01   max: -.1873E+02   C at   38  2   RLX: 0.027
       a = -1.500      CL = -0.1750
      Cm = -0.0395     CD =  0.02031   =>   CDf =  0.00788    CDp =  0.01243

 Side 1 forced transition at x/c =  1.0000   77
 Side 2  free  transition at x/c =  0.2771   38

  14   rms: 0.2449E+00   max: -.2393E+01   T at   38  2   RLX: 0.209
       a = -1.500      CL = -0.1771
      Cm = -0.0389     CD =  0.02104   =>   CDf =  0.00779    CDp =  0.01325

 MRCHDU: Convergence failed at  66  side 2    Res =  0.5821E+01
 MRCHDU: Convergence failed at  67  side 2    Res =  0.1015E+02
 MRCHDU: Convergence failed at  68  side 2    Res =  0.6844E+01
 MRCHDU: Convergence failed at  69  side 2    Res =  0.6207E+01
 MRCHDU: Convergence failed at  70  side 2    Res =  0.6620E+01
 MRCHDU: Convergence failed at  71  side 2    Res =  0.7634E+01
 MRCHDU: Convergence failed at  72  side 2    Res =  0.8993E+01
 MRCHDU: Convergence failed at  73  side 2    Res =  0.1137E+02
 MRCHDU: Convergence failed at  74  side 2    Res =  0.1655E+02
 MRCHDU: Convergence failed at  75  side 2    Res =  0.3616E+02
 MRCHDU: Convergence failed at  76  side 2    Res =  0.6741E+02
 MRCHDU: Convergence failed at  77  side 2    Res =  0.1712E+02
 MRCHDU: Convergence failed at  78  side 2    Res =  0.8902E+01
 MRCHDU: Convergence failed at  79  side 2    Res =  0.3707E+01
 MRCHDU: Convergence failed at  80  side 2    Res =  0.3698E+01
 MRCHDU: Convergence failed at  81  side 2    Res =  0.2941E+01
 MRCHDU: Convergence failed at  82  side 2    Res =  0.2406E+01
 MRCHDU: Convergence failed at  83  side 2    Res =  0.2088E+01
 MRCHDU: Convergence failed at  84  side 2    Res =  0.1813E+01
 MRCHDU: Convergence failed at  85  side 2    Res =  0.2077E+01
 Side 1 forced transition at x/c =  1.0000   77
 Side 2  free  transition at x/c =  0.9154   79

  15   rms: 0.4807E+00   max: -.3210E+01   D at   85  2   RLX: 0.156
       a = -1.500      CL = -0.2996
      Cm =  0.0157     CD =  0.01869   =>   CDf =  0.00551    CDp =  0.01318

 Side 1  free  transition at x/c =  0.9924   76
 Side 2  free  transition at x/c =  0.7829   70

  16   rms: 0.2589E+00   max: 0.1552E+01   D at   73  2   RLX: 0.655
       a = -1.500      CL = -0.2305
      Cm = -0.0184     CD =  0.02434   =>   CDf =  0.00610    CDp =  0.01824

 MRCHDU: Convergence failed at  73  side 2    Res =  0.4115E+01
 MRCHDU: Convergence failed at  74  side 2    Res =  0.4920E+01
 MRCHDU: Convergence failed at  75  side 2    Res =  0.5320E+01
 MRCHDU: Convergence failed at  76  side 2    Res =  0.2164E+03
 MRCHDU: Convergence failed at  77  side 2    Res =  0.9802E+01
 MRCHDU: Convergence failed at  78  side 2    Res =  0.5977E+01
 MRCHDU: Convergence failed at  79  side 2    Res =  0.6762E+01
 MRCHDU: Convergence failed at  80  side 2    Res =  0.5229E+01
 MRCHDU: Convergence failed at  81  side 2    Res =  0.4281E+01
 MRCHDU: Convergence failed at  82  side 2    Res =  0.3703E+01
[...]

  12   rms: 0.3183E+01   max: 0.2600E+02   T at   38  1   RLX: 0.034
       a = 14.750      CL =  1.7234
      Cm = -0.3139     CD =  0.15419   =>   CDf =  0.00351    CDp =  0.15068

 Side 1  free  transition at x/c =  0.1323   36
 Side 2 forced transition at x/c =  1.0000   69

  13   rms: 0.1649E+01   max: 0.3028E+02   T at   36  1   RLX: 0.028
       a = 14.750      CL =  1.8306
      Cm = -0.3486     CD =  0.15680   =>   CDf =  0.00351    CDp =  0.15329

 Side 1  free  transition at x/c =  0.1384   37
 Side 2 forced transition at x/c =  1.0000   69

  14   rms: 0.3635E+01   max: -.6406E+02   T at   37  1   RLX: 0.008
       a = 14.750      CL =  1.9286
      Cm = -0.3854     CD =  0.17187   =>   CDf =  0.00353    CDp =  0.16834

 Side 1  free  transition at x/c =  0.1391   37
 Side 2 forced transition at x/c =  1.0000   69

  15   rms: 0.7674E+00   max: -.7402E+01   T at   37  1   RLX: 0.068
       a = 14.750      CL =  1.8876
      Cm = -0.3761     CD =  0.16934   =>   CDf =  0.00355    CDp =  0.16579

 TRCHEK2: N2 convergence failed.
 x:  0.18291  0.18512  0.19861  N:  7.896  9.000 14.745  Nx: 176.644   dN:-0.369E+01
 TRCHEK2: N2 convergence failed.
 x:  0.18291  0.18523  0.19861  N:  7.896  9.000 14.367  Nx: 187.868   dN:-0.318E+01
 TRCHEK2: N2 convergence failed.
 x:  0.18291  0.18590  0.19861  N:  7.896  9.000 12.693  Nx: 255.691   dN:-0.102E+01
 TRCHEK2: N2 convergence failed.
 x:  0.18291  0.18643  0.19861  N:  7.896  9.000 12.828  Nx: 315.167   dN: 0.136E-01
 TRCHEK2: N2 convergence failed.
 x:  0.18291  0.18574  0.19861  N:  7.896  9.000 13.025  Nx: 239.042   dN:-0.143E+01
 TRCHEK2: N2 convergence failed.
 x:  0.18291  0.18645  0.19861  N:  7.896  9.000 12.820  Nx: 315.935   dN: 0.319E-01
 MRCHDU: Convergence failed at  37  side 1    Res =  0.5123E+00
 Side 1  free  transition at x/c =  0.3097   47
 Side 2 forced transition at x/c =  1.0000   69

  16   rms: 0.2253E+02   max: 0.2169E+03   T at   48  1   RLX: 0.003
       a = 14.750      CL =  1.8781
      Cm = -0.3485     CD =  0.16977   =>   CDf =  0.00343    CDp =  0.16634

 Side 1  free  transition at x/c =  0.3026   47
 Side 2 forced transition at x/c =  1.0000   69

  17   rms: 0.1050E+01   max: 0.2219E+02   T at   47  1   RLX: 0.068
       a = 14.750      CL =  1.8725
      Cm = -0.3417     CD =  0.15397   =>   CDf =  0.00339    CDp =  0.15058

 Side 1  free  transition at x/c =  0.1532   38
 Side 2 forced transition at x/c =  1.0000   69

  18   rms: 0.8015E+00   max: 0.8951E+01   T at   38  1   RLX: 0.150
       a = 14.750      CL =  1.7657
      Cm = -0.3205     CD =  0.16394   =>   CDf =  0.00358    CDp =  0.16035

 Side 1  free  transition at x/c =  0.1455   37
 Side 2 forced transition at x/c =  1.0000   69

  19   rms: 0.6398E+00   max: 0.6100E+01   T at   37  1   RLX: 0.100
       a = 14.750      CL =  1.7223
      Cm = -0.3071     CD =  0.19826   =>   CDf =  0.00370    CDp =  0.19456

 Side 1  free  transition at x/c =  0.1336   36
 Side 2 forced transition at x/c =  1.0000   69

  20   rms: 0.7453E+00   max: 0.4965E+01   T at   36  1   RLX: 0.117
       a = 14.750      CL =  1.6356
      Cm = -0.2920     CD =  0.20932   =>   CDf =  0.00381    CDp =  0.20551

 Side 1  free  transition at x/c =  0.1190   35
 Side 2 forced transition at x/c =  1.0000   69

  21   rms: 0.5949E+00   max: -.2962E+01   D at   91  2   RLX: 0.169
       a = 14.750      CL =  1.5241
      Cm = -0.2687     CD =  0.19356   =>   CDf =  0.00396    CDp =  0.18960

 Side 1  free  transition at x/c =  0.1099   35
 Side 2 forced transition at x/c =  1.0000   69
 idif Ue xi dudx           1  0.10305691      4.38034534E-03   23.527119    
 Uenew xinew           2  1.37708373E-02  5.85317612E-04

  22   rms: 0.5446E+00   max: -.3485E+01   D at   91  2   RLX: 0.143
       a = 14.750      CL =  1.4273
      Cm = -0.2412     CD =  0.20348   =>   CDf =  0.00441    CDp =  0.19907

 Side 1  free  transition at x/c =  0.1085   34
 Side 2 forced transition at x/c =  1.0000   70

  23   rms: 0.5062E+00   max: -.3482E+01   D at   92  2   RLX: 0.144
       a = 14.750      CL =  1.3354
      Cm = -0.2142     CD =  0.19930   =>   CDf =  0.00425    CDp =  0.19506

 Side 1  free  transition at x/c =  0.1079   34
 Side 2 forced transition at x/c =  1.0000   70

  24   rms: 0.4780E+00   max: -.2909E+01   D at   92  2   RLX: 0.172
       a = 14.750      CL =  1.2291
      Cm = -0.1848     CD =  0.18406   =>   CDf =  0.00430    CDp =  0.17975

 MRCHDU: Convergence failed at  92  side 2    Res =  0.1432E+00
 Side 1  free  transition at x/c =  0.1081   34
 Side 2 forced transition at x/c =  1.0000   70
 idif Ue xi dudx           1  0.11138903      4.24325466E-03   26.250847    
 Uenew xinew           2  2.30538826E-02  8.78214836E-04

  25   rms: 0.7745E+00   max: -.2389E+01   T at   34  1   RLX: 0.209
       a = 14.750      CL =  0.9969
      Cm = -0.1390     CD =  0.35401   =>   CDf =  0.00459    CDp =  0.34942

 Side 1  free  transition at x/c =  0.1112   33
 Side 2 forced transition at x/c =  1.0000   71
 idif Ue xi dudx           1  0.10035086      3.31747532E-03   30.249165    
 Uenew xinew           2  8.69041495E-03  2.87294388E-04

  26   rms: 0.5424E+00   max: -.1306E+01   T at   92  2   RLX: 0.383
       a = 14.750      CL =  0.7408
      Cm = -0.0868     CD =  0.27658   =>   CDf =  0.00440    CDp =  0.27218

 Side 1  free  transition at x/c =  0.1121   32
 Side 2 forced transition at x/c =  1.0000   72

  27   rms: 0.3565E+00   max: -.1350E+01   T at    2  2   RLX: 0.370
       a = 14.750      CL =  0.6107
      Cm = -0.0564     CD =  0.28774   =>   CDf =  0.00402    CDp =  0.28372

 Side 1  free  transition at x/c =  0.1140   32
 Side 2 forced transition at x/c =  1.0000   72

  28   rms: 0.2502E+00   max: -.7979E+00   T at   94  2   RLX: 0.627
       a = 14.750      CL =  0.4996
      Cm = -0.0264     CD =  0.17531   =>   CDf =  0.00391    CDp =  0.17140

 Side 1  free  transition at x/c =  0.1165   32
 Side 2 forced transition at x/c =  1.0000   72

  29   rms: 0.1718E+00   max: -.7225E+00   D at   92  2   RLX: 0.692
       a = 14.750      CL =  0.4967
      Cm = -0.0144     CD =  0.16187   =>   CDf =  0.00377    CDp =  0.15810

 Side 1  free  transition at x/c =  0.1151   32
 Side 2 forced transition at x/c =  1.0000   72

  30   rms: 0.1245E+00   max: -.6165E+00   D at   92  2   RLX: 0.811
       a = 14.750      CL =  0.5442
      Cm = -0.0144     CD =  0.15098   =>   CDf =  0.00353    CDp =  0.14745

 Side 1  free  transition at x/c =  0.1129   33
 Side 2 forced transition at x/c =  1.0000   71

  31   rms: 0.6448E-01   max: -.3640E+00   D at   91  2
       a = 14.750      CL =  0.5894
      Cm = -0.0186     CD =  0.14548   =>   CDf =  0.00355    CDp =  0.14193

 Side 1  free  transition at x/c =  0.1111   33
 Side 2 forced transition at x/c =  1.0000   71

  32   rms: 0.1310E-01   max: -.8269E-01   D at   92  2
       a = 14.750      CL =  0.5992
      Cm = -0.0194     CD =  0.14406   =>   CDf =  0.00349    CDp =  0.14057

 Side 1  free  transition at x/c =  0.1108   33
 Side 2 forced transition at x/c =  1.0000   71

  33   rms: 0.2185E-02   max: -.9863E-02   D at   92  2
       a = 14.750      CL =  0.6008
      Cm = -0.0195     CD =  0.14441   =>   CDf =  0.00348    CDp =  0.14092

 Side 1  free  transition at x/c =  0.1108   33
 Side 2 forced transition at x/c =  1.0000   71

  34   rms: 0.3641E-03   max: -.1525E-02   D at   89  2
       a = 14.750      CL =  0.6011
      Cm = -0.0195     CD =  0.14455   =>   CDf =  0.00348    CDp =  0.14106

 Side 1  free  transition at x/c =  0.1108   33
 Side 2 forced transition at x/c =  1.0000   71

  35   rms: 0.2765E-04   max: -.1566E-03   D at   89  2
       a = 14.750      CL =  0.6011
      Cm = -0.0195     CD =  0.14456   =>   CDf =  0.00348    CDp =  0.14108
 plradd ia,ip,cpol           47           0  3.76320793E-03

 Point added to stored polar  1
 Point written to save file  nlf414f_Re150k.base.pol                         
 Dump file unspecified or not available
 Calculating wake trajectory ...
 Calculating source influence matrix ...

 Solving BL system ...

 Side 1  free  transition at x/c =  0.1108   33
 Side 2 forced transition at x/c =  1.0000   71

   1   rms: 0.2998E-01   max: 0.3197E+00   T at   33  1   RLX: 0.331
       a = 15.000      CL =  0.6045
      Cm = -0.0197     CD =  0.14554   =>   CDf =  0.00348    CDp =  0.14206

 Side 1  free  transition at x/c =  0.1098   33
 Side 2 forced transition at x/c =  1.0000   71

   2   rms: 0.2528E-01   max: 0.2177E+00   T at   33  1
       a = 15.000      CL =  0.6146
      Cm = -0.0193     CD =  0.14633   =>   CDf =  0.00347    CDp =  0.14285

 Side 1  free  transition at x/c =  0.1079   33
 Side 2 forced transition at x/c =  1.0000   71

   3   rms: 0.2548E-01   max: -.1266E+00   D at   33  1
       a = 15.000      CL =  0.6100
      Cm = -0.0189     CD =  0.14390   =>   CDf =  0.00346    CDp =  0.14044

 Side 1  free  transition at x/c =  0.1084   33
 Side 2 forced transition at x/c =  1.0000   71

   4   rms: 0.1298E-01   max: -.3217E-01   D at   33  1
       a = 15.000      CL =  0.6174
      Cm = -0.0186     CD =  0.14517   =>   CDf =  0.00346    CDp =  0.14171

 Side 1  free  transition at x/c =  0.1084   33
 Side 2 forced transition at x/c =  1.0000   71

   5   rms: 0.4034E-02   max: 0.1471E-01   T at   33  1
       a = 15.000      CL =  0.6201
      Cm = -0.0187     CD =  0.14605   =>   CDf =  0.00345    CDp =  0.14260

 Side 1  free  transition at x/c =  0.1083   33
 Side 2 forced transition at x/c =  1.0000   71

   6   rms: 0.7140E-03   max: 0.2502E-02   T at   33  1
       a = 15.000      CL =  0.6206
      Cm = -0.0187     CD =  0.14620   =>   CDf =  0.00345    CDp =  0.14275

 Side 1  free  transition at x/c =  0.1083   33
 Side 2 forced transition at x/c =  1.0000   71

   7   rms: 0.1371E-03   max: 0.5505E-03   T at   33  1
       a = 15.000      CL =  0.6207
      Cm = -0.0187     CD =  0.14623   =>   CDf =  0.00345    CDp =  0.14279

 Side 1  free  transition at x/c =  0.1083   33
 Side 2 forced transition at x/c =  1.0000   71

   8   rms: 0.2224E-04   max: 0.8752E-04   T at   33  1
       a = 15.000      CL =  0.6207
      Cm = -0.0187     CD =  0.14624   =>   CDf =  0.00345    CDp =  0.14279
 plradd ia,ip,cpol           48           0  3.76320793E-03

 Point added to stored polar  1
 Point written to save file  nlf414f_Re150k.base.pol                         
 Dump file unspecified or not available
 Calculating wake trajectory ...
 Calculating source influence matrix ...

 Solving BL system ...

 Side 1  free  transition at x/c =  0.1083   33
 Side 2 forced transition at x/c =  1.0000   71

   1   rms: 0.7434E-01   max: 0.4603E+00   T at   33  1   RLX: 0.333
       a = 15.250      CL =  0.6306
      Cm = -0.0177     CD =  0.14605   =>   CDf =  0.00328    CDp =  0.14277

 Side 1  free  transition at x/c =  0.1075   34
 Side 2 forced transition at x/c =  1.0000   70

   2   rms: 0.7582E-01   max: 0.3572E+00   T at   34  1
       a = 15.250      CL =  0.6616
      Cm = -0.0140     CD =  0.14432   =>   CDf =  0.00342    CDp =  0.14089

 Side 1  free  transition at x/c =  0.1078   34
 Side 2 forced transition at x/c =  1.0000   70

   3   rms: 0.1316E+00   max: 0.7086E+00   T at   34  1
       a = 15.250      CL =  0.6631
      Cm = -0.0168     CD =  0.15999   =>   CDf =  0.00336    CDp =  0.15663

 Side 1  free  transition at x/c =  0.1058   33
 Side 2 forced transition at x/c =  1.0000   70

   4   rms: 0.1701E+00   max: 0.6826E+00   D at   34  1
       a = 15.250      CL =  0.6323
      Cm = -0.0233     CD =  0.17206   =>   CDf =  0.00338    CDp =  0.16868

 Side 1  free  transition at x/c =  0.1055   33
 Side 2 forced transition at x/c =  1.0000   70

   5   rms: 0.6569E-01   max: 0.2194E+00   D at   34  1
       a = 15.250      CL =  0.6328
      Cm = -0.0180     CD =  0.15616   =>   CDf =  0.00343    CDp =  0.15272

 Side 1  free  transition at x/c =  0.1056   33
 Side 2 forced transition at x/c =  1.0000   70

   6   rms: 0.3901E-01   max: -.1483E+00   D at   33  1
       a = 15.250      CL =  0.6350
      Cm = -0.0193     CD =  0.15433   =>   CDf =  0.00341    CDp =  0.15092

 Side 1  free  transition at x/c =  0.1064   33
 Side 2 forced transition at x/c =  1.0000   70

   7   rms: 0.4138E-01   max: -.1249E+00   D at   34  1
       a = 15.250      CL =  0.6469
      Cm = -0.0157     CD =  0.14557   =>   CDf =  0.00343    CDp =  0.14214

 Side 1  free  transition at x/c =  0.1063   33
 Side 2 forced transition at x/c =  1.0000   70

   8   rms: 0.5008E-01   max: 0.2183E+00   D at   34  1
       a = 15.250      CL =  0.6452
      Cm = -0.0189     CD =  0.15555   =>   CDf =  0.00341    CDp =  0.15214

 Side 1  free  transition at x/c =  0.1061   33
 Side 2 forced transition at x/c =  1.0000   70

   9   rms: 0.2928E-01   max: 0.1042E+00   T at   34  1
       a = 15.250      CL =  0.6425
      Cm = -0.0174     CD =  0.15269   =>   CDf =  0.00341    CDp =  0.14928

 Side 1  free  transition at x/c =  0.1064   33
 Side 2 forced transition at x/c =  1.0000   70

  10   rms: 0.8673E-02   max: 0.2804E-01   T at   36  1
       a = 15.250      CL =  0.6458
      Cm = -0.0169     CD =  0.14949   =>   CDf =  0.00341    CDp =  0.14608

 Side 1  free  transition at x/c =  0.1065   33
 Side 2 forced transition at x/c =  1.0000   70

  11   rms: 0.4533E-03   max: -.1583E-02   D at   91  2
       a = 15.250      CL =  0.6462
      Cm = -0.0169     CD =  0.14966   =>   CDf =  0.00341    CDp =  0.14625

 Side 1  free  transition at x/c =  0.1065   33
 Side 2 forced transition at x/c =  1.0000   70

  12   rms: 0.5328E-04   max: 0.2123E-03   T at   36  1
       a = 15.250      CL =  0.6462
      Cm = -0.0169     CD =  0.14966   =>   CDf =  0.00341    CDp =  0.14625
 plradd ia,ip,cpol           49           0  2.55129347E-03

 Point added to stored polar  1
 Point written to save file  nlf414f_Re150k.base.pol                         
 Dump file unspecified or not available
 Calculating wake trajectory ...
 Calculating source influence matrix ...

 Solving BL system ...

 Side 1  free  transition at x/c =  0.1065   33
 Side 2 forced transition at x/c =  1.0000   70

   1   rms: 0.9446E-01   max: -.2269E+00   T at   38  1   RLX: 0.317
       a = 15.500      CL =  0.6322
      Cm = -0.0193     CD =  0.15329   =>   CDf =  0.00341    CDp =  0.14988

 Side 1  free  transition at x/c =  0.1058   33
 Side 2 forced transition at x/c =  1.0000   70
 idif Ue xi dudx           1  9.35177281E-02  3.74162197E-03   24.993900    
 Uenew xinew           2  9.41225700E-03  3.76582146E-04

   2   rms: 0.8766E-01   max: 0.3100E+00   T at   33  1
       a = 15.500      CL =  0.6004
      Cm = -0.0256     CD =  0.16347   =>   CDf =  0.00359    CDp =  0.15989

 Side 1  free  transition at x/c =  0.1010   32
 Side 2 forced transition at x/c =  1.0000   71

   3   rms: 0.2173E-01   max: -.2506E+00   D at   32  1
       a = 15.500      CL =  0.5928
      Cm = -0.0253     CD =  0.15688   =>   CDf =  0.00345    CDp =  0.15343

 Side 1  free  transition at x/c =  0.1018   32
 Side 2 forced transition at x/c =  1.0000   71

   4   rms: 0.2148E-02   max: -.2565E-01   D at   32  1
       a = 15.500      CL =  0.5922
      Cm = -0.0250     CD =  0.15482   =>   CDf =  0.00347    CDp =  0.15135

 Side 1  free  transition at x/c =  0.1021   32
 Side 2 forced transition at x/c =  1.0000   71

   5   rms: 0.1460E-03   max: -.1474E-02   T at   32  1
       a = 15.500      CL =  0.5922
      Cm = -0.0250     CD =  0.15473   =>   CDf =  0.00347    CDp =  0.15126

 Side 1  free  transition at x/c =  0.1021   32
 Side 2 forced transition at x/c =  1.0000   71

   6   rms: 0.2775E-04   max: 0.2759E-03   T at   32  1
       a = 15.500      CL =  0.5922
      Cm = -0.0250     CD =  0.15475   =>   CDf =  0.00347    CDp =  0.15128
 plradd ia,ip,cpol           50           0  3.76320793E-03

 Point added to stored polar  1
 Point written to save file  nlf414f_Re150k.base.pol                         
 Dump file unspecified or not available
 Calculating wake trajectory ...
 Calculating source influence matrix ...

 Solving BL system ...

 Side 1  free  transition at x/c =  0.1021   32
 Side 2 forced transition at x/c =  1.0000   71

   1   rms: 0.3334E-01   max: 0.5520E+00   T at   32  1   RLX: 0.308
       a = 15.750      CL =  0.5903
      Cm = -0.0259     CD =  0.15652   =>   CDf =  0.00347    CDp =  0.15305

 Side 1  free  transition at x/c =  0.1004   32
 Side 2 forced transition at x/c =  1.0000   71

   2   rms: 0.1391E-01   max: 0.2670E+00   T at   32  1
       a = 15.750      CL =  0.5916
      Cm = -0.0269     CD =  0.15843   =>   CDf =  0.00347    CDp =  0.15496

 Side 1  free  transition at x/c =  0.0979   32
 Side 2 forced transition at x/c =  1.0000   71

   3   rms: 0.5817E-02   max: -.3487E-01   D at   33  1
       a = 15.750      CL =  0.5911
      Cm = -0.0264     CD =  0.15670   =>   CDf =  0.00346    CDp =  0.15324

 Side 1  free  transition at x/c =  0.0982   32
 Side 2 forced transition at x/c =  1.0000   71

   4   rms: 0.1971E-02   max: 0.7656E-02   T at   32  1
       a = 15.750      CL =  0.5925
      Cm = -0.0265     CD =  0.15735   =>   CDf =  0.00346    CDp =  0.15389

 Side 1  free  transition at x/c =  0.0981   32
 Side 2 forced transition at x/c =  1.0000   71

   5   rms: 0.1876E-03   max: -.1190E-02   D at   90  2
       a = 15.750      CL =  0.5927
      Cm = -0.0265     CD =  0.15748   =>   CDf =  0.00346    CDp =  0.15403

 Side 1  free  transition at x/c =  0.0981   32
 Side 2 forced transition at x/c =  1.0000   71

   6   rms: 0.4165E-05   max: 0.1689E-04   D at    4  2
       a = 15.750      CL =  0.5927
      Cm = -0.0265     CD =  0.15749   =>   CDf =  0.00346    CDp =  0.15403
 plradd ia,ip,cpol           51           0  2.55129347E-03

 Point added to stored polar  1
 Point written to save file  nlf414f_Re150k.base.pol                         
 Dump file unspecified or not available
 Calculating wake trajectory ...
 Calculating source influence matrix ...

 Solving BL system ...

 Side 1  free  transition at x/c =  0.0981   32
 Side 2 forced transition at x/c =  1.0000   71

   1   rms: 0.2360E-01   max: 0.3279E+00   T at   32  1   RLX: 0.305
       a = 16.000      CL =  0.5946
      Cm = -0.0269     CD =  0.15862   =>   CDf =  0.00346    CDp =  0.15516

 Side 1  free  transition at x/c =  0.0972   32
 Side 2 forced transition at x/c =  1.0000   71

   2   rms: 0.1761E-01   max: 0.2053E+00   T at   32  1
       a = 16.000      CL =  0.6009
      Cm = -0.0275     CD =  0.16065   =>   CDf =  0.00329    CDp =  0.15736

 Side 1  free  transition at x/c =  0.0955   33
 Side 2 forced transition at x/c =  1.0000   70

   3   rms: 0.7922E-02   max: -.4769E-01   D at   33  1
       a = 16.000      CL =  0.5997
      Cm = -0.0271     CD =  0.15903   =>   CDf =  0.00343    CDp =  0.15560

 Side 1  free  transition at x/c =  0.0958   33
 Side 2 forced transition at x/c =  1.0000   70

   4   rms: 0.3003E-02   max: -.1864E-01   D at    4  1
       a = 16.000      CL =  0.6014
      Cm = -0.0272     CD =  0.15977   =>   CDf =  0.00343    CDp =  0.15634

 Side 1  free  transition at x/c =  0.0957   33
 Side 2 forced transition at x/c =  1.0000   70

   5   rms: 0.3367E-03   max: -.1783E-02   D at   89  2
       a = 16.000      CL =  0.6017
      Cm = -0.0272     CD =  0.15997   =>   CDf =  0.00343    CDp =  0.15654

 Side 1  free  transition at x/c =  0.0957   33
 Side 2 forced transition at x/c =  1.0000   70

   6   rms: 0.1703E-04   max: -.1107E-03   D at   89  2
       a = 16.000      CL =  0.6017
      Cm = -0.0272     CD =  0.15998   =>   CDf =  0.00343    CDp =  0.15655
 plradd ia,ip,cpol           52           0  2.55129347E-03

 Point added to stored polar  1
 Point written to save file  nlf414f_Re150k.base.pol                         
 Dump file unspecified or not available

.OPERva   c>  
 Polar accumulation disabled

.OPERv   c>  
 XFOIL   c>  
 XFOIL   c>  