  
       XFOIL         Version 6.99
  
 Calculated polar for: NASA NLF(1)-0416                                
  
 1 1 Reynolds number fixed          Mach number fixed         
  
 xtrf =   1.000 (top)        1.000 (bottom)  
 Mach =   0.000     Re =     0.300 e 6     Ncrit =   9.000
  
   alpha    CL        CD       CDp       CM     Top_Xtr  Bot_Xtr
  ------ -------- --------- --------- -------- -------- --------
  -4.000  -0.0267   0.01010   0.00498  -0.0933   0.7221   0.6031
  -3.500   0.0279   0.01087   0.00539  -0.0922   0.6842   0.6318
  -3.000   0.0812   0.01169   0.00592  -0.0908   0.6555   0.6494
  -2.500   0.1353   0.01230   0.00634  -0.0897   0.6329   0.6642
  -2.000   0.1902   0.01285   0.00669  -0.0890   0.6141   0.6784
  -1.500   0.2408   0.01342   0.00717  -0.0869   0.5989   0.6859
  -1.000   0.2964   0.01376   0.00731  -0.0866   0.5851   0.6976
  -0.500   0.3481   0.01410   0.00763  -0.0851   0.5724   0.7058
   0.000   0.4038   0.01428   0.00771  -0.0850   0.5610   0.7153
   0.500   0.4575   0.01459   0.00790  -0.0842   0.5506   0.7228
   1.000   0.5138   0.01462   0.00791  -0.0845   0.5398   0.7312
   1.500   0.5669   0.01484   0.00810  -0.0838   0.5302   0.7372
   2.000   0.6278   0.01490   0.00807  -0.0854   0.5197   0.7451
   2.500   0.6799   0.01498   0.00819  -0.0845   0.5098   0.7491
   3.000   0.7354   0.01513   0.00828  -0.0846   0.4997   0.7539
   3.500   0.7936   0.01519   0.00839  -0.0856   0.4888   0.7593
   4.000   0.8503   0.01530   0.00848  -0.0862   0.4784   0.7631
   4.500   0.9034   0.01536   0.00858  -0.0857   0.4669   0.7664
   5.000   0.9576   0.01546   0.00876  -0.0857   0.4544   0.7699
   5.500   1.0130   0.01557   0.00892  -0.0861   0.4413   0.7732
   6.000   1.0688   0.01571   0.00908  -0.0866   0.4273   0.7765
   6.500   1.1214   0.01580   0.00922  -0.0864   0.4117   0.7786
   7.000   1.1706   0.01590   0.00945  -0.0854   0.3940   0.7813
   7.500   1.2197   0.01609   0.00973  -0.0845   0.3730   0.7836
   8.000   1.2665   0.01645   0.01008  -0.0834   0.3498   0.7860
   8.500   1.3115   0.01695   0.01063  -0.0820   0.3231   0.7890
   9.000   1.3532   0.01771   0.01136  -0.0803   0.2958   0.7918
   9.500   1.3899   0.01867   0.01228  -0.0778   0.2692   0.7942
  10.000   1.4195   0.01965   0.01329  -0.0740   0.2440   0.7967
  10.000   1.4195   0.01965   0.01329  -0.0740   0.2440   0.7967
  10.250   1.4326   0.02022   0.01388  -0.0720   0.2325   0.7981
  10.500   1.4442   0.02090   0.01456  -0.0698   0.2216   0.7996
  10.750   1.4548   0.02165   0.01531  -0.0675   0.2107   0.8012
  11.000   1.4668   0.02238   0.01608  -0.0656   0.2002   0.8031
  11.250   1.4756   0.02328   0.01700  -0.0634   0.1907   0.8052
  11.500   1.4829   0.02430   0.01802  -0.0612   0.1813   0.8072
  11.750   1.4918   0.02531   0.01909  -0.0593   0.1719   0.8089
  12.000   1.4951   0.02664   0.02041  -0.0571   0.1635   0.8106
  12.250   1.5003   0.02793   0.02176  -0.0552   0.1542   0.8123
  12.500   1.5037   0.02945   0.02334  -0.0535   0.1459   0.8142
  12.750   1.5034   0.03137   0.02528  -0.0519   0.1380   0.8163
  13.000   1.5074   0.03315   0.02714  -0.0508   0.1305   0.8185
  13.250   1.5048   0.03561   0.02961  -0.0498   0.1241   0.8208
  13.500   1.5083   0.03773   0.03183  -0.0492   0.1177   0.8232
  14.000   1.5057   0.04316   0.03740  -0.0485   0.1068   0.8277
  14.250   1.5039   0.04609   0.04039  -0.0485   0.1014   0.8302
  14.500   1.4982   0.04957   0.04392  -0.0486   0.0971   0.8328
  14.750   1.4994   0.05244   0.04692  -0.0489   0.0921   0.8360
  15.000   1.4938   0.05616   0.05068  -0.0495   0.0880   0.8391
  15.250   1.4903   0.05974   0.05435  -0.0502   0.0841   0.8421
  15.500   1.4884   0.06318   0.05790  -0.0509   0.0799   0.8454
  15.750   1.4809   0.06744   0.06220  -0.0519   0.0764   0.8486
  16.000   1.4783   0.07121   0.06608  -0.0529   0.0727   0.8524
