  
       XFOIL         Version 6.99
  
 Calculated polar for: NN7 MK20                                        
  
 1 1 Reynolds number fixed          Mach number fixed         
  
 xtrf =   1.000 (top)        1.000 (bottom)  
 Mach =   0.000     Re =     0.300 e 6     Ncrit =   9.000
  
   alpha    CL        CD       CDp       CM     Top_Xtr  Bot_Xtr
  ------ -------- --------- --------- -------- -------- --------
  -4.000  -0.0058   0.01161   0.00608  -0.0999   0.7541   0.5830
  -3.500   0.0505   0.01246   0.00682  -0.0992   0.7460   0.6128
  -3.000   0.1058   0.01333   0.00766  -0.0982   0.7379   0.6298
  -2.500   0.1625   0.01363   0.00779  -0.0982   0.7304   0.6420
  -2.000   0.2165   0.01429   0.00846  -0.0971   0.7224   0.6515
  -1.500   0.2727   0.01447   0.00851  -0.0971   0.7151   0.6605
  -1.000   0.3271   0.01458   0.00858  -0.0970   0.7070   0.6671
  -0.500   0.3846   0.01443   0.00827  -0.0978   0.6997   0.6738
   0.000   0.4381   0.01452   0.00838  -0.0975   0.6913   0.6782
   0.500   0.4962   0.01446   0.00819  -0.0984   0.6842   0.6848
   1.000   0.5495   0.01446   0.00821  -0.0984   0.6753   0.6900
   1.500   0.6068   0.01454   0.00822  -0.0988   0.6683   0.6951
   2.000   0.6610   0.01451   0.00820  -0.0992   0.6587   0.7015
   2.500   0.7167   0.01447   0.00817  -0.0995   0.6506   0.7049
   3.000   0.7707   0.01448   0.00822  -0.0995   0.6411   0.7089
   3.500   0.8248   0.01451   0.00830  -0.0997   0.6313   0.7132
   4.000   0.8825   0.01452   0.00826  -0.1006   0.6222   0.7181
   4.500   0.9347   0.01442   0.00822  -0.1001   0.6092   0.7213
   5.000   0.9858   0.01436   0.00824  -0.0995   0.5951   0.7252
   5.500   1.0372   0.01441   0.00837  -0.0992   0.5815   0.7305
   6.000   1.0870   0.01444   0.00850  -0.0984   0.5672   0.7342
   6.500   1.1349   0.01447   0.00863  -0.0972   0.5507   0.7382
   7.000   1.1766   0.01452   0.00876  -0.0949   0.5265   0.7430
   7.500   1.2190   0.01473   0.00899  -0.0928   0.5043   0.7480
   8.000   1.2539   0.01503   0.00941  -0.0893   0.4782   0.7524
   8.500   1.2825   0.01553   0.00993  -0.0848   0.4493   0.7576
   9.000   1.2991   0.01626   0.01066  -0.0784   0.4171   0.7627
   9.500   1.3102   0.01741   0.01180  -0.0716   0.3789   0.7685
  10.000   1.3104   0.01932   0.01356  -0.0642   0.3302   0.7746
  10.000   1.3104   0.01932   0.01356  -0.0642   0.3302   0.7746
  10.250   1.3060   0.02061   0.01475  -0.0604   0.3027   0.7771
  10.500   1.2990   0.02222   0.01624  -0.0566   0.2743   0.7799
  10.750   1.2926   0.02401   0.01792  -0.0533   0.2485   0.7830
  11.250   1.2833   0.02792   0.02161  -0.0480   0.2000   0.7893
  11.500   1.2793   0.02997   0.02357  -0.0458   0.1773   0.7923
  11.750   1.2761   0.03209   0.02561  -0.0438   0.1556   0.7956
  12.000   1.2739   0.03425   0.02770  -0.0421   0.1370   0.7991
  12.250   1.2730   0.03642   0.02981  -0.0406   0.1200   0.8025
  12.500   1.2731   0.03857   0.03193  -0.0394   0.1077   0.8056
  12.750   1.2733   0.04080   0.03415  -0.0383   0.0959   0.8090
  13.000   1.2741   0.04310   0.03643  -0.0374   0.0870   0.8128
  13.250   1.2796   0.04506   0.03846  -0.0368   0.0803   0.8168
  13.500   1.2808   0.04751   0.04091  -0.0363   0.0739   0.8208
  13.750   1.2890   0.04942   0.04292  -0.0362   0.0679   0.8257
  14.000   1.2916   0.05195   0.04548  -0.0360   0.0631   0.8310
  14.250   1.3009   0.05390   0.04755  -0.0361   0.0576   0.8369
  14.500   1.3029   0.05668   0.05034  -0.0362   0.0512   0.8438
  14.750   1.3097   0.05901   0.05275  -0.0365   0.0426   0.8536
  15.000   1.3101   0.06222   0.05603  -0.0369   0.0309   0.8736
  15.250   1.3054   0.06601   0.05988  -0.0376   0.0231   1.0000
  15.500   1.2997   0.06995   0.06381  -0.0379   0.0195   1.0000
  15.750   1.2980   0.07348   0.06744  -0.0383   0.0175   1.0000
  16.000   1.2950   0.07725   0.07128  -0.0389   0.0160   1.0000
