
 ===================================================
  XFOIL Version 6.99
  Copyright (C) 2000   Mark Drela, Harold Youngren

  This software comes with ABSOLUTELY NO WARRANTY,
    subject to the GNU General Public License.

  Caveat computor
 ===================================================

 File  xfoil.def  not found

   QUIT    Exit program

  .OPER    Direct operating point(s)
  .MDES    Complex mapping design routine
  .QDES    Surface speed design routine
  .GDES    Geometry design routine

   SAVE f  Write airfoil to labeled coordinate file
   PSAV f  Write airfoil to plain coordinate file
   ISAV f  Write airfoil to ISES coordinate file
   MSAV f  Write airfoil to MSES coordinate file
   REVE    Reverse written-airfoil node ordering

   LOAD f  Read buffer airfoil from coordinate file
   NACA i  Set NACA 4,5-digit airfoil and buffer airfoil
   INTE    Set buffer airfoil by interpolating two airfoils
   NORM    Buffer airfoil normalization toggle
   XYCM rr Change CM reference location, currently  0.25000 0.00000

   BEND    Display structural properties of current airfoil

   PCOP    Set current-airfoil panel nodes directly from buffer airfoil points
   PANE    Set current-airfoil panel nodes ( 160 ) based on curvature
  .PPAR    Show/change paneling

  .PLOP    Plotting options

   WDEF f  Write  current-settings file
   RDEF f  Reread current-settings file
   NAME s  Specify new airfoil name
   NINC    Increment name version number

   Z       Zoom    | (available in all menus)
   U       Unzoom  | 

 XFOIL   c>  
 Labeled airfoil file.  Name:  NPL AIRFOIL FROM ARC CP 1372                    

 Number of input coordinate points:  67
 Counterclockwise ordering
 Max thickness =     0.106664  at x =   0.359
 Max camber    =     0.010807  at x =   0.738

  LE  x,y  =   0.00000  -0.01019  |   Chord =   1.00005
  TE  x,y  =   1.00000   0.00000  |

 Current airfoil nodes set from buffer airfoil nodes (  67 )

 XFOIL   c>  
 XFOIL   c>  
 Sharp trailing edge

 Paneling parameters used...
   Number of panel nodes       160
   Panel bunching parameter    1.000
   TE/LE panel density ratio   0.150
   Refined-area/LE panel density ratio    0.200
   Top    side refined area x/c limits  1.000 1.000
   Bottom side refined area x/c limits  1.000 1.000

 XFOIL   c>  
.OPERi   c>  
 Xtr/c     =  1.0000    top    side
 Xtr/c     =  1.0000    bottom side
 Ncrit     =    9.00   ( 0.070 % turb. level )
 Vacc      =  0.0100

 Klag  =  5.6000     Uxwt  =    1.00
 A     =  6.7000     B     =  0.7500       KCt = 0.01485
 CtiniK=  1.8000     CtiniX=  3.3000

..VPAR   c>  
..VPAR   c>  
.OPERi   c>  
 M  =    0.0000
 Re =    500000

.OPERv   c>  
.OPERv   c>  
.OPERv   c>  
 Polar  1 newly created for accumulation
 Airfoil archived with polar: NPL AIRFOIL FROM ARC CP 1372                    

Enter  polar save filename  OR  <return> for no file   s>  
 New polar save file available

Enter  polar dump filename  OR  <return> for no file   s>  
 Polar dump file will NOT be written

 Polar accumulation enabled

.OPERva   c>   Calculating unit vorticity distributions ...
 Calculating wake trajectory ...
 Calculating source influence matrix ...

 Solving BL system ...

 Initializing BL ...
    side            1  ...
 MRCHUE: Inverse mode at  66     Hk =   3.800
 MRCHUE: Inverse mode at  67     Hk =   4.320
 MRCHUE: Inverse mode at  68     Hk =   4.824
 MRCHUE: Inverse mode at  69     Hk =   5.314
 MRCHUE: Inverse mode at  70     Hk =   5.787
 MRCHUE: Inverse mode at  71     Hk =   6.238
 MRCHUE: Inverse mode at  72     Hk =   6.652
 MRCHUE: Inverse mode at  73     Hk =   7.018
 MRCHUE: Inverse mode at  74     Hk =   7.338
 MRCHUE: Inverse mode at  75     Hk =   7.528
    side            2  ...
 MRCHUE: Inverse mode at  13     Hk =   3.827
 MRCHUE: Inverse mode at  14     Hk =   5.031
 MRCHUE: Inverse mode at  15     Hk =   6.067
 MRCHUE: Inverse mode at  16     Hk =   7.043
 MRCHUE: Inverse mode at  17     Hk =   8.017
 MRCHUE: Inverse mode at  18     Hk =   9.025
 MRCHUE: Inverse mode at  19     Hk =  10.092
 MRCHUE: Inverse mode at  20     Hk =   5.536
 MRCHUE: Inverse mode at  21     Hk =   2.500
 MRCHUE: Inverse mode at  87     Hk =   2.500

 Side 1 forced transition at x/c =  1.0000   75
 Side 2  free  transition at x/c =  0.0213   20
 idif Ue xi dudx           1  0.25182414      3.53956223E-03   71.145561    
 Uenew xinew           2  7.62884989E-02  1.07228756E-03

   1   rms: 0.4323E+00   max: 0.2428E+01   D at   75  1   RLX: 0.427
       a = -4.000      CL = -0.4713
      Cm = -0.0232     CD =  0.01024   =>   CDf =  0.00633    CDp =  0.00390

 Side 1  free  transition at x/c =  0.9695   71
 Side 2  free  transition at x/c =  0.0221   21

   2   rms: 0.1617E+00   max: -.2032E+01   T at   21  2   RLX: 0.246
       a = -4.000      CL = -0.4629
      Cm = -0.0245     CD =  0.01182   =>   CDf =  0.00656    CDp =  0.00527

 Side 1  free  transition at x/c =  0.9690   71
 Side 2  free  transition at x/c =  0.0252   22

   3   rms: 0.1496E+01   max: -.6441E+01   T at   22  2   RLX: 0.078
       a = -4.000      CL = -0.4759
      Cm = -0.0221     CD =  0.01068   =>   CDf =  0.00657    CDp =  0.00411

 MRCHDU: Convergence failed at  23  side 2    Res =  0.3039E+01
 MRCHDU: Convergence failed at  24  side 2    Res =  0.4438E+01
 MRCHDU: Convergence failed at  25  side 2    Res =  0.7588E+01
 MRCHDU: Convergence failed at  26  side 2    Res =  0.6359E+01
 MRCHDU: Convergence failed at  27  side 2    Res =  0.5386E+01
 MRCHDU: Convergence failed at  28  side 2    Res =  0.1335E+02
 MRCHDU: Convergence failed at  29  side 2    Res =  0.1596E+02
 MRCHDU: Convergence failed at  30  side 2    Res =  0.2634E+02
 MRCHDU: Convergence failed at  31  side 2    Res =  0.9679E+02
 MRCHDU: Convergence failed at  32  side 2    Res =  0.1487E+03
 MRCHDU: Convergence failed at  33  side 2    Res =  0.5082E+02
 MRCHDU: Convergence failed at  34  side 2    Res =  0.3581E+02
 MRCHDU: Convergence failed at  35  side 2    Res =  0.3201E+02
 MRCHDU: Convergence failed at  36  side 2    Res =  0.3236E+02
 MRCHDU: Convergence failed at  37  side 2    Res =  0.3327E+02
 MRCHDU: Convergence failed at  38  side 2    Res =  0.3460E+02
 MRCHDU: Convergence failed at  39  side 2    Res =  0.3489E+02
 MRCHDU: Convergence failed at  40  side 2    Res =  0.3167E+02
 MRCHDU: Convergence failed at  41  side 2    Res =  0.2837E+02
 MRCHDU: Convergence failed at  42  side 2    Res =  0.2592E+02
 MRCHDU: Convergence failed at  43  side 2    Res =  0.2497E+02
 MRCHDU: Convergence failed at  44  side 2    Res =  0.2467E+02
 MRCHDU: Convergence failed at  45  side 2    Res =  0.2379E+02
 MRCHDU: Convergence failed at  46  side 2    Res =  0.2278E+02
 MRCHDU: Convergence failed at  47  side 2    Res =  0.2104E+02
 MRCHDU: Convergence failed at  48  side 2    Res =  0.1975E+02
 MRCHDU: Convergence failed at  49  side 2    Res =  0.1786E+02
 MRCHDU: Convergence failed at  50  side 2    Res =  0.1617E+02
 MRCHDU: Convergence failed at  51  side 2    Res =  0.1307E+02
 MRCHDU: Convergence failed at  52  side 2    Res =  0.1450E+02
 MRCHDU: Convergence failed at  53  side 2    Res =  0.1634E+02
 MRCHDU: Convergence failed at  54  side 2    Res =  0.1851E+02
 MRCHDU: Convergence failed at  55  side 2    Res =  0.2093E+02
 MRCHDU: Convergence failed at  56  side 2    Res =  0.2349E+02
 MRCHDU: Convergence failed at  57  side 2    Res =  0.2733E+02
 MRCHDU: Convergence failed at  58  side 2    Res =  0.3003E+02
 MRCHDU: Convergence failed at  59  side 2    Res =  0.3551E+02
 MRCHDU: Convergence failed at  60  side 2    Res =  0.1657E+02
 MRCHDU: Convergence failed at  61  side 2    Res =  0.2292E+02
 MRCHDU: Convergence failed at  62  side 2    Res =  0.5085E+02
 MRCHDU: Convergence failed at  63  side 2    Res =  0.8311E+02
 MRCHDU: Convergence failed at  64  side 2    Res =  0.1144E+03
 MRCHDU: Convergence failed at  65  side 2    Res =  0.1715E+03
 MRCHDU: Convergence failed at  66  side 2    Res =  0.3289E+03
 MRCHDU: Convergence failed at  67  side 2    Res =  0.2751E+04
 MRCHDU: Convergence failed at  68  side 2    Res =  0.4305E+03
 MRCHDU: Convergence failed at  69  side 2    Res =  0.1333E+04
 MRCHDU: Convergence failed at  70  side 2    Res =  0.3528E+03
 MRCHDU: Convergence failed at  71  side 2    Res =  0.2730E+03
 MRCHDU: Convergence failed at  72  side 2    Res =  0.2197E+03
 MRCHDU: Convergence failed at  73  side 2    Res =  0.1523E+03
 MRCHDU: Convergence failed at  74  side 2    Res =  0.1170E+03
 MRCHDU: Convergence failed at  75  side 2    Res =  0.1093E+03
 MRCHDU: Convergence failed at  76  side 2    Res =  0.1161E+03
 MRCHDU: Convergence failed at  77  side 2    Res =  0.9944E+02
 MRCHDU: Convergence failed at  78  side 2    Res =  0.5091E+02
 MRCHDU: Convergence failed at  79  side 2    Res =  0.7601E+02
 MRCHDU: Convergence failed at  80  side 2    Res =  0.3595E+04
 MRCHDU: Convergence failed at  81  side 2    Res =  0.3939E+02
 MRCHDU: Convergence failed at  82  side 2    Res =  0.4221E+02
 MRCHDU: Convergence failed at  83  side 2    Res =  0.1054E+03
 MRCHDU: Convergence failed at  84  side 2    Res =  0.2431E+03
 MRCHDU: Convergence failed at  85  side 2    Res =  0.2026E+03
 MRCHDU: Convergence failed at  86  side 2    Res =  0.1840E+03
 MRCHDU: Convergence failed at  87  side 2    Res =  0.1249E+03
 MRCHDU: Convergence failed at  88  side 2    Res =  0.5703E+02
 Side 1  free  transition at x/c =  0.9643   71
 Side 2  free  transition at x/c =  0.0322   23

   4   rms: 0.9787E+00   max: 0.3592E+01   D at   90  2   RLX: 0.400
       a = -4.000      CL = -1.2376
      Cm =  0.2344     CD =  0.00565   =>   CDf =  0.00166    CDp =  0.00399

 Side 1  free  transition at x/c =  0.9786   72
 Side 2  free  transition at x/c =  0.0403   24

   5   rms: 0.3719E+00   max: -.6866E+00   D at   89  2   RLX: 0.488
       a = -4.000      CL = -0.7541
      Cm =  0.0628     CD =  0.01932   =>   CDf =  0.00669    CDp =  0.01263

 Side 1  free  transition at x/c =  0.9747   72
 Side 2  free  transition at x/c =  0.0406   24

   6   rms: 0.3945E+00   max: -.2240E+01   D at   52  2   RLX: 0.223
       a = -4.000      CL = -0.6748
      Cm =  0.0353     CD =  0.01726   =>   CDf =  0.00597    CDp =  0.01128

 Side 1  free  transition at x/c =  0.9718   71
 Side 2  free  transition at x/c =  0.0407   24

   7   rms: 0.4513E+00   max: -.1732E+01   D at   76  2   RLX: 0.289
       a = -4.000      CL = -0.6030
      Cm =  0.0112     CD =  0.01359   =>   CDf =  0.00602    CDp =  0.00757

 Side 1  free  transition at x/c =  0.9746   72
 Side 2  free  transition at x/c =  0.0414   24

   8   rms: 0.4639E+00   max: 0.2238E+01   T at   72  1   RLX: 0.225
       a = -4.000      CL = -0.6056
      Cm =  0.0087     CD =  0.01120   =>   CDf =  0.00677    CDp =  0.00444

 Side 1  free  transition at x/c =  0.9628   71
 Side 2  free  transition at x/c =  0.0395   24

   9   rms: 0.1791E+00   max: -.1086E+01   D at   87  2   RLX: 0.460
       a = -4.000      CL = -0.5456
      Cm = -0.0056     CD =  0.01063   =>   CDf =  0.00689    CDp =  0.00373

 Side 1  free  transition at x/c =  0.9588   70
 Side 2  free  transition at x/c =  0.0400   24

  10   rms: 0.2042E+00   max: 0.1933E+01   T at   70  1   RLX: 0.316
       a = -4.000      CL = -0.5569
      Cm = -0.0027     CD =  0.01110   =>   CDf =  0.00671    CDp =  0.00439

 Side 1  free  transition at x/c =  0.9433   69
 Side 2  free  transition at x/c =  0.0382   24

  11   rms: 0.1393E+01   max: -.1367E+02   T at   69  1   RLX: 0.037
       a = -4.000      CL = -0.5222
      Cm = -0.0093     CD =  0.01217   =>   CDf =  0.00671    CDp =  0.00546

 Side 1  free  transition at x/c =  0.9606   71
 Side 2  free  transition at x/c =  0.0420   24

  12   rms: 0.1036E+00   max: -.3784E+00   D at   88  2
       a = -4.000      CL = -0.4178
      Cm = -0.0316     CD =  0.01163   =>   CDf =  0.00664    CDp =  0.00499

 Side 1  free  transition at x/c =  0.9690   71
 Side 2  free  transition at x/c =  0.0447   24

  13   rms: 0.5348E-01   max: -.5921E+00   T at   71  1   RLX: 0.844
       a = -4.000      CL = -0.3852
      Cm = -0.0380     CD =  0.01188   =>   CDf =  0.00651    CDp =  0.00537

 Side 1  free  transition at x/c =  0.9863   74
 Side 2  free  transition at x/c =  0.0471   24

  14   rms: 0.4507E-01   max: 0.5148E+00   D at   75  1
       a = -4.000      CL = -0.3908
      Cm = -0.0368     CD =  0.01139   =>   CDf =  0.00647    CDp =  0.00493

 Side 1  free  transition at x/c =  0.9814   73
 Side 2  free  transition at x/c =  0.0475   24

  15   rms: 0.2803E-01   max: 0.3059E+00   T at   73  1
       a = -4.000      CL = -0.4069
      Cm = -0.0332     CD =  0.01158   =>   CDf =  0.00646    CDp =  0.00511

 Side 1  free  transition at x/c =  0.9728   73
 Side 2  free  transition at x/c =  0.0458   24

  16   rms: 0.1661E-01   max: -.1406E+00   D at   75  1
       a = -4.000      CL = -0.4016
      Cm = -0.0344     CD =  0.01158   =>   CDf =  0.00648    CDp =  0.00510

 Side 1  free  transition at x/c =  0.9756   73
 Side 2  free  transition at x/c =  0.0462   24

  17   rms: 0.3130E-02   max: -.3083E-01   D at   73  1
       a = -4.000      CL = -0.4009
      Cm = -0.0346     CD =  0.01160   =>   CDf =  0.00648    CDp =  0.00512

 Side 1  free  transition at x/c =  0.9763   73
 Side 2  free  transition at x/c =  0.0462   24

  18   rms: 0.3996E-04   max: -.4929E-03   D at   73  1
       a = -4.000      CL = -0.4009
      Cm = -0.0346     CD =  0.01160   =>   CDf =  0.00648    CDp =  0.00512
 plradd ia,ip,cpol            1           0  2.44625378E-03

 Point added to stored polar  1
 Point written to save file  nplx_Re500k.base.pol                            
 Dump file unspecified or not available
 Calculating wake trajectory ...
 Calculating source influence matrix ...

 Solving BL system ...

 Side 1  free  transition at x/c =  0.9763   73
 Side 2  free  transition at x/c =  0.0462   24

   1   rms: 0.1550E+00   max: -.7090E+00   T at   24  2   RLX: 0.705
       a = -3.500      CL = -0.3537
      Cm = -0.0371     CD =  0.01038   =>   CDf =  0.00648    CDp =  0.00390

 MRCHDU: Convergence failed at  25  side 2    Res =  0.2667E+01
 Side 1  free  transition at x/c =  0.9724   73
 Side 2  free  transition at x/c =  0.0614   25

   2   rms: 0.5438E-01   max: 0.4906E+00   C at   25  2
       a = -3.500      CL = -0.3294
      Cm = -0.0385     CD =  0.01073   =>   CDf =  0.00628    CDp =  0.00445

 Side 1  free  transition at x/c =  0.9725   73
 Side 2  free  transition at x/c =  0.0606   25

   3   rms: 0.5179E-02   max: -.8351E-01   D at   26  2
       a = -3.500      CL = -0.3291
      Cm = -0.0385     CD =  0.01084   =>   CDf =  0.00639    CDp =  0.00445

 Side 1  free  transition at x/c =  0.9726   73
 Side 2  free  transition at x/c =  0.0602   25

   4   rms: 0.1511E-03   max: -.2261E-02   D at   26  2
       a = -3.500      CL = -0.3291
      Cm = -0.0385     CD =  0.01084   =>   CDf =  0.00641    CDp =  0.00444

 Side 1  free  transition at x/c =  0.9726   73
 Side 2  free  transition at x/c =  0.0601   25

   5   rms: 0.1157E-05   max: -.6019E-05   T at   73  1
       a = -3.500      CL = -0.3291
      Cm = -0.0385     CD =  0.01084   =>   CDf =  0.00641    CDp =  0.00444
 plradd ia,ip,cpol            2           0  2.44625378E-03

 Point added to stored polar  1
 Point written to save file  nplx_Re500k.base.pol                            
 Dump file unspecified or not available
 Calculating wake trajectory ...
 Calculating source influence matrix ...

 Solving BL system ...

 Side 1  free  transition at x/c =  0.9726   73
 Side 2  free  transition at x/c =  0.0601   25

   1   rms: 0.1187E+00   max: 0.7910E+00   D at   25  2   RLX: 0.750
       a = -3.000      CL = -0.2740
      Cm = -0.0417     CD =  0.01035   =>   CDf =  0.00642    CDp =  0.00393

 Side 1  free  transition at x/c =  0.9710   73
 Side 2  free  transition at x/c =  0.0758   25

   2   rms: 0.8235E-01   max: 0.1049E+01   T at   73  1   RLX: 0.571
       a = -3.000      CL = -0.2982
      Cm = -0.0346     CD =  0.01028   =>   CDf =  0.00634    CDp =  0.00394

 Side 1  free  transition at x/c =  0.9535   72
 Side 2  free  transition at x/c =  0.0756   25

   3   rms: 0.8361E-01   max: -.6342E+00   T at   72  1   RLX: 0.788
       a = -3.000      CL = -0.2541
      Cm = -0.0431     CD =  0.01031   =>   CDf =  0.00635    CDp =  0.00395

 Side 1  free  transition at x/c =  0.9744   74
 Side 2  free  transition at x/c =  0.0915   26

   4   rms: 0.4271E-01   max: 0.4235E+00   D at   74  1
       a = -3.000      CL = -0.2543
      Cm = -0.0430     CD =  0.01006   =>   CDf =  0.00629    CDp =  0.00378

 Side 1  free  transition at x/c =  0.9707   73
 Side 2  free  transition at x/c =  0.0934   27

   5   rms: 0.7935E-01   max: 0.7627E+00   T at   73  1   RLX: 0.801
       a = -3.000      CL = -0.2918
      Cm = -0.0347     CD =  0.01033   =>   CDf =  0.00628    CDp =  0.00406

 Side 1  free  transition at x/c =  0.9523   72
 Side 2  free  transition at x/c =  0.0796   26

   6   rms: 0.8088E-01   max: -.5757E+00   T at   72  1   RLX: 0.869
       a = -3.000      CL = -0.2544
      Cm = -0.0428     CD =  0.01002   =>   CDf =  0.00638    CDp =  0.00364

 Side 1  free  transition at x/c =  0.9729   74
 Side 2  free  transition at x/c =  0.1171   28

   7   rms: 0.6110E-01   max: 0.1108E+01   C at   28  2
       a = -3.000      CL = -0.2547
      Cm = -0.0429     CD =  0.01008   =>   CDf =  0.00616    CDp =  0.00392

 Side 1  free  transition at x/c =  0.9706   73
 Side 2  free  transition at x/c =  0.0978   27

   8   rms: 0.8704E-01   max: 0.7736E+00   C at   27  2   RLX: 0.825
       a = -3.000      CL = -0.2923
      Cm = -0.0346     CD =  0.01030   =>   CDf =  0.00625    CDp =  0.00406

 Side 1  free  transition at x/c =  0.9520   72
 Side 2  free  transition at x/c =  0.0834   26

   9   rms: 0.7267E-01   max: -.5730E+00   T at   72  1   RLX: 0.873
       a = -3.000      CL = -0.2547
      Cm = -0.0428     CD =  0.01010   =>   CDf =  0.00631    CDp =  0.00379

 Side 1  free  transition at x/c =  0.9726   74
 Side 2  free  transition at x/c =  0.0920   26

  10   rms: 0.3045E-01   max: 0.3002E+00   D at   74  1
       a = -3.000      CL = -0.2546
      Cm = -0.0429     CD =  0.01012   =>   CDf =  0.00629    CDp =  0.00384

 Side 1  free  transition at x/c =  0.9706   73
 Side 2  free  transition at x/c =  0.0931   27

  11   rms: 0.7767E-01   max: 0.7467E+00   T at   73  1   RLX: 0.823
       a = -3.000      CL = -0.2923
      Cm = -0.0346     CD =  0.01036   =>   CDf =  0.00628    CDp =  0.00408

 Side 1  free  transition at x/c =  0.9520   72
 Side 2  free  transition at x/c =  0.0792   26

  12   rms: 0.8129E-01   max: -.5726E+00   T at   72  1   RLX: 0.873
       a = -3.000      CL = -0.2549
      Cm = -0.0427     CD =  0.01001   =>   CDf =  0.00638    CDp =  0.00363

 Side 1  free  transition at x/c =  0.9726   74
 Side 2  free  transition at x/c =  0.1188   28

  13   rms: 0.4493E-01   max: -.5507E+00   C at   28  2   RLX: 0.908
       a = -3.000      CL = -0.2554
      Cm = -0.0431     CD =  0.00985   =>   CDf =  0.00616    CDp =  0.00369

 Side 1  free  transition at x/c =  0.9707   73
 Side 2  free  transition at x/c =  0.1008   27

  14   rms: 0.9340E-01   max: 0.1038E+01   C at   27  2   RLX: 0.791
       a = -3.000      CL = -0.2931
      Cm = -0.0345     CD =  0.01024   =>   CDf =  0.00622    CDp =  0.00402

 Side 1  free  transition at x/c =  0.9519   72
 Side 2  free  transition at x/c =  0.0842   26

  15   rms: 0.7162E-01   max: -.5697E+00   T at   72  1   RLX: 0.878
       a = -3.000      CL = -0.2550
      Cm = -0.0427     CD =  0.01010   =>   CDf =  0.00630    CDp =  0.00380

 Side 1  free  transition at x/c =  0.9724   74
 Side 2  free  transition at x/c =  0.0921   26

  16   rms: 0.2901E-01   max: 0.2855E+00   D at   74  1
       a = -3.000      CL = -0.2546
      Cm = -0.0429     CD =  0.01013   =>   CDf =  0.00629    CDp =  0.00384

 Side 1  free  transition at x/c =  0.9706   73
 Side 2  free  transition at x/c =  0.0931   27

  17   rms: 0.7796E-01   max: 0.7494E+00   T at   73  1   RLX: 0.821
       a = -3.000      CL = -0.2923
      Cm = -0.0346     CD =  0.01036   =>   CDf =  0.00628    CDp =  0.00408

 Side 1  free  transition at x/c =  0.9520   72
 Side 2  free  transition at x/c =  0.0792   26

  18   rms: 0.8133E-01   max: -.5727E+00   T at   72  1   RLX: 0.873
       a = -3.000      CL = -0.2549
      Cm = -0.0427     CD =  0.01001   =>   CDf =  0.00638    CDp =  0.00363

 Side 1  free  transition at x/c =  0.9726   74
 Side 2  free  transition at x/c =  0.1189   28

  19   rms: 0.4513E-01   max: -.5639E+00   C at   28  2   RLX: 0.887
       a = -3.000      CL = -0.2555
      Cm = -0.0431     CD =  0.00984   =>   CDf =  0.00616    CDp =  0.00368

 Side 1  free  transition at x/c =  0.9708   73
 Side 2  free  transition at x/c =  0.1013   27

  20   rms: 0.9454E-01   max: 0.1066E+01   C at   27  2   RLX: 0.780
       a = -3.000      CL = -0.2932
      Cm = -0.0345     CD =  0.01023   =>   CDf =  0.00622    CDp =  0.00401

 Side 1  free  transition at x/c =  0.9519   72
 Side 2  free  transition at x/c =  0.0842   26

  21   rms: 0.7151E-01   max: -.5694E+00   T at   72  1   RLX: 0.878
       a = -3.000      CL = -0.2550
      Cm = -0.0427     CD =  0.01010   =>   CDf =  0.00630    CDp =  0.00380

 Side 1  free  transition at x/c =  0.9724   74
 Side 2  free  transition at x/c =  0.0921   26

  22   rms: 0.2897E-01   max: 0.2849E+00   D at   74  1
       a = -3.000      CL = -0.2546
      Cm = -0.0429     CD =  0.01013   =>   CDf =  0.00629    CDp =  0.00384

 Side 1  free  transition at x/c =  0.9706   73
 Side 2  free  transition at x/c =  0.0931   27

  23   rms: 0.7798E-01   max: 0.7495E+00   T at   73  1   RLX: 0.821
       a = -3.000      CL = -0.2923
      Cm = -0.0346     CD =  0.01036   =>   CDf =  0.00628    CDp =  0.00408

 Side 1  free  transition at x/c =  0.9520   72
 Side 2  free  transition at x/c =  0.0792   26

  24   rms: 0.8133E-01   max: -.5728E+00   T at   72  1   RLX: 0.873
       a = -3.000      CL = -0.2549
      Cm = -0.0427     CD =  0.01001   =>   CDf =  0.00638    CDp =  0.00363

 Side 1  free  transition at x/c =  0.9726   74
 Side 2  free  transition at x/c =  0.1189   28

  25   rms: 0.4509E-01   max: -.5616E+00   C at   28  2   RLX: 0.890
       a = -3.000      CL = -0.2555
      Cm = -0.0431     CD =  0.00984   =>   CDf =  0.00616    CDp =  0.00368

 Side 1  free  transition at x/c =  0.9708   73
 Side 2  free  transition at x/c =  0.1012   27

  26   rms: 0.9432E-01   max: 0.1061E+01   C at   27  2   RLX: 0.782
       a = -3.000      CL = -0.2932
      Cm = -0.0345     CD =  0.01023   =>   CDf =  0.00622    CDp =  0.00401

 Side 1  free  transition at x/c =  0.9519   72
 Side 2  free  transition at x/c =  0.0842   26

  27   rms: 0.7153E-01   max: -.5694E+00   T at   72  1   RLX: 0.878
       a = -3.000      CL = -0.2550
      Cm = -0.0427     CD =  0.01010   =>   CDf =  0.00630    CDp =  0.00380

 Side 1  free  transition at x/c =  0.9724   74
 Side 2  free  transition at x/c =  0.0921   26

  28   rms: 0.2898E-01   max: 0.2850E+00   D at   74  1
       a = -3.000      CL = -0.2546
      Cm = -0.0429     CD =  0.01013   =>   CDf =  0.00629    CDp =  0.00384

 Side 1  free  transition at x/c =  0.9706   73
 Side 2  free  transition at x/c =  0.0931   27

  29   rms: 0.7797E-01   max: 0.7495E+00   T at   73  1   RLX: 0.821
       a = -3.000      CL = -0.2923
      Cm = -0.0346     CD =  0.01036   =>   CDf =  0.00628    CDp =  0.00408

 Side 1  free  transition at x/c =  0.9520   72
 Side 2  free  transition at x/c =  0.0792   26

  30   rms: 0.8133E-01   max: -.5727E+00   T at   72  1   RLX: 0.873
       a = -3.000      CL = -0.2549
      Cm = -0.0427     CD =  0.01001   =>   CDf =  0.00638    CDp =  0.00363

 Side 1  free  transition at x/c =  0.9726   74
 Side 2  free  transition at x/c =  0.1189   28

  31   rms: 0.4509E-01   max: -.5618E+00   C at   28  2   RLX: 0.890
       a = -3.000      CL = -0.2555
      Cm = -0.0431     CD =  0.00984   =>   CDf =  0.00616    CDp =  0.00368

 Side 1  free  transition at x/c =  0.9708   73
 Side 2  free  transition at x/c =  0.1012   27

  32   rms: 0.9434E-01   max: 0.1061E+01   C at   27  2   RLX: 0.782
       a = -3.000      CL = -0.2932
      Cm = -0.0345     CD =  0.01023   =>   CDf =  0.00622    CDp =  0.00401

 Side 1  free  transition at x/c =  0.9519   72
 Side 2  free  transition at x/c =  0.0842   26

  33   rms: 0.7153E-01   max: -.5694E+00   T at   72  1   RLX: 0.878
       a = -3.000      CL = -0.2550
      Cm = -0.0427     CD =  0.01010   =>   CDf =  0.00630    CDp =  0.00380

 Side 1  free  transition at x/c =  0.9724   74
 Side 2  free  transition at x/c =  0.0921   26

  34   rms: 0.2898E-01   max: 0.2850E+00   D at   74  1
       a = -3.000      CL = -0.2546
      Cm = -0.0429     CD =  0.01013   =>   CDf =  0.00629    CDp =  0.00384

 Side 1  free  transition at x/c =  0.9706   73
 Side 2  free  transition at x/c =  0.0931   27

  35   rms: 0.7797E-01   max: 0.7495E+00   T at   73  1   RLX: 0.821
       a = -3.000      CL = -0.2923
      Cm = -0.0346     CD =  0.01036   =>   CDf =  0.00628    CDp =  0.00408

 Side 1  free  transition at x/c =  0.9520   72
 Side 2  free  transition at x/c =  0.0792   26

  36   rms: 0.8133E-01   max: -.5727E+00   T at   72  1   RLX: 0.873
       a = -3.000      CL = -0.2549
      Cm = -0.0427     CD =  0.01001   =>   CDf =  0.00638    CDp =  0.00363

 Side 1  free  transition at x/c =  0.9726   74
 Side 2  free  transition at x/c =  0.1189   28

  37   rms: 0.4509E-01   max: -.5619E+00   C at   28  2   RLX: 0.890
       a = -3.000      CL = -0.2555
      Cm = -0.0431     CD =  0.00984   =>   CDf =  0.00616    CDp =  0.00368

 Side 1  free  transition at x/c =  0.9708   73
 Side 2  free  transition at x/c =  0.1012   27

  38   rms: 0.9435E-01   max: 0.1061E+01   C at   27  2   RLX: 0.782
       a = -3.000      CL = -0.2932
      Cm = -0.0345     CD =  0.01023   =>   CDf =  0.00622    CDp =  0.00401

 Side 1  free  transition at x/c =  0.9519   72
 Side 2  free  transition at x/c =  0.0842   26

  39   rms: 0.7153E-01   max: -.5694E+00   T at   72  1   RLX: 0.878
       a = -3.000      CL = -0.2550
      Cm = -0.0427     CD =  0.01010   =>   CDf =  0.00630    CDp =  0.00380

 Side 1  free  transition at x/c =  0.9724   74
 Side 2  free  transition at x/c =  0.0921   26

  40   rms: 0.2898E-01   max: 0.2850E+00   D at   74  1
       a = -3.000      CL = -0.2546
      Cm = -0.0429     CD =  0.01013   =>   CDf =  0.00629    CDp =  0.00384

 Side 1  free  transition at x/c =  0.9706   73
 Side 2  free  transition at x/c =  0.0931   27

  41   rms: 0.7798E-01   max: 0.7496E+00   T at   73  1   RLX: 0.821
       a = -3.000      CL = -0.2923
      Cm = -0.0346     CD =  0.01036   =>   CDf =  0.00628    CDp =  0.00408

 Side 1  free  transition at x/c =  0.9520   72
 Side 2  free  transition at x/c =  0.0792   26

  42   rms: 0.8133E-01   max: -.5728E+00   T at   72  1   RLX: 0.873
       a = -3.000      CL = -0.2549
      Cm = -0.0427     CD =  0.01001   =>   CDf =  0.00638    CDp =  0.00363

 Side 1  free  transition at x/c =  0.9726   74
 Side 2  free  transition at x/c =  0.1189   28

  43   rms: 0.4509E-01   max: -.5619E+00   C at   28  2   RLX: 0.890
       a = -3.000      CL = -0.2555
      Cm = -0.0431     CD =  0.00984   =>   CDf =  0.00616    CDp =  0.00368

 Side 1  free  transition at x/c =  0.9708   73
 Side 2  free  transition at x/c =  0.1012   27

  44   rms: 0.9434E-01   max: 0.1061E+01   C at   27  2   RLX: 0.782
       a = -3.000      CL = -0.2932
      Cm = -0.0345     CD =  0.01023   =>   CDf =  0.00622    CDp =  0.00401

 Side 1  free  transition at x/c =  0.9519   72
 Side 2  free  transition at x/c =  0.0842   26

  45   rms: 0.7153E-01   max: -.5694E+00   T at   72  1   RLX: 0.878
       a = -3.000      CL = -0.2550
      Cm = -0.0427     CD =  0.01010   =>   CDf =  0.00630    CDp =  0.00380

 Side 1  free  transition at x/c =  0.9724   74
 Side 2  free  transition at x/c =  0.0921   26

  46   rms: 0.2898E-01   max: 0.2850E+00   D at   74  1
       a = -3.000      CL = -0.2546
      Cm = -0.0429     CD =  0.01013   =>   CDf =  0.00629    CDp =  0.00384

 Side 1  free  transition at x/c =  0.9706   73
 Side 2  free  transition at x/c =  0.0931   27

  47   rms: 0.7798E-01   max: 0.7496E+00   T at   73  1   RLX: 0.821
       a = -3.000      CL = -0.2923
      Cm = -0.0346     CD =  0.01036   =>   CDf =  0.00628    CDp =  0.00408

 Side 1  free  transition at x/c =  0.9520   72
 Side 2  free  transition at x/c =  0.0792   26

  48   rms: 0.8133E-01   max: -.5727E+00   T at   72  1   RLX: 0.873
       a = -3.000      CL = -0.2549
      Cm = -0.0427     CD =  0.01001   =>   CDf =  0.00638    CDp =  0.00363

 Side 1  free  transition at x/c =  0.9726   74
 Side 2  free  transition at x/c =  0.1189   28

  49   rms: 0.4509E-01   max: -.5619E+00   C at   28  2   RLX: 0.890
       a = -3.000      CL = -0.2555
      Cm = -0.0431     CD =  0.00984   =>   CDf =  0.00616    CDp =  0.00368

 Side 1  free  transition at x/c =  0.9708   73
 Side 2  free  transition at x/c =  0.1012   27

  50   rms: 0.9434E-01   max: 0.1061E+01   C at   27  2   RLX: 0.782
       a = -3.000      CL = -0.2932
      Cm = -0.0345     CD =  0.01023   =>   CDf =  0.00622    CDp =  0.00401

 Side 1  free  transition at x/c =  0.9519   72
 Side 2  free  transition at x/c =  0.0842   26

  51   rms: 0.7153E-01   max: -.5694E+00   T at   72  1   RLX: 0.878
       a = -3.000      CL = -0.2550
      Cm = -0.0427     CD =  0.01010   =>   CDf =  0.00630    CDp =  0.00380

 Side 1  free  transition at x/c =  0.9724   74
 Side 2  free  transition at x/c =  0.0921   26

  52   rms: 0.2897E-01   max: 0.2850E+00   D at   74  1
       a = -3.000      CL = -0.2546
      Cm = -0.0429     CD =  0.01013   =>   CDf =  0.00629    CDp =  0.00384

 Side 1  free  transition at x/c =  0.9706   73
 Side 2  free  transition at x/c =  0.0931   27

  53   rms: 0.7798E-01   max: 0.7496E+00   T at   73  1   RLX: 0.821
       a = -3.000      CL = -0.2923
      Cm = -0.0346     CD =  0.01036   =>   CDf =  0.00628    CDp =  0.00408

 Side 1  free  transition at x/c =  0.9520   72
 Side 2  free  transition at x/c =  0.0792   26

  54   rms: 0.8133E-01   max: -.5727E+00   T at   72  1   RLX: 0.873
       a = -3.000      CL = -0.2549
      Cm = -0.0427     CD =  0.01001   =>   CDf =  0.00638    CDp =  0.00363

 Side 1  free  transition at x/c =  0.9726   74
 Side 2  free  transition at x/c =  0.1189   28

  55   rms: 0.4509E-01   max: -.5618E+00   C at   28  2   RLX: 0.890
       a = -3.000      CL = -0.2555
      Cm = -0.0431     CD =  0.00984   =>   CDf =  0.00616    CDp =  0.00368

 Side 1  free  transition at x/c =  0.9708   73
 Side 2  free  transition at x/c =  0.1012   27

  56   rms: 0.9433E-01   max: 0.1061E+01   C at   27  2   RLX: 0.782
       a = -3.000      CL = -0.2932
      Cm = -0.0345     CD =  0.01023   =>   CDf =  0.00622    CDp =  0.00401

 Side 1  free  transition at x/c =  0.9519   72
 Side 2  free  transition at x/c =  0.0842   26

  57   rms: 0.7153E-01   max: -.5694E+00   T at   72  1   RLX: 0.878
       a = -3.000      CL = -0.2550
      Cm = -0.0427     CD =  0.01010   =>   CDf =  0.00630    CDp =  0.00380

 Side 1  free  transition at x/c =  0.9724   74
 Side 2  free  transition at x/c =  0.0921   26

  58   rms: 0.2898E-01   max: 0.2850E+00   D at   74  1
       a = -3.000      CL = -0.2546
      Cm = -0.0429     CD =  0.01013   =>   CDf =  0.00629    CDp =  0.00384

 Side 1  free  transition at x/c =  0.9706   73
 Side 2  free  transition at x/c =  0.0931   27

  59   rms: 0.7797E-01   max: 0.7495E+00   T at   73  1   RLX: 0.821
       a = -3.000      CL = -0.2923
      Cm = -0.0346     CD =  0.01036   =>   CDf =  0.00628    CDp =  0.00408

 Side 1  free  transition at x/c =  0.9520   72
 Side 2  free  transition at x/c =  0.0792   26

  60   rms: 0.8133E-01   max: -.5727E+00   T at   72  1   RLX: 0.873
       a = -3.000      CL = -0.2549
      Cm = -0.0427     CD =  0.01001   =>   CDf =  0.00638    CDp =  0.00363

 Side 1  free  transition at x/c =  0.9726   74
 Side 2  free  transition at x/c =  0.1189   28

  61   rms: 0.4509E-01   max: -.5618E+00   C at   28  2   RLX: 0.890
       a = -3.000      CL = -0.2555
      Cm = -0.0431     CD =  0.00984   =>   CDf =  0.00616    CDp =  0.00368

 Side 1  free  transition at x/c =  0.9708   73
 Side 2  free  transition at x/c =  0.1012   27

  62   rms: 0.9433E-01   max: 0.1061E+01   C at   27  2   RLX: 0.782
       a = -3.000      CL = -0.2932
      Cm = -0.0345     CD =  0.01023   =>   CDf =  0.00622    CDp =  0.00401

 Side 1  free  transition at x/c =  0.9519   72
 Side 2  free  transition at x/c =  0.0842   26

  63   rms: 0.7153E-01   max: -.5694E+00   T at   72  1   RLX: 0.878
       a = -3.000      CL = -0.2550
      Cm = -0.0427     CD =  0.01010   =>   CDf =  0.00630    CDp =  0.00380

 Side 1  free  transition at x/c =  0.9724   74
 Side 2  free  transition at x/c =  0.0921   26

  64   rms: 0.2897E-01   max: 0.2850E+00   D at   74  1
       a = -3.000      CL = -0.2546
      Cm = -0.0429     CD =  0.01013   =>   CDf =  0.00629    CDp =  0.00384

 Side 1  free  transition at x/c =  0.9706   73
 Side 2  free  transition at x/c =  0.0931   27

  65   rms: 0.7798E-01   max: 0.7496E+00   T at   73  1   RLX: 0.821
       a = -3.000      CL = -0.2923
      Cm = -0.0346     CD =  0.01036   =>   CDf =  0.00628    CDp =  0.00408

 Side 1  free  transition at x/c =  0.9520   72
 Side 2  free  transition at x/c =  0.0792   26

  66   rms: 0.8133E-01   max: -.5728E+00   T at   72  1   RLX: 0.873
       a = -3.000      CL = -0.2549
      Cm = -0.0427     CD =  0.01001   =>   CDf =  0.00638    CDp =  0.00363

 Side 1  free  transition at x/c =  0.9726   74
 Side 2  free  transition at x/c =  0.1189   28

  67   rms: 0.4509E-01   max: -.5619E+00   C at   28  2   RLX: 0.890
       a = -3.000      CL = -0.2555
      Cm = -0.0431     CD =  0.00984   =>   CDf =  0.00616    CDp =  0.00368

 Side 1  free  transition at x/c =  0.9708   73
 Side 2  free  transition at x/c =  0.1012   27

  68   rms: 0.9434E-01   max: 0.1061E+01   C at   27  2   RLX: 0.782
       a = -3.000      CL = -0.2932
      Cm = -0.0345     CD =  0.01023   =>   CDf =  0.00622    CDp =  0.00401

 Side 1  free  transition at x/c =  0.9519   72
 Side 2  free  transition at x/c =  0.0842   26

  69   rms: 0.7153E-01   max: -.5694E+00   T at   72  1   RLX: 0.878
       a = -3.000      CL = -0.2550
      Cm = -0.0427     CD =  0.01010   =>   CDf =  0.00630    CDp =  0.00380

 Side 1  free  transition at x/c =  0.9724   74
 Side 2  free  transition at x/c =  0.0921   26

  70   rms: 0.2898E-01   max: 0.2850E+00   D at   74  1
       a = -3.000      CL = -0.2546
      Cm = -0.0429     CD =  0.01013   =>   CDf =  0.00629    CDp =  0.00384

 Side 1  free  transition at x/c =  0.9706   73
 Side 2  free  transition at x/c =  0.0931   27

  71   rms: 0.7798E-01   max: 0.7496E+00   T at   73  1   RLX: 0.821
       a = -3.000      CL = -0.2923
      Cm = -0.0346     CD =  0.01036   =>   CDf =  0.00628    CDp =  0.00408

 Side 1  free  transition at x/c =  0.9520   72
 Side 2  free  transition at x/c =  0.0792   26

  72   rms: 0.8133E-01   max: -.5728E+00   T at   72  1   RLX: 0.873
       a = -3.000      CL = -0.2549
      Cm = -0.0427     CD =  0.01001   =>   CDf =  0.00638    CDp =  0.00363

 Side 1  free  transition at x/c =  0.9726   74
 Side 2  free  transition at x/c =  0.1189   28

  73   rms: 0.4509E-01   max: -.5618E+00   C at   28  2   RLX: 0.890
       a = -3.000      CL = -0.2555
      Cm = -0.0431     CD =  0.00984   =>   CDf =  0.00616    CDp =  0.00368

 Side 1  free  transition at x/c =  0.9708   73
 Side 2  free  transition at x/c =  0.1012   27

  74   rms: 0.9433E-01   max: 0.1061E+01   C at   27  2   RLX: 0.782
       a = -3.000      CL = -0.2932
      Cm = -0.0345     CD =  0.01023   =>   CDf =  0.00622    CDp =  0.00401

 Side 1  free  transition at x/c =  0.9519   72
 Side 2  free  transition at x/c =  0.0842   26

  75   rms: 0.7153E-01   max: -.5694E+00   T at   72  1   RLX: 0.878
       a = -3.000      CL = -0.2550
      Cm = -0.0427     CD =  0.01010   =>   CDf =  0.00630    CDp =  0.00380

 Side 1  free  transition at x/c =  0.9724   74
 Side 2  free  transition at x/c =  0.0921   26

  76   rms: 0.2898E-01   max: 0.2850E+00   D at   74  1
       a = -3.000      CL = -0.2546
      Cm = -0.0429     CD =  0.01013   =>   CDf =  0.00629    CDp =  0.00384

 Side 1  free  transition at x/c =  0.9706   73
 Side 2  free  transition at x/c =  0.0931   27

  77   rms: 0.7797E-01   max: 0.7495E+00   T at   73  1   RLX: 0.821
       a = -3.000      CL = -0.2923
      Cm = -0.0346     CD =  0.01036   =>   CDf =  0.00628    CDp =  0.00408

 Side 1  free  transition at x/c =  0.9520   72
 Side 2  free  transition at x/c =  0.0792   26

  78   rms: 0.8133E-01   max: -.5727E+00   T at   72  1   RLX: 0.873
       a = -3.000      CL = -0.2549
      Cm = -0.0427     CD =  0.01001   =>   CDf =  0.00638    CDp =  0.00363

 Side 1  free  transition at x/c =  0.9726   74
 Side 2  free  transition at x/c =  0.1189   28

  79   rms: 0.4509E-01   max: -.5619E+00   C at   28  2   RLX: 0.890
       a = -3.000      CL = -0.2555
      Cm = -0.0431     CD =  0.00984   =>   CDf =  0.00616    CDp =  0.00368

 Side 1  free  transition at x/c =  0.9708   73
 Side 2  free  transition at x/c =  0.1012   27

  80   rms: 0.9435E-01   max: 0.1061E+01   C at   27  2   RLX: 0.782
       a = -3.000      CL = -0.2932
      Cm = -0.0345     CD =  0.01023   =>   CDf =  0.00622    CDp =  0.00401

 Side 1  free  transition at x/c =  0.9519   72
 Side 2  free  transition at x/c =  0.0842   26

  81   rms: 0.7153E-01   max: -.5694E+00   T at   72  1   RLX: 0.878
       a = -3.000      CL = -0.2550
      Cm = -0.0427     CD =  0.01010   =>   CDf =  0.00630    CDp =  0.00380

 Side 1  free  transition at x/c =  0.9724   74
 Side 2  free  transition at x/c =  0.0921   26

  82   rms: 0.2898E-01   max: 0.2850E+00   D at   74  1
       a = -3.000      CL = -0.2546
      Cm = -0.0429     CD =  0.01013   =>   CDf =  0.00629    CDp =  0.00384

 Side 1  free  transition at x/c =  0.9706   73
 Side 2  free  transition at x/c =  0.0931   27

  83   rms: 0.7798E-01   max: 0.7496E+00   T at   73  1   RLX: 0.821
       a = -3.000      CL = -0.2923
      Cm = -0.0346     CD =  0.01036   =>   CDf =  0.00628    CDp =  0.00408

 Side 1  free  transition at x/c =  0.9520   72
 Side 2  free  transition at x/c =  0.0792   26

  84   rms: 0.8133E-01   max: -.5728E+00   T at   72  1   RLX: 0.873
       a = -3.000      CL = -0.2549
      Cm = -0.0427     CD =  0.01001   =>   CDf =  0.00638    CDp =  0.00363

 Side 1  free  transition at x/c =  0.9726   74
 Side 2  free  transition at x/c =  0.1189   28

  85   rms: 0.4509E-01   max: -.5618E+00   C at   28  2   RLX: 0.890
       a = -3.000      CL = -0.2555
      Cm = -0.0431     CD =  0.00984   =>   CDf =  0.00616    CDp =  0.00368

 Side 1  free  transition at x/c =  0.9708   73
 Side 2  free  transition at x/c =  0.1012   27

  86   rms: 0.9433E-01   max: 0.1061E+01   C at   27  2   RLX: 0.782
       a = -3.000      CL = -0.2932
      Cm = -0.0345     CD =  0.01023   =>   CDf =  0.00622    CDp =  0.00401

 Side 1  free  transition at x/c =  0.9519   72
 Side 2  free  transition at x/c =  0.0842   26

  87   rms: 0.7153E-01   max: -.5694E+00   T at   72  1   RLX: 0.878
       a = -3.000      CL = -0.2550
      Cm = -0.0427     CD =  0.01010   =>   CDf =  0.00630    CDp =  0.00380

 Side 1  free  transition at x/c =  0.9724   74
 Side 2  free  transition at x/c =  0.0921   26

  88   rms: 0.2898E-01   max: 0.2850E+00   D at   74  1
       a = -3.000      CL = -0.2546
      Cm = -0.0429     CD =  0.01013   =>   CDf =  0.00629    CDp =  0.00384

 Side 1  free  transition at x/c =  0.9706   73
 Side 2  free  transition at x/c =  0.0931   27

  89   rms: 0.7798E-01   max: 0.7496E+00   T at   73  1   RLX: 0.821
       a = -3.000      CL = -0.2923
      Cm = -0.0346     CD =  0.01036   =>   CDf =  0.00628    CDp =  0.00408

 Side 1  free  transition at x/c =  0.9520   72
 Side 2  free  transition at x/c =  0.0792   26

  90   rms: 0.8133E-01   max: -.5727E+00   T at   72  1   RLX: 0.873
       a = -3.000      CL = -0.2549
      Cm = -0.0427     CD =  0.01001   =>   CDf =  0.00638    CDp =  0.00363

 Side 1  free  transition at x/c =  0.9726   74
 Side 2  free  transition at x/c =  0.1189   28

  91   rms: 0.4509E-01   max: -.5620E+00   C at   28  2   RLX: 0.890
       a = -3.000      CL = -0.2555
      Cm = -0.0431     CD =  0.00984   =>   CDf =  0.00616    CDp =  0.00368

 Side 1  free  transition at x/c =  0.9708   73
 Side 2  free  transition at x/c =  0.1012   27

  92   rms: 0.9435E-01   max: 0.1061E+01   C at   27  2   RLX: 0.781
       a = -3.000      CL = -0.2932
      Cm = -0.0345     CD =  0.01023   =>   CDf =  0.00622    CDp =  0.00401

 Side 1  free  transition at x/c =  0.9519   72
 Side 2  free  transition at x/c =  0.0842   26

  93   rms: 0.7153E-01   max: -.5694E+00   T at   72  1   RLX: 0.878
       a = -3.000      CL = -0.2550
      Cm = -0.0427     CD =  0.01010   =>   CDf =  0.00630    CDp =  0.00380

 Side 1  free  transition at x/c =  0.9724   74
 Side 2  free  transition at x/c =  0.0921   26

  94   rms: 0.2898E-01   max: 0.2850E+00   D at   74  1
       a = -3.000      CL = -0.2546
      Cm = -0.0429     CD =  0.01013   =>   CDf =  0.00629    CDp =  0.00384

 Side 1  free  transition at x/c =  0.9706   73
 Side 2  free  transition at x/c =  0.0931   27

  95   rms: 0.7798E-01   max: 0.7496E+00   T at   73  1   RLX: 0.820
       a = -3.000      CL = -0.2923
      Cm = -0.0346     CD =  0.01036   =>   CDf =  0.00628    CDp =  0.00408

 Side 1  free  transition at x/c =  0.9520   72
 Side 2  free  transition at x/c =  0.0792   26

  96   rms: 0.8133E-01   max: -.5728E+00   T at   72  1   RLX: 0.873
       a = -3.000      CL = -0.2549
      Cm = -0.0427     CD =  0.01001   =>   CDf =  0.00638    CDp =  0.00363

 Side 1  free  transition at x/c =  0.9726   74
 Side 2  free  transition at x/c =  0.1189   28

  97   rms: 0.4509E-01   max: -.5618E+00   C at   28  2   RLX: 0.890
       a = -3.000      CL = -0.2555
      Cm = -0.0431     CD =  0.00984   =>   CDf =  0.00616    CDp =  0.00368

 Side 1  free  transition at x/c =  0.9708   73
 Side 2  free  transition at x/c =  0.1012   27

  98   rms: 0.9434E-01   max: 0.1061E+01   C at   27  2   RLX: 0.782
       a = -3.000      CL = -0.2932
      Cm = -0.0345     CD =  0.01023   =>   CDf =  0.00622    CDp =  0.00401

 Side 1  free  transition at x/c =  0.9519   72
 Side 2  free  transition at x/c =  0.0842   26

  99   rms: 0.7153E-01   max: -.5694E+00   T at   72  1   RLX: 0.878
       a = -3.000      CL = -0.2550
      Cm = -0.0427     CD =  0.01010   =>   CDf =  0.00630    CDp =  0.00380

 Side 1  free  transition at x/c =  0.9724   74
 Side 2  free  transition at x/c =  0.0921   26

 100   rms: 0.2898E-01   max: 0.2850E+00   D at   74  1
       a = -3.000      CL = -0.2546
      Cm = -0.0429     CD =  0.01013   =>   CDf =  0.00629    CDp =  0.00384

 Side 1  free  transition at x/c =  0.9706   73
 Side 2  free  transition at x/c =  0.0931   27

 101   rms: 0.7797E-01   max: 0.7495E+00   T at   73  1   RLX: 0.821
       a = -3.000      CL = -0.2923
      Cm = -0.0346     CD =  0.01036   =>   CDf =  0.00628    CDp =  0.00408

 Side 1  free  transition at x/c =  0.9520   72
 Side 2  free  transition at x/c =  0.0792   26

 102   rms: 0.8133E-01   max: -.5727E+00   T at   72  1   RLX: 0.873
       a = -3.000      CL = -0.2549
      Cm = -0.0427     CD =  0.01001   =>   CDf =  0.00638    CDp =  0.00363

 Side 1  free  transition at x/c =  0.9726   74
 Side 2  free  transition at x/c =  0.1189   28

 103   rms: 0.4509E-01   max: -.5619E+00   C at   28  2   RLX: 0.890
       a = -3.000      CL = -0.2555
      Cm = -0.0431     CD =  0.00984   =>   CDf =  0.00616    CDp =  0.00368

 Side 1  free  transition at x/c =  0.9708   73
 Side 2  free  transition at x/c =  0.1012   27

 104   rms: 0.9434E-01   max: 0.1061E+01   C at   27  2   RLX: 0.782
       a = -3.000      CL = -0.2932
      Cm = -0.0345     CD =  0.01023   =>   CDf =  0.00622    CDp =  0.00401

 Side 1  free  transition at x/c =  0.9519   72
 Side 2  free  transition at x/c =  0.0842   26

 105   rms: 0.7153E-01   max: -.5694E+00   T at   72  1   RLX: 0.878
       a = -3.000      CL = -0.2550
      Cm = -0.0427     CD =  0.01010   =>   CDf =  0.00630    CDp =  0.00380

 Side 1  free  transition at x/c =  0.9724   74
 Side 2  free  transition at x/c =  0.0921   26

 106   rms: 0.2897E-01   max: 0.2849E+00   D at   74  1
       a = -3.000      CL = -0.2546
      Cm = -0.0429     CD =  0.01013   =>   CDf =  0.00629    CDp =  0.00384

 Side 1  free  transition at x/c =  0.9706   73
 Side 2  free  transition at x/c =  0.0931   27

 107   rms: 0.7797E-01   max: 0.7495E+00   T at   73  1   RLX: 0.821
       a = -3.000      CL = -0.2923
      Cm = -0.0346     CD =  0.01036   =>   CDf =  0.00628    CDp =  0.00408

 Side 1  free  transition at x/c =  0.9520   72
 Side 2  free  transition at x/c =  0.0792   26

 108   rms: 0.8133E-01   max: -.5727E+00   T at   72  1   RLX: 0.873
       a = -3.000      CL = -0.2549
      Cm = -0.0427     CD =  0.01001   =>   CDf =  0.00638    CDp =  0.00363

 Side 1  free  transition at x/c =  0.9726   74
 Side 2  free  transition at x/c =  0.1189   28

 109   rms: 0.4509E-01   max: -.5619E+00   C at   28  2   RLX: 0.890
       a = -3.000      CL = -0.2555
      Cm = -0.0431     CD =  0.00984   =>   CDf =  0.00616    CDp =  0.00368

 Side 1  free  transition at x/c =  0.9708   73
 Side 2  free  transition at x/c =  0.1012   27

 110   rms: 0.9434E-01   max: 0.1061E+01   C at   27  2   RLX: 0.782
       a = -3.000      CL = -0.2932
      Cm = -0.0345     CD =  0.01023   =>   CDf =  0.00622    CDp =  0.00401

 Side 1  free  transition at x/c =  0.9519   72
 Side 2  free  transition at x/c =  0.0842   26

 111   rms: 0.7153E-01   max: -.5694E+00   T at   72  1   RLX: 0.878
       a = -3.000      CL = -0.2550
      Cm = -0.0427     CD =  0.01010   =>   CDf =  0.00630    CDp =  0.00380

 Side 1  free  transition at x/c =  0.9724   74
 Side 2  free  transition at x/c =  0.0921   26

 112   rms: 0.2898E-01   max: 0.2850E+00   D at   74  1
       a = -3.000      CL = -0.2546
      Cm = -0.0429     CD =  0.01013   =>   CDf =  0.00629    CDp =  0.00384

 Side 1  free  transition at x/c =  0.9706   73
 Side 2  free  transition at x/c =  0.0931   27

 113   rms: 0.7798E-01   max: 0.7496E+00   T at   73  1   RLX: 0.821
       a = -3.000      CL = -0.2923
      Cm = -0.0346     CD =  0.01036   =>   CDf =  0.00628    CDp =  0.00408

 Side 1  free  transition at x/c =  0.9520   72
 Side 2  free  transition at x/c =  0.0792   26

 114   rms: 0.8133E-01   max: -.5728E+00   T at   72  1   RLX: 0.873
       a = -3.000      CL = -0.2549
      Cm = -0.0427     CD =  0.01001   =>   CDf =  0.00638    CDp =  0.00363

 Side 1  free  transition at x/c =  0.9726   74
 Side 2  free  transition at x/c =  0.1189   28

 115   rms: 0.4509E-01   max: -.5619E+00   C at   28  2   RLX: 0.890
       a = -3.000      CL = -0.2555
      Cm = -0.0431     CD =  0.00984   =>   CDf =  0.00616    CDp =  0.00368

 Side 1  free  transition at x/c =  0.9708   73
 Side 2  free  transition at x/c =  0.1012   27

 116   rms: 0.9434E-01   max: 0.1061E+01   C at   27  2   RLX: 0.782
       a = -3.000      CL = -0.2932
      Cm = -0.0345     CD =  0.01023   =>   CDf =  0.00622    CDp =  0.00401

 Side 1  free  transition at x/c =  0.9519   72
 Side 2  free  transition at x/c =  0.0842   26

 117   rms: 0.7153E-01   max: -.5694E+00   T at   72  1   RLX: 0.878
       a = -3.000      CL = -0.2550
      Cm = -0.0427     CD =  0.01010   =>   CDf =  0.00630    CDp =  0.00380

 Side 1  free  transition at x/c =  0.9724   74
 Side 2  free  transition at x/c =  0.0921   26

 118   rms: 0.2898E-01   max: 0.2850E+00   D at   74  1
       a = -3.000      CL = -0.2546
      Cm = -0.0429     CD =  0.01013   =>   CDf =  0.00629    CDp =  0.00384

 Side 1  free  transition at x/c =  0.9706   73
 Side 2  free  transition at x/c =  0.0931   27

 119   rms: 0.7798E-01   max: 0.7496E+00   T at   73  1   RLX: 0.821
       a = -3.000      CL = -0.2923
      Cm = -0.0346     CD =  0.01036   =>   CDf =  0.00628    CDp =  0.00408

 Side 1  free  transition at x/c =  0.9520   72
 Side 2  free  transition at x/c =  0.0792   26

 120   rms: 0.8133E-01   max: -.5728E+00   T at   72  1   RLX: 0.873
       a = -3.000      CL = -0.2549
      Cm = -0.0427     CD =  0.01001   =>   CDf =  0.00638    CDp =  0.00363

 Side 1  free  transition at x/c =  0.9726   74
 Side 2  free  transition at x/c =  0.1189   28

 121   rms: 0.4509E-01   max: -.5618E+00   C at   28  2   RLX: 0.890
       a = -3.000      CL = -0.2555
      Cm = -0.0431     CD =  0.00984   =>   CDf =  0.00616    CDp =  0.00368

 Side 1  free  transition at x/c =  0.9708   73
 Side 2  free  transition at x/c =  0.1012   27

 122   rms: 0.9433E-01   max: 0.1061E+01   C at   27  2   RLX: 0.782
       a = -3.000      CL = -0.2932
      Cm = -0.0345     CD =  0.01023   =>   CDf =  0.00622    CDp =  0.00401

 Side 1  free  transition at x/c =  0.9519   72
 Side 2  free  transition at x/c =  0.0842   26

 123   rms: 0.7153E-01   max: -.5694E+00   T at   72  1   RLX: 0.878
       a = -3.000      CL = -0.2550
      Cm = -0.0427     CD =  0.01010   =>   CDf =  0.00630    CDp =  0.00380

 Side 1  free  transition at x/c =  0.9724   74
 Side 2  free  transition at x/c =  0.0921   26

 124   rms: 0.2897E-01   max: 0.2850E+00   D at   74  1
       a = -3.000      CL = -0.2546
      Cm = -0.0429     CD =  0.01013   =>   CDf =  0.00629    CDp =  0.00384

 Side 1  free  transition at x/c =  0.9706   73
 Side 2  free  transition at x/c =  0.0931   27

 125   rms: 0.7798E-01   max: 0.7496E+00   T at   73  1   RLX: 0.821
       a = -3.000      CL = -0.2923
      Cm = -0.0346     CD =  0.01036   =>   CDf =  0.00628    CDp =  0.00408

 Side 1  free  transition at x/c =  0.9520   72
 Side 2  free  transition at x/c =  0.0792   26

 126   rms: 0.8133E-01   max: -.5728E+00   T at   72  1   RLX: 0.873
       a = -3.000      CL = -0.2549
      Cm = -0.0427     CD =  0.01001   =>   CDf =  0.00638    CDp =  0.00363

 Side 1  free  transition at x/c =  0.9726   74
 Side 2  free  transition at x/c =  0.1189   28

 127   rms: 0.4509E-01   max: -.5618E+00   C at   28  2   RLX: 0.890
       a = -3.000      CL = -0.2555
      Cm = -0.0431     CD =  0.00984   =>   CDf =  0.00616    CDp =  0.00368

 Side 1  free  transition at x/c =  0.9708   73
 Side 2  free  transition at x/c =  0.1012   27

 128   rms: 0.9434E-01   max: 0.1061E+01   C at   27  2   RLX: 0.782
       a = -3.000      CL = -0.2932
      Cm = -0.0345     CD =  0.01023   =>   CDf =  0.00622    CDp =  0.00401

 Side 1  free  transition at x/c =  0.9519   72
 Side 2  free  transition at x/c =  0.0842   26

 129   rms: 0.7153E-01   max: -.5694E+00   T at   72  1   RLX: 0.878
       a = -3.000      CL = -0.2550
      Cm = -0.0427     CD =  0.01010   =>   CDf =  0.00630    CDp =  0.00380

 Side 1  free  transition at x/c =  0.9724   74
 Side 2  free  transition at x/c =  0.0921   26

 130   rms: 0.2898E-01   max: 0.2850E+00   D at   74  1
       a = -3.000      CL = -0.2546
      Cm = -0.0429     CD =  0.01013   =>   CDf =  0.00629    CDp =  0.00384

 Side 1  free  transition at x/c =  0.9706   73
 Side 2  free  transition at x/c =  0.0931   27

 131   rms: 0.7797E-01   max: 0.7495E+00   T at   73  1   RLX: 0.821
       a = -3.000      CL = -0.2923
      Cm = -0.0346     CD =  0.01036   =>   CDf =  0.00628    CDp =  0.00408

 Side 1  free  transition at x/c =  0.9520   72
 Side 2  free  transition at x/c =  0.0792   26

 132   rms: 0.8133E-01   max: -.5727E+00   T at   72  1   RLX: 0.873
       a = -3.000      CL = -0.2549
      Cm = -0.0427     CD =  0.01001   =>   CDf =  0.00638    CDp =  0.00363

 Side 1  free  transition at x/c =  0.9726   74
 Side 2  free  transition at x/c =  0.1189   28

 133   rms: 0.4509E-01   max: -.5619E+00   C at   28  2   RLX: 0.890
       a = -3.000      CL = -0.2555
      Cm = -0.0431     CD =  0.00984   =>   CDf =  0.00616    CDp =  0.00368

 Side 1  free  transition at x/c =  0.9708   73
 Side 2  free  transition at x/c =  0.1012   27

 134   rms: 0.9434E-01   max: 0.1061E+01   C at   27  2   RLX: 0.782
       a = -3.000      CL = -0.2932
      Cm = -0.0345     CD =  0.01023   =>   CDf =  0.00622    CDp =  0.00401

 Side 1  free  transition at x/c =  0.9519   72
 Side 2  free  transition at x/c =  0.0842   26

 135   rms: 0.7153E-01   max: -.5694E+00   T at   72  1   RLX: 0.878
       a = -3.000      CL = -0.2550
      Cm = -0.0427     CD =  0.01010   =>   CDf =  0.00630    CDp =  0.00380

 Side 1  free  transition at x/c =  0.9724   74
 Side 2  free  transition at x/c =  0.0921   26

 136   rms: 0.2898E-01   max: 0.2850E+00   D at   74  1
       a = -3.000      CL = -0.2546
      Cm = -0.0429     CD =  0.01013   =>   CDf =  0.00629    CDp =  0.00384

 Side 1  free  transition at x/c =  0.9706   73
 Side 2  free  transition at x/c =  0.0931   27

 137   rms: 0.7797E-01   max: 0.7495E+00   T at   73  1   RLX: 0.821
       a = -3.000      CL = -0.2923
      Cm = -0.0346     CD =  0.01036   =>   CDf =  0.00628    CDp =  0.00408

 Side 1  free  transition at x/c =  0.9520   72
 Side 2  free  transition at x/c =  0.0792   26

 138   rms: 0.8133E-01   max: -.5727E+00   T at   72  1   RLX: 0.873
       a = -3.000      CL = -0.2549
      Cm = -0.0427     CD =  0.01001   =>   CDf =  0.00638    CDp =  0.00363

 Side 1  free  transition at x/c =  0.9726   74
 Side 2  free  transition at x/c =  0.1189   28

 139   rms: 0.4509E-01   max: -.5620E+00   C at   28  2   RLX: 0.890
       a = -3.000      CL = -0.2555
      Cm = -0.0431     CD =  0.00984   =>   CDf =  0.00616    CDp =  0.00368

 Side 1  free  transition at x/c =  0.9708   73
 Side 2  free  transition at x/c =  0.1012   27

 140   rms: 0.9434E-01   max: 0.1061E+01   C at   27  2   RLX: 0.782
       a = -3.000      CL = -0.2932
      Cm = -0.0345     CD =  0.01023   =>   CDf =  0.00622    CDp =  0.00401

 Side 1  free  transition at x/c =  0.9519   72
 Side 2  free  transition at x/c =  0.0842   26

 141   rms: 0.7153E-01   max: -.5694E+00   T at   72  1   RLX: 0.878
       a = -3.000      CL = -0.2550
      Cm = -0.0427     CD =  0.01010   =>   CDf =  0.00630    CDp =  0.00380

 Side 1  free  transition at x/c =  0.9724   74
 Side 2  free  transition at x/c =  0.0921   26

 142   rms: 0.2897E-01   max: 0.2849E+00   D at   74  1
       a = -3.000      CL = -0.2546
      Cm = -0.0429     CD =  0.01013   =>   CDf =  0.00629    CDp =  0.00384

 Side 1  free  transition at x/c =  0.9706   73
 Side 2  free  transition at x/c =  0.0931   27

 143   rms: 0.7798E-01   max: 0.7496E+00   T at   73  1   RLX: 0.821
       a = -3.000      CL = -0.2923
      Cm = -0.0346     CD =  0.01036   =>   CDf =  0.00628    CDp =  0.00408

 Side 1  free  transition at x/c =  0.9520   72
 Side 2  free  transition at x/c =  0.0792   26

 144   rms: 0.8133E-01   max: -.5727E+00   T at   72  1   RLX: 0.873
       a = -3.000      CL = -0.2549
      Cm = -0.0427     CD =  0.01001   =>   CDf =  0.00638    CDp =  0.00363

 Side 1  free  transition at x/c =  0.9726   74
 Side 2  free  transition at x/c =  0.1189   28

 145   rms: 0.4509E-01   max: -.5620E+00   C at   28  2   RLX: 0.890
       a = -3.000      CL = -0.2555
      Cm = -0.0431     CD =  0.00984   =>   CDf =  0.00616    CDp =  0.00368

 Side 1  free  transition at x/c =  0.9708   73
 Side 2  free  transition at x/c =  0.1012   27

 146   rms: 0.9435E-01   max: 0.1061E+01   C at   27  2   RLX: 0.781
       a = -3.000      CL = -0.2932
      Cm = -0.0345     CD =  0.01023   =>   CDf =  0.00622    CDp =  0.00401

 Side 1  free  transition at x/c =  0.9519   72
 Side 2  free  transition at x/c =  0.0842   26

 147   rms: 0.7153E-01   max: -.5694E+00   T at   72  1   RLX: 0.878
       a = -3.000      CL = -0.2550
      Cm = -0.0427     CD =  0.01010   =>   CDf =  0.00630    CDp =  0.00380

 Side 1  free  transition at x/c =  0.9724   74
 Side 2  free  transition at x/c =  0.0921   26

 148   rms: 0.2897E-01   max: 0.2850E+00   D at   74  1
       a = -3.000      CL = -0.2546
      Cm = -0.0429     CD =  0.01013   =>   CDf =  0.00629    CDp =  0.00384

 Side 1  free  transition at x/c =  0.9706   73
 Side 2  free  transition at x/c =  0.0931   27

 149   rms: 0.7798E-01   max: 0.7496E+00   T at   73  1   RLX: 0.821
       a = -3.000      CL = -0.2923
      Cm = -0.0346     CD =  0.01036   =>   CDf =  0.00628    CDp =  0.00408

 Side 1  free  transition at x/c =  0.9520   72
 Side 2  free  transition at x/c =  0.0792   26

 150   rms: 0.8133E-01   max: -.5728E+00   T at   72  1   RLX: 0.873
       a = -3.000      CL = -0.2549
      Cm = -0.0427     CD =  0.01001   =>   CDf =  0.00638    CDp =  0.00363

 Side 1  free  transition at x/c =  0.9726   74
 Side 2  free  transition at x/c =  0.1189   28

 151   rms: 0.4509E-01   max: -.5617E+00   C at   28  2   RLX: 0.890
       a = -3.000      CL = -0.2555
      Cm = -0.0431     CD =  0.00984   =>   CDf =  0.00616    CDp =  0.00368

 Side 1  free  transition at x/c =  0.9708   73
 Side 2  free  transition at x/c =  0.1012   27

 152   rms: 0.9433E-01   max: 0.1061E+01   C at   27  2   RLX: 0.782
       a = -3.000      CL = -0.2932
      Cm = -0.0345     CD =  0.01023   =>   CDf =  0.00622    CDp =  0.00401

 Side 1  free  transition at x/c =  0.9519   72
 Side 2  free  transition at x/c =  0.0842   26

 153   rms: 0.7153E-01   max: -.5694E+00   T at   72  1   RLX: 0.878
       a = -3.000      CL = -0.2550
      Cm = -0.0427     CD =  0.01010   =>   CDf =  0.00630    CDp =  0.00380

 Side 1  free  transition at x/c =  0.9724   74
 Side 2  free  transition at x/c =  0.0921   26

 154   rms: 0.2897E-01   max: 0.2850E+00   D at   74  1
       a = -3.000      CL = -0.2546
      Cm = -0.0429     CD =  0.01013   =>   CDf =  0.00629    CDp =  0.00384

 Side 1  free  transition at x/c =  0.9706   73
 Side 2  free  transition at x/c =  0.0931   27

 155   rms: 0.7797E-01   max: 0.7495E+00   T at   73  1   RLX: 0.821
       a = -3.000      CL = -0.2923
      Cm = -0.0346     CD =  0.01036   =>   CDf =  0.00628    CDp =  0.00408
 VISCAL:  Convergence failed
 Calculating wake trajectory ...
 Calculating source influence matrix ...

 Solving BL system ...

 Side 1  free  transition at x/c =  0.9520   72
 Side 2  free  transition at x/c =  0.0792   26

   1   rms: 0.2100E+00   max: -.1720E+01   C at   26  2   RLX: 0.291
       a = -2.500      CL = -0.2640
      Cm = -0.0369     CD =  0.01060   =>   CDf =  0.00638    CDp =  0.00422

 Side 1  free  transition at x/c =  0.9552   72
 Side 2  free  transition at x/c =  0.1250   29

   2   rms: 0.1591E+00   max: -.1537E+01   C at   29  2   RLX: 0.325
       a = -2.500      CL = -0.2380
      Cm = -0.0411     CD =  0.01006   =>   CDf =  0.00616    CDp =  0.00391

 Side 1  free  transition at x/c =  0.9607   73
 Side 2  free  transition at x/c =  0.1459   30

   3   rms: 0.1412E+00   max: -.2857E+01   C at   30  2   RLX: 0.175
       a = -2.500      CL = -0.2298
      Cm = -0.0420     CD =  0.00954   =>   CDf =  0.00603    CDp =  0.00351

 Side 1  free  transition at x/c =  0.9607   73
 Side 2  free  transition at x/c =  0.1532   31

   4   rms: 0.1080E+00   max: -.1465E+01   C at   31  2   RLX: 0.341
       a = -2.500      CL = -0.2181
      Cm = -0.0427     CD =  0.00935   =>   CDf =  0.00601    CDp =  0.00334

 Side 1  free  transition at x/c =  0.9605   73
 Side 2  free  transition at x/c =  0.1835   32

   5   rms: 0.7995E-01   max: -.1670E+01   C at   32  2   RLX: 0.299
       a = -2.500      CL = -0.2115
      Cm = -0.0431     CD =  0.00924   =>   CDf =  0.00588    CDp =  0.00336

 Side 1  free  transition at x/c =  0.9605   73
 Side 2  free  transition at x/c =  0.2217   35

   6   rms: 0.2213E+00   max: -.4820E+01   C at   35  2   RLX: 0.104
       a = -2.500      CL = -0.2106
      Cm = -0.0433     CD =  0.00895   =>   CDf =  0.00572    CDp =  0.00323

 Side 1  free  transition at x/c =  0.9604   73
 Side 2  free  transition at x/c =  0.2313   35

   7   rms: 0.3592E+00   max: -.7458E+01   C at   35  2   RLX: 0.067
       a = -2.500      CL = -0.2098
      Cm = -0.0433     CD =  0.00889   =>   CDf =  0.00567    CDp =  0.00322

 Side 1  free  transition at x/c =  0.9604   73
 Side 2  free  transition at x/c =  0.2666   38

   8   rms: 0.8373E+00   max: -.1777E+02   C at   38  2   RLX: 0.028
       a = -2.500      CL = -0.2100
      Cm = -0.0434     CD =  0.00866   =>   CDf =  0.00553    CDp =  0.00313

 Side 1  free  transition at x/c =  0.9604   73
 Side 2  free  transition at x/c =  0.2803   39

   9   rms: 0.8401E+00   max: -.1788E+02   C at   39  2   RLX: 0.028
       a = -2.500      CL = -0.2099
      Cm = -0.0434     CD =  0.00858   =>   CDf =  0.00548    CDp =  0.00310

 Side 1  free  transition at x/c =  0.9604   73
 Side 2  free  transition at x/c =  0.2961   40

  10   rms: 0.8981E+00   max: -.1909E+02   C at   40  2   RLX: 0.026
       a = -2.500      CL = -0.2099
      Cm = -0.0434     CD =  0.00849   =>   CDf =  0.00543    CDp =  0.00307

 Side 1  free  transition at x/c =  0.9604   73
 Side 2  free  transition at x/c =  0.3125   41

  11   rms: 0.9795E+00   max: -.2069E+02   C at   41  2   RLX: 0.024
       a = -2.500      CL = -0.2099
      Cm = -0.0435     CD =  0.00841   =>   CDf =  0.00537    CDp =  0.00304

 Side 1  free  transition at x/c =  0.9604   73
 Side 2  free  transition at x/c =  0.3278   42

  12   rms: 0.1039E+01   max: -.2188E+02   C at   42  2   RLX: 0.023
       a = -2.500      CL = -0.2100
      Cm = -0.0435     CD =  0.00832   =>   CDf =  0.00531    CDp =  0.00301

 Side 1  free  transition at x/c =  0.9603   73
 Side 2  free  transition at x/c =  0.3423   43

  13   rms: 0.1062E+01   max: -.2228E+02   C at   43  2   RLX: 0.022
       a = -2.500      CL = -0.2100
      Cm = -0.0435     CD =  0.00824   =>   CDf =  0.00525    CDp =  0.00298

 Side 1  free  transition at x/c =  0.9603   73
 Side 2  free  transition at x/c =  0.3564   44

  14   rms: 0.1073E+01   max: -.2245E+02   C at   44  2   RLX: 0.022
       a = -2.500      CL = -0.2101
      Cm = -0.0436     CD =  0.00816   =>   CDf =  0.00520    CDp =  0.00297

 Side 1  free  transition at x/c =  0.9603   73
 Side 2  free  transition at x/c =  0.3713   45

  15   rms: 0.1061E+01   max: -.2207E+02   C at   45  2   RLX: 0.023
       a = -2.500      CL = -0.2100
      Cm = -0.0436     CD =  0.00808   =>   CDf =  0.00514    CDp =  0.00295

 Side 1  free  transition at x/c =  0.9603   73
 Side 2  free  transition at x/c =  0.3858   45

  16   rms: 0.1453E+01   max: -.2837E+02   C at   45  2   RLX: 0.018
       a = -2.500      CL = -0.2100
      Cm = -0.0437     CD =  0.00804   =>   CDf =  0.00508    CDp =  0.00296

 Side 1  free  transition at x/c =  0.9603   73
 Side 2  free  transition at x/c =  0.3991   46

  17   rms: 0.1337E+01   max: -.2662E+02   C at   46  2   RLX: 0.019
       a = -2.500      CL = -0.2100
      Cm = -0.0437     CD =  0.00798   =>   CDf =  0.00502    CDp =  0.00295

 Side 1  free  transition at x/c =  0.9603   73
 Side 2  free  transition at x/c =  0.4023   47

  18   rms: 0.5750E+00   max: -.1187E+02   C at   47  2   RLX: 0.042
       a = -2.500      CL = -0.2096
      Cm = -0.0438     CD =  0.00794   =>   CDf =  0.00501    CDp =  0.00293

 Side 1  free  transition at x/c =  0.9602   73
 Side 2  free  transition at x/c =  0.4085   47

  19   rms: 0.3894E+00   max: -.7993E+01   C at   47  2   RLX: 0.063
       a = -2.500      CL = -0.2089
      Cm = -0.0439     CD =  0.00792   =>   CDf =  0.00498    CDp =  0.00294

 Side 1  free  transition at x/c =  0.9602   73
 Side 2  free  transition at x/c =  0.4181   48

  20   rms: 0.2070E+00   max: -.4256E+01   C at   48  2   RLX: 0.117
       a = -2.500      CL = -0.2080
      Cm = -0.0440     CD =  0.00787   =>   CDf =  0.00494    CDp =  0.00293

 Side 1  free  transition at x/c =  0.9602   73
 Side 2  free  transition at x/c =  0.4281   48

  21   rms: 0.1251E+00   max: -.2540E+01   C at   48  2   RLX: 0.197
       a = -2.500      CL = -0.2065
      Cm = -0.0441     CD =  0.00785   =>   CDf =  0.00490    CDp =  0.00294

 Side 1  free  transition at x/c =  0.9602   73
 Side 2  free  transition at x/c =  0.4440   49

  22   rms: 0.5465E-01   max: -.1097E+01   C at   49  2   RLX: 0.456
       a = -2.500      CL = -0.2043
      Cm = -0.0442     CD =  0.00779   =>   CDf =  0.00484    CDp =  0.00295

 Side 1  free  transition at x/c =  0.9601   73
 Side 2  free  transition at x/c =  0.4684   51

  23   rms: 0.8785E-02   max: 0.1006E+00   D at   50  2
       a = -2.500      CL = -0.2016
      Cm = -0.0443     CD =  0.00776   =>   CDf =  0.00475    CDp =  0.00301

 Side 1  free  transition at x/c =  0.9601   73
 Side 2  free  transition at x/c =  0.4731   51

  24   rms: 0.1670E-02   max: -.3013E-01   C at   51  2
       a = -2.500      CL = -0.2016
      Cm = -0.0443     CD =  0.00777   =>   CDf =  0.00476    CDp =  0.00301

 Side 1  free  transition at x/c =  0.9601   73
 Side 2  free  transition at x/c =  0.4737   51

  25   rms: 0.1388E-04   max: -.2094E-03   D at   53  2
       a = -2.500      CL = -0.2016
      Cm = -0.0443     CD =  0.00777   =>   CDf =  0.00475    CDp =  0.00302
 plradd ia,ip,cpol            3           0  2.44625378E-03

 Point added to stored polar  1
 Point written to save file  nplx_Re500k.base.pol                            
 Dump file unspecified or not available
 Calculating wake trajectory ...
 Calculating source influence matrix ...

 Solving BL system ...

 Side 1  free  transition at x/c =  0.9601   73
 Side 2  free  transition at x/c =  0.4737   51

   1   rms: 0.2079E+00   max: -.3008E+01   C at   51  2   RLX: 0.166
       a = -2.000      CL = -0.1893
      Cm = -0.0450     CD =  0.00770   =>   CDf =  0.00473    CDp =  0.00296

 Side 1  free  transition at x/c =  0.9596   74
 Side 2  free  transition at x/c =  0.5148   53

   2   rms: 0.1412E+00   max: -.1270E+01   C at   53  2   RLX: 0.394
       a = -2.000      CL = -0.1669
      Cm = -0.0457     CD =  0.00758   =>   CDf =  0.00460    CDp =  0.00299

 Side 1  free  transition at x/c =  0.9589   73
 Side 2  free  transition at x/c =  0.5359   54

   3   rms: 0.1303E+00   max: 0.7505E+00   C at   54  2   RLX: 0.708
       a = -2.000      CL = -0.0978
      Cm = -0.0564     CD =  0.00777   =>   CDf =  0.00463    CDp =  0.00314

 MRCHDU: Convergence failed at  75  side 1    Res =  0.5411E+02
 MRCHDU: Convergence failed at  76  side 1    Res =  0.3868E+01
 MRCHDU: Convergence failed at  77  side 1    Res =  0.4133E+01
 MRCHDU: Convergence failed at  56  side 2    Res =  0.3305E+01
 MRCHDU: Convergence failed at  57  side 2    Res =  0.1693E+01
 MRCHDU: Convergence failed at  58  side 2    Res =  0.3305E+01
 MRCHDU: Convergence failed at  59  side 2    Res =  0.6095E+01
 MRCHDU: Convergence failed at  60  side 2    Res =  0.8223E+01
 MRCHDU: Convergence failed at  61  side 2    Res =  0.9034E+01
 MRCHDU: Convergence failed at  62  side 2    Res =  0.8848E+01
 MRCHDU: Convergence failed at  63  side 2    Res =  0.8310E+01
 MRCHDU: Convergence failed at  64  side 2    Res =  0.7642E+01
 MRCHDU: Convergence failed at  65  side 2    Res =  0.7358E+01
 MRCHDU: Convergence failed at  66  side 2    Res =  0.7079E+01
 MRCHDU: Convergence failed at  67  side 2    Res =  0.6901E+01
 MRCHDU: Convergence failed at  68  side 2    Res =  0.6785E+01
 MRCHDU: Convergence failed at  69  side 2    Res =  0.6689E+01
 MRCHDU: Convergence failed at  70  side 2    Res =  0.6573E+01
 MRCHDU: Convergence failed at  71  side 2    Res =  0.6481E+01
 MRCHDU: Convergence failed at  72  side 2    Res =  0.6413E+01
 MRCHDU: Convergence failed at  73  side 2    Res =  0.6400E+01
 MRCHDU: Convergence failed at  74  side 2    Res =  0.6313E+01
 MRCHDU: Convergence failed at  75  side 2    Res =  0.6127E+01
 MRCHDU: Convergence failed at  76  side 2    Res =  0.6048E+01
 MRCHDU: Convergence failed at  77  side 2    Res =  0.6073E+01
 MRCHDU: Convergence failed at  78  side 2    Res =  0.5722E+01
 MRCHDU: Convergence failed at  79  side 2    Res =  0.5847E+01
 MRCHDU: Convergence failed at  80  side 2    Res =  0.6049E+01
 MRCHDU: Convergence failed at  81  side 2    Res =  0.6073E+01
 MRCHDU: Convergence failed at  82  side 2    Res =  0.6003E+01
 MRCHDU: Convergence failed at  83  side 2    Res =  0.5886E+01
 MRCHDU: Convergence failed at  84  side 2    Res =  0.5778E+01
 MRCHDU: Convergence failed at  85  side 2    Res =  0.6921E+01
 Side 1  free  transition at x/c =  0.9853   76
 Side 2  free  transition at x/c =  0.5601   56

   4   rms: 0.4542E+00   max: 0.2315E+01   D at   87  2   RLX: 0.648
       a = -2.000      CL = -0.1589
      Cm = -0.0233     CD =  0.00462   =>   CDf =  0.00315    CDp =  0.00146

 Side 1  free  transition at x/c =  0.9672   74
 Side 2  free  transition at x/c =  0.5544   55

   5   rms: 0.9644E-01   max: 0.6159E+00   T at   74  1
       a = -2.000      CL = -0.1515
      Cm = -0.0431     CD =  0.00721   =>   CDf =  0.00499    CDp =  0.00222

 Side 1  free  transition at x/c =  0.9441   72
 Side 2  free  transition at x/c =  0.5440   55

   6   rms: 0.1382E+01   max: 0.1284E+02   T at   72  1   RLX: 0.048
       a = -2.000      CL = -0.1994
      Cm = -0.0325     CD =  0.00830   =>   CDf =  0.00462    CDp =  0.00368

 Side 1  free  transition at x/c =  0.9240   71
 Side 2  free  transition at x/c =  0.5271   54

   7   rms: 0.1807E+00   max: -.1309E+01   T at   71  1   RLX: 0.382
       a = -2.000      CL = -0.1576
      Cm = -0.0404     CD =  0.00917   =>   CDf =  0.00468    CDp =  0.00450

 Side 1  free  transition at x/c =  0.9456   73
 Side 2  free  transition at x/c =  0.5382   54

   8   rms: 0.4234E-01   max: -.2547E+00   D at   77  1
       a = -2.000      CL = -0.1379
      Cm = -0.0458     CD =  0.00760   =>   CDf =  0.00476    CDp =  0.00283

 Side 1  free  transition at x/c =  0.9515   73
 Side 2  free  transition at x/c =  0.5517   55

   9   rms: 0.1022E-01   max: -.1413E+00   C at   55  2
       a = -2.000      CL = -0.1376
      Cm = -0.0459     CD =  0.00754   =>   CDf =  0.00463    CDp =  0.00291

 Side 1  free  transition at x/c =  0.9522   73
 Side 2  free  transition at x/c =  0.5487   55

  10   rms: 0.5093E-03   max: 0.7006E-02   D at   57  2
       a = -2.000      CL = -0.1375
      Cm = -0.0459     CD =  0.00755   =>   CDf =  0.00459    CDp =  0.00295

 Side 1  free  transition at x/c =  0.9521   73
 Side 2  free  transition at x/c =  0.5489   55

  11   rms: 0.2803E-05   max: -.3842E-04   D at   57  2
       a = -2.000      CL = -0.1375
      Cm = -0.0459     CD =  0.00755   =>   CDf =  0.00459    CDp =  0.00295
 plradd ia,ip,cpol            4           0  3.95872537E-03

 Point added to stored polar  1
 Point written to save file  nplx_Re500k.base.pol                            
 Dump file unspecified or not available
 Calculating wake trajectory ...
 Calculating source influence matrix ...

 Solving BL system ...

 Side 1  free  transition at x/c =  0.9521   73
 Side 2  free  transition at x/c =  0.5489   55

   1   rms: 0.1080E+00   max: 0.4748E+00   D at   56  2
       a = -1.500      CL = -0.0676
      Cm = -0.0487     CD =  0.00746   =>   CDf =  0.00457    CDp =  0.00288

 Side 1  free  transition at x/c =  0.9417   73
 Side 2  free  transition at x/c =  0.5709   55

   2   rms: 0.9588E-01   max: -.7515E+00   T at   73  1   RLX: 0.665
       a = -1.500      CL = -0.0214
      Cm = -0.0585     CD =  0.00756   =>   CDf =  0.00465    CDp =  0.00291

 MRCHDU: Convergence failed at  76  side 1    Res =  0.1096E+02
 MRCHDU: Convergence failed at  77  side 1    Res =  0.3511E+02
 MRCHDU: Convergence failed at  78  side 1    Res =  0.8579E+01
 Side 1  free  transition at x/c =  0.9728   76
 Side 2  free  transition at x/c =  0.5825   56

   3   rms: 0.1533E+00   max: 0.1568E+01   C at   76  1   RLX: 0.957
       a = -1.500      CL = -0.0471
      Cm = -0.0538     CD =  0.00658   =>   CDf =  0.00453    CDp =  0.00205

 Side 1  free  transition at x/c =  0.9432   73
 Side 2  free  transition at x/c =  0.5802   56

   4   rms: 0.7016E-01   max: -.6475E+00   D at   75  1   RLX: 0.772
       a = -1.500      CL = -0.0203
      Cm = -0.0588     CD =  0.00774   =>   CDf =  0.00456    CDp =  0.00318

 MRCHDU: Convergence failed at  76  side 1    Res =  0.3051E+02
 MRCHDU: Convergence failed at  77  side 1    Res =  0.1060E+02
 MRCHDU: Convergence failed at  78  side 1    Res =  0.3381E+02
 Side 1  free  transition at x/c =  0.9700   75
 Side 2  free  transition at x/c =  0.5832   56

   5   rms: 0.1750E+00   max: 0.1427E+01   T at   75  1   RLX: 0.582
       a = -1.500      CL = -0.0832
      Cm = -0.0466     CD =  0.00596   =>   CDf =  0.00457    CDp =  0.00140

 Side 1  free  transition at x/c =  0.9348   73
 Side 2  free  transition at x/c =  0.5734   56

   6   rms: 0.6060E-01   max: -.5326E+00   D at   78  1   RLX: 0.939
       a = -1.500      CL = -0.0689
      Cm = -0.0482     CD =  0.00742   =>   CDf =  0.00462    CDp =  0.00280

 Side 1  free  transition at x/c =  0.9449   74
 Side 2  free  transition at x/c =  0.5768   56

   7   rms: 0.2200E-01   max: -.1757E+00   D at   78  1
       a = -1.500      CL = -0.0618
      Cm = -0.0499     CD =  0.00734   =>   CDf =  0.00459    CDp =  0.00275

 Side 1  free  transition at x/c =  0.9471   74
 Side 2  free  transition at x/c =  0.5778   56

   8   rms: 0.1270E-02   max: -.1567E-01   D at   74  1
       a = -1.500      CL = -0.0619
      Cm = -0.0498     CD =  0.00737   =>   CDf =  0.00458    CDp =  0.00279

 Side 1  free  transition at x/c =  0.9472   74
 Side 2  free  transition at x/c =  0.5777   56

   9   rms: 0.2163E-04   max: 0.2326E-03   D at   75  1
       a = -1.500      CL = -0.0619
      Cm = -0.0498     CD =  0.00737   =>   CDf =  0.00458    CDp =  0.00279
 plradd ia,ip,cpol            5           0  1.32748680E-02

 Point added to stored polar  1
 Point written to save file  nplx_Re500k.base.pol                            
 Dump file unspecified or not available
 Calculating wake trajectory ...
 Calculating source influence matrix ...

 Solving BL system ...

 Side 1  free  transition at x/c =  0.9472   74
 Side 2  free  transition at x/c =  0.5777   56

   1   rms: 0.1122E+00   max: 0.4224E+00   D at   57  2
       a = -1.000      CL =  0.0178
      Cm = -0.0544     CD =  0.00712   =>   CDf =  0.00455    CDp =  0.00256

 Side 1  free  transition at x/c =  0.9421   74
 Side 2  free  transition at x/c =  0.6013   56

   2   rms: 0.3101E-01   max: 0.1710E+00   T at   74  1
       a = -1.000      CL = -0.0003
      Cm = -0.0505     CD =  0.00722   =>   CDf =  0.00454    CDp =  0.00269

 Side 1  free  transition at x/c =  0.9309   74
 Side 2  free  transition at x/c =  0.6008   56

   3   rms: 0.2319E-01   max: 0.1938E+00   D at   79  1
       a = -1.000      CL =  0.0130
      Cm = -0.0534     CD =  0.00719   =>   CDf =  0.00459    CDp =  0.00260

 Side 1  free  transition at x/c =  0.9367   74
 Side 2  free  transition at x/c =  0.6022   56

   4   rms: 0.6896E-02   max: -.5471E-01   D at   75  1
       a = -1.000      CL =  0.0068
      Cm = -0.0520     CD =  0.00721   =>   CDf =  0.00458    CDp =  0.00263

 Side 1  free  transition at x/c =  0.9354   74
 Side 2  free  transition at x/c =  0.6014   56

   5   rms: 0.7635E-03   max: -.4097E-02   T at   75  1
       a = -1.000      CL =  0.0071
      Cm = -0.0521     CD =  0.00721   =>   CDf =  0.00458    CDp =  0.00263

 Side 1  free  transition at x/c =  0.9356   74
 Side 2  free  transition at x/c =  0.6014   56

   6   rms: 0.1847E-05   max: -.1430E-04   D at   74  1
       a = -1.000      CL =  0.0071
      Cm = -0.0521     CD =  0.00721   =>   CDf =  0.00458    CDp =  0.00263
 plradd ia,ip,cpol            6           0  1.32748680E-02

 Point added to stored polar  1
 Point written to save file  nplx_Re500k.base.pol                            
 Dump file unspecified or not available
 Calculating wake trajectory ...
 Calculating source influence matrix ...

 Solving BL system ...

 Side 1  free  transition at x/c =  0.9356   74
 Side 2  free  transition at x/c =  0.6014   56

   1   rms: 0.1087E+00   max: -.5125E+00   T at   56  2   RLX: 0.976
       a = -0.500      CL =  0.0775
      Cm = -0.0550     CD =  0.00720   =>   CDf =  0.00456    CDp =  0.00265

 Side 1  free  transition at x/c =  0.9264   74
 Side 2  free  transition at x/c =  0.6150   56

   2   rms: 0.1585E-01   max: 0.2269E+00   D at   56  2
       a = -0.500      CL =  0.0720
      Cm = -0.0535     CD =  0.00707   =>   CDf =  0.00453    CDp =  0.00254

 Side 1  free  transition at x/c =  0.9218   74
 Side 2  free  transition at x/c =  0.6174   56

   3   rms: 0.4062E-02   max: 0.3024E-01   D at   80  1
       a = -0.500      CL =  0.0739
      Cm = -0.0539     CD =  0.00708   =>   CDf =  0.00458    CDp =  0.00250

 Side 1  free  transition at x/c =  0.9230   74
 Side 2  free  transition at x/c =  0.6177   56

   4   rms: 0.1685E-03   max: -.9723E-03   D at   74  1
       a = -0.500      CL =  0.0737
      Cm = -0.0539     CD =  0.00708   =>   CDf =  0.00457    CDp =  0.00251

 Side 1  free  transition at x/c =  0.9229   74
 Side 2  free  transition at x/c =  0.6177   56

   5   rms: 0.1135E-05   max: 0.8700E-05   D at    4  1
       a = -0.500      CL =  0.0737
      Cm = -0.0539     CD =  0.00708   =>   CDf =  0.00457    CDp =  0.00251
 plradd ia,ip,cpol            7           0  2.05726195E-02

 Point added to stored polar  1
 Point written to save file  nplx_Re500k.base.pol                            
 Dump file unspecified or not available
 Calculating wake trajectory ...
 Calculating source influence matrix ...

 Solving BL system ...

 Side 1  free  transition at x/c =  0.9229   74
 Side 2  free  transition at x/c =  0.6177   56

   1   rms: 0.9065E-01   max: -.2443E+00   T at   56  2
       a =  0.000      CL =  0.1374
      Cm = -0.0551     CD =  0.00699   =>   CDf =  0.00457    CDp =  0.00241

 Side 1  free  transition at x/c =  0.8955   72
 Side 2  free  transition at x/c =  0.6315   57

   2   rms: 0.3298E-01   max: -.3974E+00   D at   73  1
       a =  0.000      CL =  0.1441
      Cm = -0.0563     CD =  0.00687   =>   CDf =  0.00451    CDp =  0.00235

 Side 1  free  transition at x/c =  0.9064   74
 Side 2  free  transition at x/c =  0.6300   56

   3   rms: 0.1541E-01   max: 0.1450E+00   C at   74  1
       a =  0.000      CL =  0.1408
      Cm = -0.0557     CD =  0.00688   =>   CDf =  0.00453    CDp =  0.00236

 Side 1  free  transition at x/c =  0.9031   74
 Side 2  free  transition at x/c =  0.6285   56
 idif Ue xi dudx           1  0.17005320      1.74045563E-03   97.706139    
 Uenew xinew           2  2.16643116E-03  2.21729279E-05

   4   rms: 0.3708E-02   max: -.3684E-01   D at   81  1
       a =  0.000      CL =  0.1381
      Cm = -0.0551     CD =  0.00690   =>   CDf =  0.00460    CDp =  0.00231

 Side 1  free  transition at x/c =  0.9023   73
 Side 2  free  transition at x/c =  0.6283   57

   5   rms: 0.8827E-03   max: -.1474E-01   T at    2  2
       a =  0.000      CL =  0.1380
      Cm = -0.0550     CD =  0.00690   =>   CDf =  0.00457    CDp =  0.00233

 Side 1  free  transition at x/c =  0.9022   73
 Side 2  free  transition at x/c =  0.6283   57

   6   rms: 0.5401E-03   max: -.6480E-02   D at    4  2
       a =  0.000      CL =  0.1380
      Cm = -0.0550     CD =  0.00690   =>   CDf =  0.00457    CDp =  0.00233

 Side 1  free  transition at x/c =  0.9022   73
 Side 2  free  transition at x/c =  0.6283   57

[...]
 MRCHDU: Convergence failed at  89  side 2    Res =  0.5996E-01
 MRCHDU: Convergence failed at  90  side 2    Res =  0.9784E-01
 Side 1  free  transition at x/c =  0.0485   30
 Side 2 forced transition at x/c =  1.0000   70

 119   rms: 0.6895E+08   max: 0.1323E+10   C at   92  2   RLX: 0.000
       a = 15.500      CL =  2.0113
      Cm = -0.4194     CD =*********   =>   CDf =  0.00223    CDp =*********

 MRCHDU: Convergence failed at  87  side 2    Res =  0.1646E-01
 MRCHDU: Convergence failed at  88  side 2    Res =  0.5270E-01
 MRCHDU: Convergence failed at  89  side 2    Res =  0.5999E-01
 MRCHDU: Convergence failed at  90  side 2    Res =  0.9744E-01
 Side 1  free  transition at x/c =  0.0485   30
 Side 2 forced transition at x/c =  1.0000   70

 120   rms: 0.1332E+08   max: -.2557E+09   C at   92  2   RLX: 0.000
       a = 15.500      CL =  2.0113
      Cm = -0.4194     CD =*********   =>   CDf =  0.00223    CDp =*********

 MRCHDU: Convergence failed at  87  side 2    Res =  0.1646E-01
 MRCHDU: Convergence failed at  88  side 2    Res =  0.5270E-01
 MRCHDU: Convergence failed at  89  side 2    Res =  0.5998E-01
 MRCHDU: Convergence failed at  90  side 2    Res =  0.9762E-01
 Side 1  free  transition at x/c =  0.0485   30
 Side 2 forced transition at x/c =  1.0000   70

 121   rms: 0.6258E+08   max: -.1201E+10   C at   92  2   RLX: 0.000
       a = 15.500      CL =  2.0113
      Cm = -0.4194     CD =*********   =>   CDf =  0.00223    CDp =*********

 MRCHDU: Convergence failed at  87  side 2    Res =  0.1646E-01
 MRCHDU: Convergence failed at  88  side 2    Res =  0.5271E-01
 MRCHDU: Convergence failed at  89  side 2    Res =  0.5997E-01
 MRCHDU: Convergence failed at  90  side 2    Res =  0.9777E-01
 Side 1  free  transition at x/c =  0.0485   30
 Side 2 forced transition at x/c =  1.0000   70

 122   rms: 0.1134E+09   max: 0.2175E+10   C at   92  2   RLX: 0.000
       a = 15.500      CL =  2.0113
      Cm = -0.4194     CD =*********   =>   CDf =  0.00223    CDp =*********

 MRCHDU: Convergence failed at  87  side 2    Res =  0.1646E-01
 MRCHDU: Convergence failed at  88  side 2    Res =  0.5270E-01
 MRCHDU: Convergence failed at  89  side 2    Res =  0.6000E-01
 MRCHDU: Convergence failed at  90  side 2    Res =  0.9736E-01
 Side 1  free  transition at x/c =  0.0485   30
 Side 2 forced transition at x/c =  1.0000   70

 123   rms: 0.1306E+08   max: -.2506E+09   C at   92  2   RLX: 0.000
       a = 15.500      CL =  2.0113
      Cm = -0.4194     CD =*********   =>   CDf =  0.00223    CDp =*********

 MRCHDU: Convergence failed at  87  side 2    Res =  0.1646E-01
 MRCHDU: Convergence failed at  88  side 2    Res =  0.5270E-01
 MRCHDU: Convergence failed at  89  side 2    Res =  0.5998E-01
 MRCHDU: Convergence failed at  90  side 2    Res =  0.9755E-01
 Side 1  free  transition at x/c =  0.0485   30
 Side 2 forced transition at x/c =  1.0000   70

 124   rms: 0.4720E+08   max: -.9056E+09   C at   92  2   RLX: 0.000
       a = 15.500      CL =  2.0113
      Cm = -0.4194     CD =*********   =>   CDf =  0.00223    CDp =*********

 MRCHDU: Convergence failed at  87  side 2    Res =  0.1646E-01
 MRCHDU: Convergence failed at  88  side 2    Res =  0.5270E-01
 MRCHDU: Convergence failed at  89  side 2    Res =  0.5997E-01
 MRCHDU: Convergence failed at  90  side 2    Res =  0.9771E-01
 Side 1  free  transition at x/c =  0.0485   30
 Side 2 forced transition at x/c =  1.0000   70

 125   rms: 0.1200E+09   max: -.2302E+10   C at   92  2   RLX: 0.000
       a = 15.500      CL =  2.0113
      Cm = -0.4194     CD =*********   =>   CDf =  0.00223    CDp =*********

 MRCHDU: Convergence failed at  87  side 2    Res =  0.1646E-01
 MRCHDU: Convergence failed at  88  side 2    Res =  0.5271E-01
 MRCHDU: Convergence failed at  89  side 2    Res =  0.5996E-01
 MRCHDU: Convergence failed at  90  side 2    Res =  0.9785E-01
 Side 1  free  transition at x/c =  0.0485   30
 Side 2 forced transition at x/c =  1.0000   70

 126   rms: 0.8166E+08   max: 0.1567E+10   C at   92  2   RLX: 0.000
       a = 15.500      CL =  2.0113
      Cm = -0.4194     CD =*********   =>   CDf =  0.00223    CDp =*********

 MRCHDU: Convergence failed at  87  side 2    Res =  0.1646E-01
 MRCHDU: Convergence failed at  88  side 2    Res =  0.5270E-01
 MRCHDU: Convergence failed at  89  side 2    Res =  0.5999E-01
 MRCHDU: Convergence failed at  90  side 2    Res =  0.9747E-01
 Side 1  free  transition at x/c =  0.0485   30
 Side 2 forced transition at x/c =  1.0000   70

 127   rms: 0.1419E+08   max: -.2724E+09   C at   92  2   RLX: 0.000
       a = 15.500      CL =  2.0113
      Cm = -0.4194     CD =*********   =>   CDf =  0.00223    CDp =*********

 MRCHDU: Convergence failed at  87  side 2    Res =  0.1646E-01
 MRCHDU: Convergence failed at  88  side 2    Res =  0.5270E-01
 MRCHDU: Convergence failed at  89  side 2    Res =  0.5998E-01
 MRCHDU: Convergence failed at  90  side 2    Res =  0.9764E-01
 Side 1  free  transition at x/c =  0.0485   30
 Side 2 forced transition at x/c =  1.0000   70

 128   rms: 0.5351E+08   max: -.1027E+10   C at   92  2   RLX: 0.000
       a = 15.500      CL =  2.0113
      Cm = -0.4194     CD =*********   =>   CDf =  0.00223    CDp =*********

 MRCHDU: Convergence failed at  87  side 2    Res =  0.1646E-01
 MRCHDU: Convergence failed at  88  side 2    Res =  0.5271E-01
 MRCHDU: Convergence failed at  89  side 2    Res =  0.5997E-01
 MRCHDU: Convergence failed at  90  side 2    Res =  0.9779E-01
 Side 1  free  transition at x/c =  0.0485   30
 Side 2 forced transition at x/c =  1.0000   70

 129   rms: 0.1757E+09   max: -.3372E+10   C at   92  2   RLX: 0.000
       a = 15.500      CL =  2.0113
      Cm = -0.4194     CD =*********   =>   CDf =  0.00223    CDp =*********

 MRCHDU: Convergence failed at  87  side 2    Res =  0.1646E-01
 MRCHDU: Convergence failed at  88  side 2    Res =  0.5271E-01
 MRCHDU: Convergence failed at  89  side 2    Res =  0.5996E-01
 MRCHDU: Convergence failed at  90  side 2    Res =  0.9793E-01
 Side 1  free  transition at x/c =  0.0485   30
 Side 2 forced transition at x/c =  1.0000   70

 130   rms: 0.4769E+08   max: 0.9150E+09   C at   92  2   RLX: 0.000
       a = 15.500      CL =  2.0113
      Cm = -0.4194     CD =*********   =>   CDf =  0.00223    CDp =*********

 MRCHDU: Convergence failed at  87  side 2    Res =  0.1646E-01
 MRCHDU: Convergence failed at  88  side 2    Res =  0.5270E-01
 MRCHDU: Convergence failed at  89  side 2    Res =  0.5998E-01
 MRCHDU: Convergence failed at  90  side 2    Res =  0.9756E-01
 Side 1  free  transition at x/c =  0.0485   30
 Side 2 forced transition at x/c =  1.0000   70

 131   rms: 0.1815E+08   max: -.3482E+09   C at   92  2   RLX: 0.000
       a = 15.500      CL =  2.0113
      Cm = -0.4194     CD =*********   =>   CDf =  0.00223    CDp =*********

 MRCHDU: Convergence failed at  87  side 2    Res =  0.1646E-01
 MRCHDU: Convergence failed at  88  side 2    Res =  0.5270E-01
 MRCHDU: Convergence failed at  89  side 2    Res =  0.5997E-01
 MRCHDU: Convergence failed at  90  side 2    Res =  0.9772E-01
 Side 1  free  transition at x/c =  0.0485   30
 Side 2 forced transition at x/c =  1.0000   70

 132   rms: 0.1020E+09   max: -.1957E+10   C at   92  2   RLX: 0.000
       a = 15.500      CL =  2.0113
      Cm = -0.4194     CD =*********   =>   CDf =  0.00223    CDp =*********

 MRCHDU: Convergence failed at  87  side 2    Res =  0.1646E-01
 MRCHDU: Convergence failed at  88  side 2    Res =  0.5271E-01
 MRCHDU: Convergence failed at  89  side 2    Res =  0.5996E-01
 MRCHDU: Convergence failed at  90  side 2    Res =  0.9787E-01
 Side 1  free  transition at x/c =  0.0485   30
 Side 2 forced transition at x/c =  1.0000   70

 133   rms: 0.5611E+08   max: 0.1077E+10   C at   92  2   RLX: 0.000
       a = 15.500      CL =  2.0113
      Cm = -0.4194     CD =*********   =>   CDf =  0.00223    CDp =*********

 MRCHDU: Convergence failed at  87  side 2    Res =  0.1646E-01
 MRCHDU: Convergence failed at  88  side 2    Res =  0.5270E-01
 MRCHDU: Convergence failed at  89  side 2    Res =  0.5999E-01
 MRCHDU: Convergence failed at  90  side 2    Res =  0.9748E-01
 Side 1  free  transition at x/c =  0.0485   30
 Side 2 forced transition at x/c =  1.0000   70

 134   rms: 0.1406E+08   max: -.2697E+09   C at   92  2   RLX: 0.000
       a = 15.500      CL =  2.0113
      Cm = -0.4194     CD =*********   =>   CDf =  0.00223    CDp =*********

 MRCHDU: Convergence failed at  87  side 2    Res =  0.1646E-01
 MRCHDU: Convergence failed at  88  side 2    Res =  0.5270E-01
 MRCHDU: Convergence failed at  89  side 2    Res =  0.5998E-01
 MRCHDU: Convergence failed at  90  side 2    Res =  0.9765E-01
 Side 1  free  transition at x/c =  0.0485   30
 Side 2 forced transition at x/c =  1.0000   70

 135   rms: 0.8069E+08   max: -.1548E+10   C at   92  2   RLX: 0.000
       a = 15.500      CL =  2.0113
      Cm = -0.4194     CD =*********   =>   CDf =  0.00223    CDp =*********

 MRCHDU: Convergence failed at  87  side 2    Res =  0.1646E-01
 MRCHDU: Convergence failed at  88  side 2    Res =  0.5271E-01
 MRCHDU: Convergence failed at  89  side 2    Res =  0.5997E-01
 MRCHDU: Convergence failed at  90  side 2    Res =  0.9780E-01
 Side 1  free  transition at x/c =  0.0485   30
 Side 2 forced transition at x/c =  1.0000   70

 136   rms: 0.3942E+09   max: -.7563E+10   C at   92  2   RLX: 0.000
       a = 15.500      CL =  2.0113
      Cm = -0.4194     CD =*********   =>   CDf =  0.00223    CDp =*********

 MRCHDU: Convergence failed at  87  side 2    Res =  0.1646E-01
 MRCHDU: Convergence failed at  88  side 2    Res =  0.5271E-01
 MRCHDU: Convergence failed at  89  side 2    Res =  0.5996E-01
 MRCHDU: Convergence failed at  90  side 2    Res =  0.9794E-01
 Side 1  free  transition at x/c =  0.0485   30
 Side 2 forced transition at x/c =  1.0000   70

 137   rms: 0.6270E+08   max: 0.1203E+10   C at   92  2   RLX: 0.000
       a = 15.500      CL =  2.0113
      Cm = -0.4194     CD =*********   =>   CDf =  0.00223    CDp =*********

 MRCHDU: Convergence failed at  87  side 2    Res =  0.1646E-01
 MRCHDU: Convergence failed at  88  side 2    Res =  0.5270E-01
 MRCHDU: Convergence failed at  89  side 2    Res =  0.5998E-01
 MRCHDU: Convergence failed at  90  side 2    Res =  0.9758E-01
 Side 1  free  transition at x/c =  0.0485   30
 Side 2 forced transition at x/c =  1.0000   70

 138   rms: 0.2394E+08   max: -.4594E+09   C at   92  2   RLX: 0.000
       a = 15.500      CL =  2.0113
      Cm = -0.4194     CD =*********   =>   CDf =  0.00223    CDp =*********

 MRCHDU: Convergence failed at  87  side 2    Res =  0.1646E-01
 MRCHDU: Convergence failed at  88  side 2    Res =  0.5270E-01
 MRCHDU: Convergence failed at  89  side 2    Res =  0.5997E-01
 MRCHDU: Convergence failed at  90  side 2    Res =  0.9774E-01
 Side 1  free  transition at x/c =  0.0485   30
 Side 2 forced transition at x/c =  1.0000   70

 139   rms: 0.8832E+08   max: -.1695E+10   C at   92  2   RLX: 0.000
       a = 15.500      CL =  2.0113
      Cm = -0.4194     CD =*********   =>   CDf =  0.00223    CDp =*********

 MRCHDU: Convergence failed at  87  side 2    Res =  0.1646E-01
 MRCHDU: Convergence failed at  88  side 2    Res =  0.5271E-01
 MRCHDU: Convergence failed at  89  side 2    Res =  0.5996E-01
 MRCHDU: Convergence failed at  90  side 2    Res =  0.9788E-01
 Side 1  free  transition at x/c =  0.0485   30
 Side 2 forced transition at x/c =  1.0000   70

 140   rms: 0.7789E+08   max: 0.1494E+10   C at   92  2   RLX: 0.000
       a = 15.500      CL =  2.0113
      Cm = -0.4194     CD =*********   =>   CDf =  0.00223    CDp =*********

 MRCHDU: Convergence failed at  87  side 2    Res =  0.1646E-01
 MRCHDU: Convergence failed at  88  side 2    Res =  0.5270E-01
 MRCHDU: Convergence failed at  89  side 2    Res =  0.5999E-01
 MRCHDU: Convergence failed at  90  side 2    Res =  0.9750E-01
 Side 1  free  transition at x/c =  0.0485   30
 Side 2 forced transition at x/c =  1.0000   70

 141   rms: 0.1587E+08   max: -.3045E+09   C at   92  2   RLX: 0.000
       a = 15.500      CL =  2.0113
      Cm = -0.4194     CD =*********   =>   CDf =  0.00223    CDp =*********

 MRCHDU: Convergence failed at  87  side 2    Res =  0.1646E-01
 MRCHDU: Convergence failed at  88  side 2    Res =  0.5270E-01
 MRCHDU: Convergence failed at  89  side 2    Res =  0.5998E-01
 MRCHDU: Convergence failed at  90  side 2    Res =  0.9767E-01
 Side 1  free  transition at x/c =  0.0485   30
 Side 2 forced transition at x/c =  1.0000   70

 142   rms: 0.5900E+08   max: -.1132E+10   C at   92  2   RLX: 0.000
       a = 15.500      CL =  2.0113
      Cm = -0.4194     CD =*********   =>   CDf =  0.00223    CDp =*********

 MRCHDU: Convergence failed at  87  side 2    Res =  0.1646E-01
 MRCHDU: Convergence failed at  88  side 2    Res =  0.5271E-01
 MRCHDU: Convergence failed at  89  side 2    Res =  0.5997E-01
 MRCHDU: Convergence failed at  90  side 2    Res =  0.9782E-01
 Side 1  free  transition at x/c =  0.0485   30
 Side 2 forced transition at x/c =  1.0000   70

 143   rms: 0.7223E+09   max: -.1386E+11   C at   92  2   RLX: 0.000
       a = 15.500      CL =  2.0113
      Cm = -0.4194     CD =*********   =>   CDf =  0.00223    CDp =*********

 MRCHDU: Convergence failed at  87  side 2    Res =  0.1646E-01
 MRCHDU: Convergence failed at  88  side 2    Res =  0.5271E-01
 MRCHDU: Convergence failed at  89  side 2    Res =  0.5996E-01
 MRCHDU: Convergence failed at  90  side 2    Res =  0.9795E-01
 MRCHDU: Convergence failed at  91  side 2    Res =  0.5355E-05
 Side 1  free  transition at x/c =  0.0485   30
 Side 2 forced transition at x/c =  1.0000   70

 144   rms: 0.5317E+08   max: 0.1020E+10   C at   92  2   RLX: 0.000
       a = 15.500      CL =  2.0113
      Cm = -0.4194     CD =*********   =>   CDf =  0.00223    CDp =*********

 MRCHDU: Convergence failed at  87  side 2    Res =  0.1646E-01
 MRCHDU: Convergence failed at  88  side 2    Res =  0.5270E-01
 MRCHDU: Convergence failed at  89  side 2    Res =  0.5998E-01
 MRCHDU: Convergence failed at  90  side 2    Res =  0.9759E-01
 Side 1  free  transition at x/c =  0.0485   30
 Side 2 forced transition at x/c =  1.0000   70

 145   rms: 0.5923E+08   max: -.1136E+10   C at   92  2   RLX: 0.000
       a = 15.500      CL =  2.0113
      Cm = -0.4194     CD =*********   =>   CDf =  0.00223    CDp =*********

 MRCHDU: Convergence failed at  87  side 2    Res =  0.1646E-01
 MRCHDU: Convergence failed at  88  side 2    Res =  0.5271E-01
 MRCHDU: Convergence failed at  89  side 2    Res =  0.5997E-01
 MRCHDU: Convergence failed at  90  side 2    Res =  0.9775E-01
 Side 1  free  transition at x/c =  0.0485   30
 Side 2 forced transition at x/c =  1.0000   70

 146   rms: 0.1191E+09   max: -.2285E+10   C at   92  2   RLX: 0.000
       a = 15.500      CL =  2.0113
      Cm = -0.4194     CD =*********   =>   CDf =  0.00223    CDp =*********

 MRCHDU: Convergence failed at  87  side 2    Res =  0.1646E-01
 MRCHDU: Convergence failed at  88  side 2    Res =  0.5271E-01
 MRCHDU: Convergence failed at  89  side 2    Res =  0.5996E-01
 MRCHDU: Convergence failed at  90  side 2    Res =  0.9789E-01
 Side 1  free  transition at x/c =  0.0485   30
 Side 2 forced transition at x/c =  1.0000   70

 147   rms: 0.5643E+08   max: 0.1083E+10   C at   92  2   RLX: 0.000
       a = 15.500      CL =  2.0113
      Cm = -0.4194     CD =*********   =>   CDf =  0.00223    CDp =*********

 MRCHDU: Convergence failed at  87  side 2    Res =  0.1646E-01
 MRCHDU: Convergence failed at  88  side 2    Res =  0.5270E-01
 MRCHDU: Convergence failed at  89  side 2    Res =  0.5999E-01
 MRCHDU: Convergence failed at  90  side 2    Res =  0.9751E-01
 Side 1  free  transition at x/c =  0.0485   30
 Side 2 forced transition at x/c =  1.0000   70

 148   rms: 0.1851E+08   max: -.3551E+09   C at   92  2   RLX: 0.000
       a = 15.500      CL =  2.0113
      Cm = -0.4194     CD =*********   =>   CDf =  0.00223    CDp =*********

 MRCHDU: Convergence failed at  87  side 2    Res =  0.1646E-01
 MRCHDU: Convergence failed at  88  side 2    Res =  0.5270E-01
 MRCHDU: Convergence failed at  89  side 2    Res =  0.5998E-01
 MRCHDU: Convergence failed at  90  side 2    Res =  0.9768E-01
 Side 1  free  transition at x/c =  0.0485   30
 Side 2 forced transition at x/c =  1.0000   70

 149   rms: 0.4119E+08   max: -.7903E+09   C at   92  2   RLX: 0.000
       a = 15.500      CL =  2.0113
      Cm = -0.4194     CD =*********   =>   CDf =  0.00223    CDp =*********

 MRCHDU: Convergence failed at  87  side 2    Res =  0.1646E-01
 MRCHDU: Convergence failed at  88  side 2    Res =  0.5271E-01
 MRCHDU: Convergence failed at  89  side 2    Res =  0.5997E-01
 MRCHDU: Convergence failed at  90  side 2    Res =  0.9783E-01
 Side 1  free  transition at x/c =  0.0485   30
 Side 2 forced transition at x/c =  1.0000   70

 150   rms: 0.4427E+09   max: 0.8494E+10   C at   92  2   RLX: 0.000
       a = 15.500      CL =  2.0113
      Cm = -0.4194     CD =*********   =>   CDf =  0.00223    CDp =*********

 MRCHDU: Convergence failed at  87  side 2    Res =  0.1646E-01
 MRCHDU: Convergence failed at  88  side 2    Res =  0.5270E-01
 MRCHDU: Convergence failed at  89  side 2    Res =  0.5999E-01
 MRCHDU: Convergence failed at  90  side 2    Res =  0.9743E-01
 Side 1  free  transition at x/c =  0.0485   30
 Side 2 forced transition at x/c =  1.0000   70

 151   rms: 0.1857E+08   max: -.3563E+09   C at   92  2   RLX: 0.000
       a = 15.500      CL =  2.0113
      Cm = -0.4194     CD =*********   =>   CDf =  0.00223    CDp =*********

 MRCHDU: Convergence failed at  87  side 2    Res =  0.1646E-01
 MRCHDU: Convergence failed at  88  side 2    Res =  0.5270E-01
 MRCHDU: Convergence failed at  89  side 2    Res =  0.5998E-01
 MRCHDU: Convergence failed at  90  side 2    Res =  0.9761E-01
 Side 1  free  transition at x/c =  0.0485   30
 Side 2 forced transition at x/c =  1.0000   70

 152   rms: 0.3607E+08   max: -.6920E+09   C at   92  2   RLX: 0.000
       a = 15.500      CL =  2.0113
      Cm = -0.4194     CD =*********   =>   CDf =  0.00223    CDp =*********

 MRCHDU: Convergence failed at  87  side 2    Res =  0.1646E-01
 MRCHDU: Convergence failed at  88  side 2    Res =  0.5271E-01
 MRCHDU: Convergence failed at  89  side 2    Res =  0.5997E-01
 MRCHDU: Convergence failed at  90  side 2    Res =  0.9776E-01
 Side 1  free  transition at x/c =  0.0485   30
 Side 2 forced transition at x/c =  1.0000   70

 153   rms: 0.5217E+09   max: -.1001E+11   C at   92  2   RLX: 0.000
       a = 15.500      CL =  2.0113
      Cm = -0.4194     CD =*********   =>   CDf =  0.00223    CDp =*********

 MRCHDU: Convergence failed at  87  side 2    Res =  0.1646E-01
 MRCHDU: Convergence failed at  88  side 2    Res =  0.5271E-01
 MRCHDU: Convergence failed at  89  side 2    Res =  0.5996E-01
 MRCHDU: Convergence failed at  90  side 2    Res =  0.9790E-01
 Side 1  free  transition at x/c =  0.0485   30
 Side 2 forced transition at x/c =  1.0000   70

 154   rms: 0.4828E+09   max: 0.9264E+10   C at   92  2   RLX: 0.000
       a = 15.500      CL =  2.0113
      Cm = -0.4194     CD =*********   =>   CDf =  0.00223    CDp =*********

 MRCHDU: Convergence failed at  87  side 2    Res =  0.1646E-01
 MRCHDU: Convergence failed at  88  side 2    Res =  0.5270E-01
 MRCHDU: Convergence failed at  89  side 2    Res =  0.5999E-01
 MRCHDU: Convergence failed at  90  side 2    Res =  0.9753E-01
 Side 1  free  transition at x/c =  0.0485   30
 Side 2 forced transition at x/c =  1.0000   70

 155   rms: 0.1845E+08   max: -.3540E+09   C at   92  2   RLX: 0.000
       a = 15.500      CL =  2.0113
      Cm = -0.4194     CD =*********   =>   CDf =  0.00223    CDp =*********
 VISCAL:  Convergence failed

 Sequence halted since previous  4 points did not converge
 Last-converged  alpha =  14.500    CL =   0.65144

.OPERva   c>  
 Polar accumulation disabled

.OPERv   c>  
 XFOIL   c>  
 XFOIL   c>  