
 ===================================================
  XFOIL Version 6.99
  Copyright (C) 2000   Mark Drela, Harold Youngren

  This software comes with ABSOLUTELY NO WARRANTY,
    subject to the GNU General Public License.

  Caveat computor
 ===================================================

 File  xfoil.def  not found

   QUIT    Exit program

  .OPER    Direct operating point(s)
  .MDES    Complex mapping design routine
  .QDES    Surface speed design routine
  .GDES    Geometry design routine

   SAVE f  Write airfoil to labeled coordinate file
   PSAV f  Write airfoil to plain coordinate file
   ISAV f  Write airfoil to ISES coordinate file
   MSAV f  Write airfoil to MSES coordinate file
   REVE    Reverse written-airfoil node ordering

   LOAD f  Read buffer airfoil from coordinate file
   NACA i  Set NACA 4,5-digit airfoil and buffer airfoil
   INTE    Set buffer airfoil by interpolating two airfoils
   NORM    Buffer airfoil normalization toggle
   XYCM rr Change CM reference location, currently  0.25000 0.00000

   BEND    Display structural properties of current airfoil

   PCOP    Set current-airfoil panel nodes directly from buffer airfoil points
   PANE    Set current-airfoil panel nodes ( 160 ) based on curvature
  .PPAR    Show/change paneling

  .PLOP    Plotting options

   WDEF f  Write  current-settings file
   RDEF f  Reread current-settings file
   NAME s  Specify new airfoil name
   NINC    Increment name version number

   Z       Zoom    | (available in all menus)
   U       Unzoom  | 

 XFOIL   c>  
 Labeled airfoil file.  Name:   ONERA OA209 AIRFOIL                            

 Number of input coordinate points: 113
 Counterclockwise ordering
 Max thickness =     0.090092  at x =   0.293
 Max camber    =     0.015557  at x =   0.171

  LE  x,y  =  -0.00000   0.00001  |   Chord =   1.00000
  TE  x,y  =   1.00000   0.00000  |

 Current airfoil nodes set from buffer airfoil nodes ( 113 )

 XFOIL   c>  
 XFOIL   c>  
 Blunt trailing edge.  Gap =  0.00502

 Paneling parameters used...
   Number of panel nodes       160
   Panel bunching parameter    1.000
   TE/LE panel density ratio   0.150
   Refined-area/LE panel density ratio    0.200
   Top    side refined area x/c limits  1.000 1.000
   Bottom side refined area x/c limits  1.000 1.000

 XFOIL   c>  
.OPERi   c>  
 Xtr/c     =  1.0000    top    side
 Xtr/c     =  1.0000    bottom side
 Ncrit     =    9.00   ( 0.070 % turb. level )
 Vacc      =  0.0100

 Klag  =  5.6000     Uxwt  =    1.00
 A     =  6.7000     B     =  0.7500       KCt = 0.01485
 CtiniK=  1.8000     CtiniX=  3.3000

..VPAR   c>  
..VPAR   c>  
.OPERi   c>  
 M  =    0.0000
 Re =    500000

.OPERv   c>  
.OPERv   c>  
.OPERv   c>  
 Polar  1 newly created for accumulation
 Airfoil archived with polar: ONERA OA209 AIRFOIL                             

Enter  polar save filename  OR  <return> for no file   s>  
 New polar save file available

Enter  polar dump filename  OR  <return> for no file   s>  
 Polar dump file will NOT be written

 Polar accumulation enabled

.OPERva   c>   Calculating unit vorticity distributions ...
 Calculating wake trajectory ...
 Calculating source influence matrix ...

 Solving BL system ...

 Initializing BL ...
    side            1  ...
 MRCHUE: Inverse mode at  61     Hk =   3.877
 MRCHUE: Inverse mode at  62     Hk =   4.398
 MRCHUE: Inverse mode at  63     Hk =   4.909
 MRCHUE: Inverse mode at  64     Hk =   5.412
 MRCHUE: Inverse mode at  65     Hk =   5.909
 MRCHUE: Inverse mode at  66     Hk =   6.403
 MRCHUE: Inverse mode at  67     Hk =   6.891
 MRCHUE: Inverse mode at  68     Hk =   7.366
 MRCHUE: Inverse mode at  69     Hk =   7.820
 MRCHUE: Inverse mode at  70     Hk =   8.248
 MRCHUE: Inverse mode at  71     Hk =   8.650
 MRCHUE: Inverse mode at  72     Hk =   7.132
 MRCHUE: Inverse mode at  73     Hk =   5.896
 MRCHUE: Inverse mode at  74     Hk =   5.048
 MRCHUE: Inverse mode at  75     Hk =   4.427
 MRCHUE: Inverse mode at  76     Hk =   4.103
    side            2  ...
 MRCHUE: Inverse mode at  15     Hk =   4.481
 MRCHUE: Inverse mode at  16     Hk =   5.486
 MRCHUE: Convergence failed at  17  side 2    Res =  0.7144E+01
 MRCHUE: Inverse mode at  18     Hk =   6.574
 MRCHUE: Inverse mode at  19     Hk =   7.705
 MRCHUE: Inverse mode at  20     Hk =   8.927
 MRCHUE: Inverse mode at  21     Hk =   4.813
 MRCHUE: Inverse mode at  22     Hk =   2.500
 MRCHUE: Inverse mode at  23     Hk =   2.500
 MRCHUE: Inverse mode at  88     Hk =   2.399
 MRCHUE: Inverse mode at  89     Hk =   2.343

 MRCHDU: Convergence failed at  21  side 2    Res =  0.3200E+02
 MRCHDU: Convergence failed at  22  side 2    Res =  0.1443E+02
 MRCHDU: Convergence failed at  23  side 2    Res =  0.5176E+02
 MRCHDU: Convergence failed at  24  side 2    Res =  0.2157E+02
 MRCHDU: Convergence failed at  25  side 2    Res =  0.1588E+02
 MRCHDU: Convergence failed at  26  side 2    Res =  0.2041E+02
 MRCHDU: Convergence failed at  27  side 2    Res =  0.3715E+02
 MRCHDU: Convergence failed at  28  side 2    Res =  0.3578E+02
 MRCHDU: Convergence failed at  29  side 2    Res =  0.3267E+02
 MRCHDU: Convergence failed at  30  side 2    Res =  0.2529E+02
 MRCHDU: Convergence failed at  31  side 2    Res =  0.2603E+02
 MRCHDU: Convergence failed at  32  side 2    Res =  0.2414E+02
 MRCHDU: Convergence failed at  33  side 2    Res =  0.2495E+02
 MRCHDU: Convergence failed at  34  side 2    Res =  0.2578E+02
 MRCHDU: Convergence failed at  35  side 2    Res =  0.2636E+02
 MRCHDU: Convergence failed at  36  side 2    Res =  0.2703E+02
 MRCHDU: Convergence failed at  37  side 2    Res =  0.2530E+02
 MRCHDU: Convergence failed at  38  side 2    Res =  0.2633E+02
 MRCHDU: Convergence failed at  39  side 2    Res =  0.2751E+02
 MRCHDU: Convergence failed at  40  side 2    Res =  0.2619E+02
 MRCHDU: Convergence failed at  41  side 2    Res =  0.2763E+02
 MRCHDU: Convergence failed at  42  side 2    Res =  0.2644E+02
 MRCHDU: Convergence failed at  43  side 2    Res =  0.2759E+02
 MRCHDU: Convergence failed at  44  side 2    Res =  0.2845E+02
 MRCHDU: Convergence failed at  45  side 2    Res =  0.2888E+02
 MRCHDU: Convergence failed at  46  side 2    Res =  0.2930E+02
 MRCHDU: Convergence failed at  47  side 2    Res =  0.2958E+02
 MRCHDU: Convergence failed at  48  side 2    Res =  0.2994E+02
 MRCHDU: Convergence failed at  49  side 2    Res =  0.3047E+02
 MRCHDU: Convergence failed at  50  side 2    Res =  0.3113E+02
 MRCHDU: Convergence failed at  51  side 2    Res =  0.3204E+02
 MRCHDU: Convergence failed at  52  side 2    Res =  0.3306E+02
 MRCHDU: Convergence failed at  53  side 2    Res =  0.3433E+02
 MRCHDU: Convergence failed at  54  side 2    Res =  0.3583E+02
 MRCHDU: Convergence failed at  55  side 2    Res =  0.3741E+02
 MRCHDU: Convergence failed at  56  side 2    Res =  0.3907E+02
 MRCHDU: Convergence failed at  57  side 2    Res =  0.4098E+02
 MRCHDU: Convergence failed at  58  side 2    Res =  0.4256E+02
 MRCHDU: Convergence failed at  59  side 2    Res =  0.4417E+02
 MRCHDU: Convergence failed at  60  side 2    Res =  0.4601E+02
 MRCHDU: Convergence failed at  61  side 2    Res =  0.4658E+02
 MRCHDU: Convergence failed at  62  side 2    Res =  0.4874E+02
 MRCHDU: Convergence failed at  63  side 2    Res =  0.5130E+02
 MRCHDU: Convergence failed at  64  side 2    Res =  0.5449E+02
 MRCHDU: Convergence failed at  65  side 2    Res =  0.5792E+02
 MRCHDU: Convergence failed at  66  side 2    Res =  0.6490E+02
 MRCHDU: Convergence failed at  67  side 2    Res =  0.7017E+02
 MRCHDU: Convergence failed at  68  side 2    Res =  0.7895E+02
 MRCHDU: Convergence failed at  69  side 2    Res =  0.8685E+02
 MRCHDU: Convergence failed at  70  side 2    Res =  0.1037E+03
 MRCHDU: Convergence failed at  71  side 2    Res =  0.1702E+03
 MRCHDU: Convergence failed at  72  side 2    Res =  0.1386E+03
 MRCHDU: Convergence failed at  73  side 2    Res =  0.1145E+03
 MRCHDU: Convergence failed at  74  side 2    Res =  0.9499E+02
 MRCHDU: Convergence failed at  75  side 2    Res =  0.7922E+02
 MRCHDU: Convergence failed at  76  side 2    Res =  0.5681E+02
 MRCHDU: Convergence failed at  77  side 2    Res =  0.5718E+02
 MRCHDU: Convergence failed at  78  side 2    Res =  0.7751E+02
 MRCHDU: Convergence failed at  79  side 2    Res =  0.8149E+02
 MRCHDU: Convergence failed at  80  side 2    Res =  0.1189E+03
 MRCHDU: Convergence failed at  81  side 2    Res =  0.5792E+02
 MRCHDU: Convergence failed at  82  side 2    Res =  0.5611E+02
 MRCHDU: Convergence failed at  83  side 2    Res =  0.1601E+03
 MRCHDU: Convergence failed at  84  side 2    Res =  0.1418E+03
 MRCHDU: Convergence failed at  85  side 2    Res =  0.1699E+03
 MRCHDU: Convergence failed at  86  side 2    Res =  0.1668E+03
 Side 1  free  transition at x/c =  0.9537   72
 Side 2  free  transition at x/c =  0.0276   21

   1   rms: 0.1465E+01   max: 0.1196E+01   D at   89  2   RLX: 0.340
       a = -4.000      CL = -1.8069
      Cm =  0.4085     CD =  0.00595   =>   CDf =  0.00145    CDp =  0.00450

 MRCHDU: Convergence failed at  30  side 2    Res =  0.1342E+00
 MRCHDU: Convergence failed at  31  side 2    Res =  0.1238E+00
 MRCHDU: Convergence failed at  32  side 2    Res =  0.1137E+00
 MRCHDU: Convergence failed at  33  side 2    Res =  0.1035E+00
 MRCHDU: Convergence failed at  34  side 2    Res =  0.9533E-01
 MRCHDU: Convergence failed at  43  side 2    Res =  0.6278E-01
 Side 1  free  transition at x/c =  0.9682   73
 Side 2  free  transition at x/c =  0.0245   20

   2   rms: 0.6234E+00   max: -.6195E+00   D at   87  2   RLX: 0.289
       a = -4.000      CL = -1.0007
      Cm =  0.1875     CD =  0.03070   =>   CDf =  0.00373    CDp =  0.02697

 MRCHDU: Convergence failed at  76  side 1    Res =  0.2152E+01
 MRCHDU: Convergence failed at  34  side 2    Res =  0.4693E+00
 MRCHDU: Convergence failed at  35  side 2    Res =  0.5829E+00
 MRCHDU: Convergence failed at  36  side 2    Res =  0.1432E+00
 MRCHDU: Convergence failed at  37  side 2    Res =  0.8856E-01
 MRCHDU: Convergence failed at  39  side 2    Res =  0.9888E+00
 MRCHDU: Convergence failed at  43  side 2    Res =  0.3636E+00
 MRCHDU: Convergence failed at  44  side 2    Res =  0.5610E+00
 MRCHDU: Convergence failed at  47  side 2    Res =  0.1921E+01
 Side 1  free  transition at x/c =  0.9906   75
 Side 2  free  transition at x/c =  0.0246   20

   3   rms: 0.6934E+00   max: -.5281E+01   D at   37  2   RLX: 0.095
       a = -4.000      CL = -0.7922
      Cm =  0.1404     CD =  0.02795   =>   CDf =  0.00390    CDp =  0.02405

 MRCHDU: Convergence failed at  37  side 2    Res =  0.3808E+00
 MRCHDU: Convergence failed at  38  side 2    Res =  0.3771E+00
 MRCHDU: Convergence failed at  39  side 2    Res =  0.3731E+00
 MRCHDU: Convergence failed at  45  side 2    Res =  0.3267E+00
 MRCHDU: Convergence failed at  46  side 2    Res =  0.4527E+00
 MRCHDU: Convergence failed at  47  side 2    Res =  0.4537E+00
 MRCHDU: Convergence failed at  56  side 2    Res =  0.3106E+00
 MRCHDU: Convergence failed at  57  side 2    Res =  0.9585E+00
 MRCHDU: Convergence failed at  58  side 2    Res =  0.5938E+00
 MRCHDU: Convergence failed at  59  side 2    Res =  0.5699E+00
 MRCHDU: Convergence failed at  60  side 2    Res =  0.5387E+00
 MRCHDU: Convergence failed at  61  side 2    Res =  0.5062E+00
 MRCHDU: Convergence failed at  62  side 2    Res =  0.4724E+00
 MRCHDU: Convergence failed at  63  side 2    Res =  0.4374E+00
 MRCHDU: Convergence failed at  64  side 2    Res =  0.4017E+00
 MRCHDU: Convergence failed at  65  side 2    Res =  0.3649E+00
 MRCHDU: Convergence failed at  66  side 2    Res =  0.3275E+00
 MRCHDU: Convergence failed at  67  side 2    Res =  0.2893E+00
 MRCHDU: Convergence failed at  68  side 2    Res =  0.2502E+00
 MRCHDU: Convergence failed at  69  side 2    Res =  0.2102E+00
 MRCHDU: Convergence failed at  70  side 2    Res =  0.1689E+00
 MRCHDU: Convergence failed at  71  side 2    Res =  0.1260E+00
 MRCHDU: Convergence failed at  72  side 2    Res =  0.8074E-01
 Side 1  free  transition at x/c =  0.9897   75
 Side 2  free  transition at x/c =  0.0244   20

   4   rms: 0.2176E+01   max: -.1381E+02   D at   40  2   RLX: 0.036
       a = -4.000      CL = -0.5153
      Cm =  0.0501     CD =  0.02338   =>   CDf =  0.00290    CDp =  0.02049

 MRCHDU: Convergence failed at  72  side 2    Res =  0.5225E+00
 MRCHDU: Convergence failed at  73  side 2    Res =  0.7638E+00
 Side 1  free  transition at x/c =  0.9896   75
 Side 2  free  transition at x/c =  0.0244   20

   5   rms: 0.1912E+01   max: 0.1326E+02   D at   40  2   RLX: 0.113
       a = -4.000      CL = -0.3680
      Cm = -0.0217     CD =  0.02433   =>   CDf =  0.00307    CDp =  0.02127

 MRCHDU: Convergence failed at  84  side 2    Res =  0.8062E-01
 MRCHDU: Convergence failed at  85  side 2    Res =  0.2867E-02
 Side 1  free  transition at x/c =  0.9893   76
 Side 2  free  transition at x/c =  0.0246   19

   6   rms: 0.8861E+00   max: -.5938E+01   D at   39  2   RLX: 0.084
       a = -4.000      CL = -0.2802
      Cm = -0.0405     CD =  0.02003   =>   CDf =  0.00277    CDp =  0.01725

 MRCHDU: Convergence failed at  84  side 2    Res =  0.6134E-01
 MRCHDU: Convergence failed at  85  side 2    Res =  0.2655E-02
 Side 1  free  transition at x/c =  0.9883   76
 Side 2  free  transition at x/c =  0.0245   19

   7   rms: 0.5575E+01   max: 0.3410E+02   D at   27  2   RLX: 0.044
       a = -4.000      CL = -0.2054
      Cm = -0.0711     CD =  0.01868   =>   CDf =  0.00295    CDp =  0.01573

 MRCHDU: Convergence failed at  84  side 2    Res =  0.4220E+00
 MRCHDU: Convergence failed at  85  side 2    Res =  0.8922E+00
 Side 1  free  transition at x/c =  0.9930   76
 Side 2  free  transition at x/c =  0.0256   20

   8   rms: 0.1285E+01   max: -.6339E+01   D at   36  2   RLX: 0.079
       a = -4.000      CL = -0.1651
      Cm = -0.0802     CD =  0.03110   =>   CDf =  0.00333    CDp =  0.02777

 Side 1  free  transition at x/c =  0.9897   76
 Side 2  free  transition at x/c =  0.0248   19

   9   rms: 0.1894E+01   max: 0.1036E+02   D at   27  2   RLX: 0.086
       a = -4.000      CL = -0.1767
      Cm = -0.0842     CD =  0.02763   =>   CDf =  0.00359    CDp =  0.02404

 Side 1  free  transition at x/c =  0.9822   75
 Side 2  free  transition at x/c =  0.0245   19
 idif Ue xi dudx           1  0.15455067      2.63941288E-03   58.554943    
 Uenew xinew           2  7.90867209E-03  1.35064125E-04

  10   rms: 0.9832E+00   max: -.3148E+01   D at   36  2   RLX: 0.159
       a = -4.000      CL = -0.1938
      Cm = -0.0753     CD =  0.02195   =>   CDf =  0.00466    CDp =  0.01728

 MRCHDU: Convergence failed at  42  side 2    Res =  0.4519E+00
 Side 1  free  transition at x/c =  0.9742   73
 Side 2  free  transition at x/c =  0.0237   20

  11   rms: 0.1415E+02   max: 0.9436E+02   D at   37  2   RLX: 0.016
       a = -4.000      CL = -0.2529
      Cm = -0.0673     CD =  0.02991   =>   CDf =  0.00546    CDp =  0.02446

 MRCHDU: Convergence failed at  37  side 2    Res =  0.7071E+01
 MRCHDU: Convergence failed at  43  side 2    Res =  0.7111E+00
 MRCHDU: Convergence failed at  44  side 2    Res =  0.2629E+01
 MRCHDU: Convergence failed at  45  side 2    Res =  0.1435E+01
 Side 1  free  transition at x/c =  0.9614   72
 Side 2  free  transition at x/c =  0.0234   20

  12   rms: 0.6305E+00   max: -.1807E+01   D at   79  2   RLX: 0.277
       a = -4.000      CL = -0.3661
      Cm = -0.0412     CD =  0.02439   =>   CDf =  0.00424    CDp =  0.02015

 Side 1  free  transition at x/c =  0.9456   71
 Side 2  free  transition at x/c =  0.0226   20

  13   rms: 0.3963E+00   max: -.1285E+01   D at   38  2   RLX: 0.389
       a = -4.000      CL = -0.3850
      Cm = -0.0245     CD =  0.02004   =>   CDf =  0.00471    CDp =  0.01533

 MRCHDU: Convergence failed at  80  side 2    Res =  0.2481E+00
 MRCHDU: Convergence failed at  82  side 2    Res =  0.1245E+01
 MRCHDU: Convergence failed at  83  side 2    Res =  0.1326E+01
 MRCHDU: Convergence failed at  84  side 2    Res =  0.1360E+01
 MRCHDU: Convergence failed at  85  side 2    Res =  0.1382E+01
 MRCHDU: Convergence failed at  86  side 2    Res =  0.1359E+01
 Side 1  free  transition at x/c =  0.9375   70
 Side 2  free  transition at x/c =  0.0223   20

  14   rms: 0.3443E+00   max: -.1862E+01   D at   34  2   RLX: 0.269
       a = -4.000      CL = -0.3833
      Cm = -0.0134     CD =  0.01576   =>   CDf =  0.00490    CDp =  0.01086

 Side 1  free  transition at x/c =  0.9407   71
 Side 2  free  transition at x/c =  0.0223   20

  15   rms: 0.4426E+00   max: -.2648E+01   D at   31  2   RLX: 0.189
       a = -4.000      CL = -0.3752
      Cm = -0.0139     CD =  0.01488   =>   CDf =  0.00517    CDp =  0.00970

 MRCHDU: Convergence failed at  29  side 2    Res =  0.4400E+00
 MRCHDU: Convergence failed at  30  side 2    Res =  0.1686E+00
 MRCHDU: Convergence failed at  31  side 2    Res =  0.8188E+00
 MRCHDU: Convergence failed at  32  side 2    Res =  0.6188E+00
 Side 1  free  transition at x/c =  0.9421   71
 Side 2  free  transition at x/c =  0.0224   20

  16   rms: 0.1878E+00   max: -.8118E+00   D at   85  2   RLX: 0.616
       a = -4.000      CL = -0.4073
      Cm = -0.0093     CD =  0.01687   =>   CDf =  0.00612    CDp =  0.01075

 MRCHDU: Convergence failed at  81  side 2    Res =  0.4510E+01
 Side 1  free  transition at x/c =  0.9400   71
 Side 2  free  transition at x/c =  0.0226   20

  17   rms: 0.1046E+00   max: -.6733E+00   D at   86  2   RLX: 0.743
       a = -4.000      CL = -0.3755
      Cm = -0.0063     CD =  0.01706   =>   CDf =  0.00601    CDp =  0.01105

 Side 1  free  transition at x/c =  0.9423   71
 Side 2  free  transition at x/c =  0.0230   20

  18   rms: 0.7997E-01   max: -.4894E+00   D at   86  2
       a = -4.000      CL = -0.3229
      Cm = -0.0145     CD =  0.01618   =>   CDf =  0.00590    CDp =  0.01028

 Side 1  free  transition at x/c =  0.9504   71
 Side 2  free  transition at x/c =  0.0232   20

  19   rms: 0.3188E-01   max: -.1868E+00   D at   73  1
       a = -4.000      CL = -0.3155
      Cm = -0.0155     CD =  0.01601   =>   CDf =  0.00596    CDp =  0.01004

 Side 1  free  transition at x/c =  0.9535   72
 Side 2  free  transition at x/c =  0.0231   20

  20   rms: 0.5080E-02   max: 0.8202E-01   D at   72  1
       a = -4.000      CL = -0.3131
      Cm = -0.0161     CD =  0.01592   =>   CDf =  0.00603    CDp =  0.00989

 Side 1  free  transition at x/c =  0.9531   72
 Side 2  free  transition at x/c =  0.0231   20

  21   rms: 0.3558E-03   max: 0.5353E-02   D at   73  1
       a = -4.000      CL = -0.3130
      Cm = -0.0161     CD =  0.01591   =>   CDf =  0.00603    CDp =  0.00989

 Side 1  free  transition at x/c =  0.9531   72
 Side 2  free  transition at x/c =  0.0231   20

  22   rms: 0.8760E-05   max: -.5125E-04   D at   22  2
       a = -4.000      CL = -0.3130
      Cm = -0.0161     CD =  0.01591   =>   CDf =  0.00603    CDp =  0.00989
 plradd ia,ip,cpol            1           0  2.19630636E-03

 Point added to stored polar  1
 Point written to save file  oa209_Re500k.base.pol                           
 Dump file unspecified or not available
 Calculating wake trajectory ...
 Calculating source influence matrix ...

 Solving BL system ...

 Side 1  free  transition at x/c =  0.9531   72
 Side 2  free  transition at x/c =  0.0231   20

   1   rms: 0.1310E+00   max: 0.5537E+00   T at   72  1
       a = -3.500      CL = -0.2768
      Cm = -0.0107     CD =  0.01371   =>   CDf =  0.00605    CDp =  0.00766

 Side 1  free  transition at x/c =  0.9393   72
 Side 2  free  transition at x/c =  0.0242   19

   2   rms: 0.4878E-01   max: 0.3505E+00   D at   19  2
       a = -3.500      CL = -0.2710
      Cm = -0.0121     CD =  0.01423   =>   CDf =  0.00632    CDp =  0.00792

 Side 1  free  transition at x/c =  0.9388   72
 Side 2  free  transition at x/c =  0.0241   19

   3   rms: 0.4634E-02   max: -.5577E-01   D at   75  1
       a = -3.500      CL = -0.2697
      Cm = -0.0125     CD =  0.01410   =>   CDf =  0.00630    CDp =  0.00781

 Side 1  free  transition at x/c =  0.9391   72
 Side 2  free  transition at x/c =  0.0241   19

   4   rms: 0.1250E-03   max: -.1962E-02   D at   75  1
       a = -3.500      CL = -0.2697
      Cm = -0.0125     CD =  0.01410   =>   CDf =  0.00629    CDp =  0.00781

 Side 1  free  transition at x/c =  0.9391   72
 Side 2  free  transition at x/c =  0.0241   19

   5   rms: 0.1481E-05   max: 0.1380E-04   D at   72  1
       a = -3.500      CL = -0.2697
      Cm = -0.0125     CD =  0.01410   =>   CDf =  0.00629    CDp =  0.00781
 plradd ia,ip,cpol            2           0  2.19630636E-03

 Point added to stored polar  1
 Point written to save file  oa209_Re500k.base.pol                           
 Dump file unspecified or not available
 Calculating wake trajectory ...
 Calculating source influence matrix ...

 Solving BL system ...

 Side 1  free  transition at x/c =  0.9391   72
 Side 2  free  transition at x/c =  0.0241   19

   1   rms: 0.9859E-01   max: 0.5338E+00   T at   72  1
       a = -3.000      CL = -0.2330
      Cm = -0.0073     CD =  0.01314   =>   CDf =  0.00629    CDp =  0.00685

 Side 1  free  transition at x/c =  0.9265   71
 Side 2  free  transition at x/c =  0.0262   20

   2   rms: 0.6175E-01   max: 0.5950E+00   D at   20  2
       a = -3.000      CL = -0.2248
      Cm = -0.0095     CD =  0.01252   =>   CDf =  0.00641    CDp =  0.00611

 Side 1  free  transition at x/c =  0.9253   71
 Side 2  free  transition at x/c =  0.0261   20

   3   rms: 0.9839E-02   max: 0.7190E-01   D at   20  2
       a = -3.000      CL = -0.2239
      Cm = -0.0098     CD =  0.01252   =>   CDf =  0.00638    CDp =  0.00614

 Side 1  free  transition at x/c =  0.9255   71
 Side 2  free  transition at x/c =  0.0260   20

   4   rms: 0.1415E-03   max: -.1409E-02   D at   74  1
       a = -3.000      CL = -0.2239
      Cm = -0.0098     CD =  0.01252   =>   CDf =  0.00638    CDp =  0.00614

 Side 1  free  transition at x/c =  0.9255   71
 Side 2  free  transition at x/c =  0.0260   20

   5   rms: 0.1582E-05   max: 0.1050E-04   T at   71  1
       a = -3.000      CL = -0.2239
      Cm = -0.0098     CD =  0.01252   =>   CDf =  0.00638    CDp =  0.00614
 plradd ia,ip,cpol            3           0  2.19630636E-03

 Point added to stored polar  1
 Point written to save file  oa209_Re500k.base.pol                           
 Dump file unspecified or not available
 Calculating wake trajectory ...
 Calculating source influence matrix ...

 Solving BL system ...

 Side 1  free  transition at x/c =  0.9255   71
 Side 2  free  transition at x/c =  0.0260   20

   1   rms: 0.9609E-01   max: -.7114E+00   T at   20  2   RLX: 0.703
       a = -2.500      CL = -0.1962
      Cm = -0.0070     CD =  0.01204   =>   CDf =  0.00641    CDp =  0.00563

 Side 1  free  transition at x/c =  0.9174   71
 Side 2  free  transition at x/c =  0.0281   19

   2   rms: 0.7655E-01   max: -.3385E+00   D at   22  2
       a = -2.500      CL = -0.1729
      Cm = -0.0083     CD =  0.01168   =>   CDf =  0.00632    CDp =  0.00536

 Side 1  free  transition at x/c =  0.9096   70
 Side 2  free  transition at x/c =  0.0294   19

   3   rms: 0.1375E-01   max: -.1520E+00   D at   72  1
       a = -2.500      CL = -0.1774
      Cm = -0.0072     CD =  0.01172   =>   CDf =  0.00639    CDp =  0.00533

 Side 1  free  transition at x/c =  0.9127   71
 Side 2  free  transition at x/c =  0.0293   19

   4   rms: 0.9175E-02   max: 0.1206E+00   D at   71  1
       a = -2.500      CL = -0.1755
      Cm = -0.0077     CD =  0.01167   =>   CDf =  0.00639    CDp =  0.00528

 Side 1  free  transition at x/c =  0.9115   71
 Side 2  free  transition at x/c =  0.0293   19

   5   rms: 0.4918E-03   max: -.6770E-02   D at   74  1
       a = -2.500      CL = -0.1754
      Cm = -0.0077     CD =  0.01168   =>   CDf =  0.00640    CDp =  0.00528

 Side 1  free  transition at x/c =  0.9114   71
 Side 2  free  transition at x/c =  0.0293   19

   6   rms: 0.4432E-05   max: -.5957E-04   D at   74  1
       a = -2.500      CL = -0.1754
      Cm = -0.0077     CD =  0.01168   =>   CDf =  0.00640    CDp =  0.00528
 plradd ia,ip,cpol            4           0  3.66047933E-03

 Point added to stored polar  1
 Point written to save file  oa209_Re500k.base.pol                           
 Dump file unspecified or not available
 Calculating wake trajectory ...
 Calculating source influence matrix ...

 Solving BL system ...

 Side 1  free  transition at x/c =  0.9114   71
 Side 2  free  transition at x/c =  0.0293   19

   1   rms: 0.9902E-01   max: -.4903E+00   T at   19  2
       a = -2.000      CL = -0.1327
      Cm = -0.0040     CD =  0.01090   =>   CDf =  0.00640    CDp =  0.00450

 Side 1  free  transition at x/c =  0.8977   70
 Side 2  free  transition at x/c =  0.0338   20

   2   rms: 0.4332E-01   max: 0.6270E+00   D at   20  2
       a = -2.000      CL = -0.1257
      Cm = -0.0059     CD =  0.01058   =>   CDf =  0.00646    CDp =  0.00412

 Side 1  free  transition at x/c =  0.8954   70
 Side 2  free  transition at x/c =  0.0337   20

   3   rms: 0.9617E-02   max: 0.9350E-01   D at   20  2
       a = -2.000      CL = -0.1256
      Cm = -0.0060     CD =  0.01059   =>   CDf =  0.00644    CDp =  0.00415

 Side 1  free  transition at x/c =  0.8959   70
 Side 2  free  transition at x/c =  0.0336   20

   4   rms: 0.1085E-03   max: 0.1120E-02   D at   20  2
       a = -2.000      CL = -0.1255
      Cm = -0.0060     CD =  0.01059   =>   CDf =  0.00643    CDp =  0.00416

 Side 1  free  transition at x/c =  0.8959   70
 Side 2  free  transition at x/c =  0.0336   20

   5   rms: 0.1176E-04   max: -.1429E-03   D at    4  2
       a = -2.000      CL = -0.1255
      Cm = -0.0060     CD =  0.01059   =>   CDf =  0.00643    CDp =  0.00416
 plradd ia,ip,cpol            5           0  3.66047933E-03

 Point added to stored polar  1
 Point written to save file  oa209_Re500k.base.pol                           
 Dump file unspecified or not available
 Calculating wake trajectory ...
 Calculating source influence matrix ...

 Solving BL system ...

 Side 1  free  transition at x/c =  0.8959   70
 Side 2  free  transition at x/c =  0.0336   20

   1   rms: 0.1020E+00   max: -.6568E+00   T at   20  2   RLX: 0.761
       a = -1.500      CL = -0.0902
      Cm = -0.0039     CD =  0.01011   =>   CDf =  0.00644    CDp =  0.00367

 Side 1  free  transition at x/c =  0.8878   70
 Side 2  free  transition at x/c =  0.0388   20

   2   rms: 0.5808E-01   max: -.3611E+00   T at   20  2
       a = -1.500      CL = -0.0703
      Cm = -0.0056     CD =  0.00963   =>   CDf =  0.00643    CDp =  0.00320

 Side 1  free  transition at x/c =  0.8778   69
 Side 2  free  transition at x/c =  0.0433   20

   3   rms: 0.1110E-01   max: -.1245E+00   D at   70  1
       a = -1.500      CL = -0.0730
      Cm = -0.0048     CD =  0.00985   =>   CDf =  0.00644    CDp =  0.00341

 Side 1  free  transition at x/c =  0.8812   70
 Side 2  free  transition at x/c =  0.0422   20

   4   rms: 0.5062E-02   max: 0.6183E-01   D at   70  1
       a = -1.500      CL = -0.0722
      Cm = -0.0050     CD =  0.00984   =>   CDf =  0.00642    CDp =  0.00342

 Side 1  free  transition at x/c =  0.8803   70
 Side 2  free  transition at x/c =  0.0423   20

   5   rms: 0.3425E-03   max: -.4578E-02   D at   73  1
       a = -1.500      CL = -0.0721
      Cm = -0.0050     CD =  0.00985   =>   CDf =  0.00643    CDp =  0.00341

 Side 1  free  transition at x/c =  0.8803   70
 Side 2  free  transition at x/c =  0.0423   20

   6   rms: 0.3524E-05   max: -.3503E-04   D at   73  1
       a = -1.500      CL = -0.0721
      Cm = -0.0050     CD =  0.00984   =>   CDf =  0.00643    CDp =  0.00341
 plradd ia,ip,cpol            6           0  3.66047933E-03

 Point added to stored polar  1
 Point written to save file  oa209_Re500k.base.pol                           
 Dump file unspecified or not available
 Calculating wake trajectory ...
 Calculating source influence matrix ...

 Solving BL system ...

 Side 1  free  transition at x/c =  0.8803   70
 Side 2  free  transition at x/c =  0.0423   20

   1   rms: 0.1088E+00   max: -.8541E+00   T at   20  2   RLX: 0.585
       a = -1.000      CL = -0.0433
      Cm = -0.0038     CD =  0.00952   =>   CDf =  0.00644    CDp =  0.00309

 Side 1  free  transition at x/c =  0.8723   69
 Side 2  free  transition at x/c =  0.0501   21

   2   rms: 0.7208E-01   max: -.5733E+00   T at   21  2   RLX: 0.872
       a = -1.000      CL = -0.0188
      Cm = -0.0049     CD =  0.00914   =>   CDf =  0.00641    CDp =  0.00273

 Side 1  free  transition at x/c =  0.8600   69
 Side 2  free  transition at x/c =  0.0618   21

   3   rms: 0.2992E-01   max: -.2650E+00   T at   21  2
       a = -1.000      CL = -0.0171
      Cm = -0.0044     CD =  0.00910   =>   CDf =  0.00642    CDp =  0.00268

 Side 1  free  transition at x/c =  0.8617   69
 Side 2  free  transition at x/c =  0.0696   21

   4   rms: 0.5895E-02   max: -.1034E+00   C at   21  2
       a = -1.000      CL = -0.0168
      Cm = -0.0045     CD =  0.00915   =>   CDf =  0.00638    CDp =  0.00276

 Side 1  free  transition at x/c =  0.8612   69
 Side 2  free  transition at x/c =  0.0698   21

   5   rms: 0.8979E-02   max: -.1661E+00   C at   21  2
       a = -1.000      CL = -0.0168
      Cm = -0.0045     CD =  0.00915   =>   CDf =  0.00639    CDp =  0.00276

 Side 1  free  transition at x/c =  0.8612   69
 Side 2  free  transition at x/c =  0.0698   21

   6   rms: 0.8825E-02   max: -.1659E+00   C at   21  2
       a = -1.000      CL = -0.0168
      Cm = -0.0045     CD =  0.00915   =>   CDf =  0.00639    CDp =  0.00276

 Side 1  free  transition at x/c =  0.8612   69
 Side 2  free  transition at x/c =  0.0698   21

   7   rms: 0.8825E-02   max: -.1659E+00   C at   21  2
       a = -1.000      CL = -0.0168
      Cm = -0.0045     CD =  0.00915   =>   CDf =  0.00639    CDp =  0.00276

 Side 1  free  transition at x/c =  0.8612   69
 Side 2  free  transition at x/c =  0.0698   21

   8   rms: 0.8825E-02   max: -.1659E+00   C at   21  2
       a = -1.000      CL = -0.0168
      Cm = -0.0045     CD =  0.00915   =>   CDf =  0.00639    CDp =  0.00276

 Side 1  free  transition at x/c =  0.8612   69
 Side 2  free  transition at x/c =  0.0698   21

   9   rms: 0.8825E-02   max: -.1659E+00   C at   21  2
       a = -1.000      CL = -0.0168
      Cm = -0.0045     CD =  0.00915   =>   CDf =  0.00639    CDp =  0.00276

 Side 1  free  transition at x/c =  0.8612   69
 Side 2  free  transition at x/c =  0.0698   21

  10   rms: 0.8825E-02   max: -.1659E+00   C at   21  2
       a = -1.000      CL = -0.0168
      Cm = -0.0045     CD =  0.00915   =>   CDf =  0.00639    CDp =  0.00276

 Side 1  free  transition at x/c =  0.8612   69
 Side 2  free  transition at x/c =  0.0698   21

  11   rms: 0.8825E-02   max: -.1659E+00   C at   21  2
       a = -1.000      CL = -0.0168
      Cm = -0.0045     CD =  0.00915   =>   CDf =  0.00639    CDp =  0.00276

 Side 1  free  transition at x/c =  0.8612   69
 Side 2  free  transition at x/c =  0.0698   21

  12   rms: 0.8825E-02   max: -.1659E+00   C at   21  2
       a = -1.000      CL = -0.0168
      Cm = -0.0045     CD =  0.00915   =>   CDf =  0.00639    CDp =  0.00276

 Side 1  free  transition at x/c =  0.8612   69
 Side 2  free  transition at x/c =  0.0698   21

  13   rms: 0.8824E-02   max: -.1659E+00   C at   21  2
       a = -1.000      CL = -0.0168
      Cm = -0.0045     CD =  0.00915   =>   CDf =  0.00639    CDp =  0.00276

 Side 1  free  transition at x/c =  0.8612   69
 Side 2  free  transition at x/c =  0.0698   21

  14   rms: 0.8825E-02   max: -.1659E+00   C at   21  2
       a = -1.000      CL = -0.0168
      Cm = -0.0045     CD =  0.00915   =>   CDf =  0.00639    CDp =  0.00276

 Side 1  free  transition at x/c =  0.8612   69
 Side 2  free  transition at x/c =  0.0698   21

  15   rms: 0.8825E-02   max: -.1659E+00   C at   21  2
       a = -1.000      CL = -0.0168
      Cm = -0.0045     CD =  0.00915   =>   CDf =  0.00639    CDp =  0.00276

 Side 1  free  transition at x/c =  0.8612   69
 Side 2  free  transition at x/c =  0.0698   21

  16   rms: 0.8825E-02   max: -.1659E+00   C at   21  2
       a = -1.000      CL = -0.0168
      Cm = -0.0045     CD =  0.00915   =>   CDf =  0.00639    CDp =  0.00276

 Side 1  free  transition at x/c =  0.8612   69
 Side 2  free  transition at x/c =  0.0698   21

  17   rms: 0.8825E-02   max: -.1659E+00   C at   21  2
       a = -1.000      CL = -0.0168
      Cm = -0.0045     CD =  0.00915   =>   CDf =  0.00639    CDp =  0.00276

 Side 1  free  transition at x/c =  0.8612   69
 Side 2  free  transition at x/c =  0.0698   21

  18   rms: 0.8825E-02   max: -.1659E+00   C at   21  2
       a = -1.000      CL = -0.0168
      Cm = -0.0045     CD =  0.00915   =>   CDf =  0.00639    CDp =  0.00276

 Side 1  free  transition at x/c =  0.8612   69
 Side 2  free  transition at x/c =  0.0698   21

  19   rms: 0.8825E-02   max: -.1659E+00   C at   21  2
       a = -1.000      CL = -0.0168
      Cm = -0.0045     CD =  0.00915   =>   CDf =  0.00639    CDp =  0.00276

 Side 1  free  transition at x/c =  0.8612   69
 Side 2  free  transition at x/c =  0.0698   21

  20   rms: 0.8825E-02   max: -.1659E+00   C at   21  2
       a = -1.000      CL = -0.0168
      Cm = -0.0045     CD =  0.00915   =>   CDf =  0.00639    CDp =  0.00276

 Side 1  free  transition at x/c =  0.8612   69
 Side 2  free  transition at x/c =  0.0698   21

  21   rms: 0.8824E-02   max: -.1659E+00   C at   21  2
       a = -1.000      CL = -0.0168
      Cm = -0.0045     CD =  0.00915   =>   CDf =  0.00639    CDp =  0.00276

 Side 1  free  transition at x/c =  0.8612   69
 Side 2  free  transition at x/c =  0.0698   21

  22   rms: 0.8824E-02   max: -.1659E+00   C at   21  2
       a = -1.000      CL = -0.0168
      Cm = -0.0045     CD =  0.00915   =>   CDf =  0.00639    CDp =  0.00276

 Side 1  free  transition at x/c =  0.8612   69
 Side 2  free  transition at x/c =  0.0698   21

  23   rms: 0.8824E-02   max: -.1659E+00   C at   21  2
       a = -1.000      CL = -0.0168
      Cm = -0.0045     CD =  0.00915   =>   CDf =  0.00639    CDp =  0.00276

 Side 1  free  transition at x/c =  0.8612   69
 Side 2  free  transition at x/c =  0.0698   21

  24   rms: 0.8825E-02   max: -.1659E+00   C at   21  2
       a = -1.000      CL = -0.0168
      Cm = -0.0045     CD =  0.00915   =>   CDf =  0.00639    CDp =  0.00276

 Side 1  free  transition at x/c =  0.8612   69
 Side 2  free  transition at x/c =  0.0698   21

  25   rms: 0.8825E-02   max: -.1659E+00   C at   21  2
       a = -1.000      CL = -0.0168
      Cm = -0.0045     CD =  0.00915   =>   CDf =  0.00639    CDp =  0.00276

 Side 1  free  transition at x/c =  0.8612   69
 Side 2  free  transition at x/c =  0.0698   21

  26   rms: 0.8825E-02   max: -.1659E+00   C at   21  2
       a = -1.000      CL = -0.0168
      Cm = -0.0045     CD =  0.00915   =>   CDf =  0.00639    CDp =  0.00276

 Side 1  free  transition at x/c =  0.8612   69
 Side 2  free  transition at x/c =  0.0698   21

  27   rms: 0.8824E-02   max: -.1659E+00   C at   21  2
       a = -1.000      CL = -0.0168
      Cm = -0.0045     CD =  0.00915   =>   CDf =  0.00639    CDp =  0.00276

 Side 1  free  transition at x/c =  0.8612   69
 Side 2  free  transition at x/c =  0.0698   21

  28   rms: 0.8825E-02   max: -.1659E+00   C at   21  2
       a = -1.000      CL = -0.0168
      Cm = -0.0045     CD =  0.00915   =>   CDf =  0.00639    CDp =  0.00276

 Side 1  free  transition at x/c =  0.8612   69
 Side 2  free  transition at x/c =  0.0698   21

  29   rms: 0.8825E-02   max: -.1659E+00   C at   21  2
       a = -1.000      CL = -0.0168
      Cm = -0.0045     CD =  0.00915   =>   CDf =  0.00639    CDp =  0.00276

 Side 1  free  transition at x/c =  0.8612   69
 Side 2  free  transition at x/c =  0.0698   21

  30   rms: 0.8825E-02   max: -.1659E+00   C at   21  2
       a = -1.000      CL = -0.0168
      Cm = -0.0045     CD =  0.00915   =>   CDf =  0.00639    CDp =  0.00276

 Side 1  free  transition at x/c =  0.8612   69
 Side 2  free  transition at x/c =  0.0698   21

  31   rms: 0.8825E-02   max: -.1659E+00   C at   21  2
       a = -1.000      CL = -0.0168
      Cm = -0.0045     CD =  0.00915   =>   CDf =  0.00639    CDp =  0.00276

 Side 1  free  transition at x/c =  0.8612   69
 Side 2  free  transition at x/c =  0.0698   21

  32   rms: 0.8824E-02   max: -.1659E+00   C at   21  2
       a = -1.000      CL = -0.0168
      Cm = -0.0045     CD =  0.00915   =>   CDf =  0.00639    CDp =  0.00276

 Side 1  free  transition at x/c =  0.8612   69
 Side 2  free  transition at x/c =  0.0698   21

  33   rms: 0.8824E-02   max: -.1659E+00   C at   21  2
       a = -1.000      CL = -0.0168
      Cm = -0.0045     CD =  0.00915   =>   CDf =  0.00639    CDp =  0.00276

 Side 1  free  transition at x/c =  0.8612   69
 Side 2  free  transition at x/c =  0.0698   21

  34   rms: 0.8824E-02   max: -.1659E+00   C at   21  2
       a = -1.000      CL = -0.0168
      Cm = -0.0045     CD =  0.00915   =>   CDf =  0.00639    CDp =  0.00276

 Side 1  free  transition at x/c =  0.8612   69
 Side 2  free  transition at x/c =  0.0698   21

  35   rms: 0.8824E-02   max: -.1659E+00   C at   21  2
       a = -1.000      CL = -0.0168
      Cm = -0.0045     CD =  0.00915   =>   CDf =  0.00639    CDp =  0.00276

 Side 1  free  transition at x/c =  0.8612   69
 Side 2  free  transition at x/c =  0.0698   21

  36   rms: 0.8824E-02   max: -.1659E+00   C at   21  2
       a = -1.000      CL = -0.0168
      Cm = -0.0045     CD =  0.00915   =>   CDf =  0.00639    CDp =  0.00276

 Side 1  free  transition at x/c =  0.8612   69
 Side 2  free  transition at x/c =  0.0698   21

  37   rms: 0.8825E-02   max: -.1659E+00   C at   21  2
       a = -1.000      CL = -0.0168
      Cm = -0.0045     CD =  0.00915   =>   CDf =  0.00639    CDp =  0.00276

 Side 1  free  transition at x/c =  0.8612   69
 Side 2  free  transition at x/c =  0.0698   21

  38   rms: 0.8824E-02   max: -.1659E+00   C at   21  2
       a = -1.000      CL = -0.0168
      Cm = -0.0045     CD =  0.00915   =>   CDf =  0.00639    CDp =  0.00276

 Side 1  free  transition at x/c =  0.8612   69
 Side 2  free  transition at x/c =  0.0698   21

  39   rms: 0.8825E-02   max: -.1659E+00   C at   21  2
       a = -1.000      CL = -0.0168
      Cm = -0.0045     CD =  0.00915   =>   CDf =  0.00639    CDp =  0.00276

 Side 1  free  transition at x/c =  0.8612   69
 Side 2  free  transition at x/c =  0.0698   21

  40   rms: 0.8824E-02   max: -.1659E+00   C at   21  2
       a = -1.000      CL = -0.0168
      Cm = -0.0045     CD =  0.00915   =>   CDf =  0.00639    CDp =  0.00276

 Side 1  free  transition at x/c =  0.8612   69
 Side 2  free  transition at x/c =  0.0698   21

  41   rms: 0.8824E-02   max: -.1659E+00   C at   21  2
       a = -1.000      CL = -0.0168
      Cm = -0.0045     CD =  0.00915   =>   CDf =  0.00639    CDp =  0.00276

 Side 1  free  transition at x/c =  0.8612   69
 Side 2  free  transition at x/c =  0.0698   21

  42   rms: 0.8824E-02   max: -.1659E+00   C at   21  2
       a = -1.000      CL = -0.0168
      Cm = -0.0045     CD =  0.00915   =>   CDf =  0.00639    CDp =  0.00276

 Side 1  free  transition at x/c =  0.8612   69
 Side 2  free  transition at x/c =  0.0698   21

  43   rms: 0.8824E-02   max: -.1659E+00   C at   21  2
       a = -1.000      CL = -0.0168
      Cm = -0.0045     CD =  0.00915   =>   CDf =  0.00639    CDp =  0.00276

 Side 1  free  transition at x/c =  0.8612   69
 Side 2  free  transition at x/c =  0.0698   21

  44   rms: 0.8825E-02   max: -.1659E+00   C at   21  2
       a = -1.000      CL = -0.0168
      Cm = -0.0045     CD =  0.00915   =>   CDf =  0.00639    CDp =  0.00276

 Side 1  free  transition at x/c =  0.8612   69
 Side 2  free  transition at x/c =  0.0698   21

  45   rms: 0.8825E-02   max: -.1659E+00   C at   21  2
       a = -1.000      CL = -0.0168
      Cm = -0.0045     CD =  0.00915   =>   CDf =  0.00639    CDp =  0.00276

 Side 1  free  transition at x/c =  0.8612   69
 Side 2  free  transition at x/c =  0.0698   21

  46   rms: 0.8825E-02   max: -.1659E+00   C at   21  2
       a = -1.000      CL = -0.0168
      Cm = -0.0045     CD =  0.00915   =>   CDf =  0.00639    CDp =  0.00276

 Side 1  free  transition at x/c =  0.8612   69
 Side 2  free  transition at x/c =  0.0698   21

  47   rms: 0.8824E-02   max: -.1659E+00   C at   21  2
       a = -1.000      CL = -0.0168
      Cm = -0.0045     CD =  0.00915   =>   CDf =  0.00639    CDp =  0.00276

 Side 1  free  transition at x/c =  0.8612   69
 Side 2  free  transition at x/c =  0.0698   21

  48   rms: 0.8825E-02   max: -.1659E+00   C at   21  2
       a = -1.000      CL = -0.0168
      Cm = -0.0045     CD =  0.00915   =>   CDf =  0.00639    CDp =  0.00276

 Side 1  free  transition at x/c =  0.8612   69
 Side 2  free  transition at x/c =  0.0698   21

  49   rms: 0.8825E-02   max: -.1659E+00   C at   21  2
       a = -1.000      CL = -0.0168
      Cm = -0.0045     CD =  0.00915   =>   CDf =  0.00639    CDp =  0.00276

 Side 1  free  transition at x/c =  0.8612   69
 Side 2  free  transition at x/c =  0.0698   21

  50   rms: 0.8825E-02   max: -.1659E+00   C at   21  2
       a = -1.000      CL = -0.0168
      Cm = -0.0045     CD =  0.00915   =>   CDf =  0.00639    CDp =  0.00276

 Side 1  free  transition at x/c =  0.8612   69
 Side 2  free  transition at x/c =  0.0698   21

  51   rms: 0.8824E-02   max: -.1659E+00   C at   21  2
       a = -1.000      CL = -0.0168
      Cm = -0.0045     CD =  0.00915   =>   CDf =  0.00639    CDp =  0.00276

 Side 1  free  transition at x/c =  0.8612   69
 Side 2  free  transition at x/c =  0.0698   21

  52   rms: 0.8825E-02   max: -.1659E+00   C at   21  2
       a = -1.000      CL = -0.0168
      Cm = -0.0045     CD =  0.00915   =>   CDf =  0.00639    CDp =  0.00276

 Side 1  free  transition at x/c =  0.8612   69
 Side 2  free  transition at x/c =  0.0698   21

  53   rms: 0.8824E-02   max: -.1659E+00   C at   21  2
       a = -1.000      CL = -0.0168
      Cm = -0.0045     CD =  0.00915   =>   CDf =  0.00639    CDp =  0.00276

 Side 1  free  transition at x/c =  0.8612   69
 Side 2  free  transition at x/c =  0.0698   21

  54   rms: 0.8825E-02   max: -.1659E+00   C at   21  2
       a = -1.000      CL = -0.0168
      Cm = -0.0045     CD =  0.00915   =>   CDf =  0.00639    CDp =  0.00276

 Side 1  free  transition at x/c =  0.8612   69
 Side 2  free  transition at x/c =  0.0698   21

  55   rms: 0.8825E-02   max: -.1659E+00   C at   21  2
       a = -1.000      CL = -0.0168
      Cm = -0.0045     CD =  0.00915   =>   CDf =  0.00639    CDp =  0.00276

 Side 1  free  transition at x/c =  0.8612   69
 Side 2  free  transition at x/c =  0.0698   21

  56   rms: 0.8824E-02   max: -.1659E+00   C at   21  2
       a = -1.000      CL = -0.0168
      Cm = -0.0045     CD =  0.00915   =>   CDf =  0.00639    CDp =  0.00276

 Side 1  free  transition at x/c =  0.8612   69
 Side 2  free  transition at x/c =  0.0698   21

  57   rms: 0.8824E-02   max: -.1659E+00   C at   21  2
       a = -1.000      CL = -0.0168
      Cm = -0.0045     CD =  0.00915   =>   CDf =  0.00639    CDp =  0.00276

 Side 1  free  transition at x/c =  0.8612   69
 Side 2  free  transition at x/c =  0.0698   21

  58   rms: 0.8825E-02   max: -.1659E+00   C at   21  2
       a = -1.000      CL = -0.0168
      Cm = -0.0045     CD =  0.00915   =>   CDf =  0.00639    CDp =  0.00276

 Side 1  free  transition at x/c =  0.8612   69
 Side 2  free  transition at x/c =  0.0698   21

  59   rms: 0.8824E-02   max: -.1659E+00   C at   21  2
       a = -1.000      CL = -0.0168
      Cm = -0.0045     CD =  0.00915   =>   CDf =  0.00639    CDp =  0.00276

 Side 1  free  transition at x/c =  0.8612   69
 Side 2  free  transition at x/c =  0.0698   21

  60   rms: 0.8825E-02   max: -.1659E+00   C at   21  2
       a = -1.000      CL = -0.0168
      Cm = -0.0045     CD =  0.00915   =>   CDf =  0.00639    CDp =  0.00276

 Side 1  free  transition at x/c =  0.8612   69
 Side 2  free  transition at x/c =  0.0698   21

  61   rms: 0.8825E-02   max: -.1659E+00   C at   21  2
       a = -1.000      CL = -0.0168
      Cm = -0.0045     CD =  0.00915   =>   CDf =  0.00639    CDp =  0.00276

 Side 1  free  transition at x/c =  0.8612   69
 Side 2  free  transition at x/c =  0.0698   21

  62   rms: 0.8824E-02   max: -.1659E+00   C at   21  2
       a = -1.000      CL = -0.0168
      Cm = -0.0045     CD =  0.00915   =>   CDf =  0.00639    CDp =  0.00276

 Side 1  free  transition at x/c =  0.8612   69
 Side 2  free  transition at x/c =  0.0698   21

  63   rms: 0.8824E-02   max: -.1659E+00   C at   21  2
       a = -1.000      CL = -0.0168
      Cm = -0.0045     CD =  0.00915   =>   CDf =  0.00639    CDp =  0.00276

 Side 1  free  transition at x/c =  0.8612   69
 Side 2  free  transition at x/c =  0.0698   21

  64   rms: 0.8824E-02   max: -.1659E+00   C at   21  2
       a = -1.000      CL = -0.0168
      Cm = -0.0045     CD =  0.00915   =>   CDf =  0.00639    CDp =  0.00276

 Side 1  free  transition at x/c =  0.8612   69
 Side 2  free  transition at x/c =  0.0698   21

  65   rms: 0.8824E-02   max: -.1659E+00   C at   21  2
       a = -1.000      CL = -0.0168
      Cm = -0.0045     CD =  0.00915   =>   CDf =  0.00639    CDp =  0.00276

 Side 1  free  transition at x/c =  0.8612   69
 Side 2  free  transition at x/c =  0.0698   21

  66   rms: 0.8825E-02   max: -.1659E+00   C at   21  2
       a = -1.000      CL = -0.0168
      Cm = -0.0045     CD =  0.00915   =>   CDf =  0.00639    CDp =  0.00276

 Side 1  free  transition at x/c =  0.8612   69
 Side 2  free  transition at x/c =  0.0698   21

  67   rms: 0.8825E-02   max: -.1659E+00   C at   21  2
       a = -1.000      CL = -0.0168
      Cm = -0.0045     CD =  0.00915   =>   CDf =  0.00639    CDp =  0.00276

 Side 1  free  transition at x/c =  0.8612   69
 Side 2  free  transition at x/c =  0.0698   21

  68   rms: 0.8825E-02   max: -.1659E+00   C at   21  2
       a = -1.000      CL = -0.0168
      Cm = -0.0045     CD =  0.00915   =>   CDf =  0.00639    CDp =  0.00276

 Side 1  free  transition at x/c =  0.8612   69
 Side 2  free  transition at x/c =  0.0698   21

  69   rms: 0.8824E-02   max: -.1659E+00   C at   21  2
       a = -1.000      CL = -0.0168
      Cm = -0.0045     CD =  0.00915   =>   CDf =  0.00639    CDp =  0.00276

 Side 1  free  transition at x/c =  0.8612   69
 Side 2  free  transition at x/c =  0.0698   21

  70   rms: 0.8824E-02   max: -.1659E+00   C at   21  2
       a = -1.000      CL = -0.0168
      Cm = -0.0045     CD =  0.00915   =>   CDf =  0.00639    CDp =  0.00276

 Side 1  free  transition at x/c =  0.8612   69
 Side 2  free  transition at x/c =  0.0698   21

  71   rms: 0.8825E-02   max: -.1659E+00   C at   21  2
       a = -1.000      CL = -0.0168
      Cm = -0.0045     CD =  0.00915   =>   CDf =  0.00639    CDp =  0.00276

 Side 1  free  transition at x/c =  0.8612   69
 Side 2  free  transition at x/c =  0.0698   21

  72   rms: 0.8825E-02   max: -.1659E+00   C at   21  2
       a = -1.000      CL = -0.0168
      Cm = -0.0045     CD =  0.00915   =>   CDf =  0.00639    CDp =  0.00276

 Side 1  free  transition at x/c =  0.8612   69
 Side 2  free  transition at x/c =  0.0698   21

  73   rms: 0.8824E-02   max: -.1659E+00   C at   21  2
       a = -1.000      CL = -0.0168
      Cm = -0.0045     CD =  0.00915   =>   CDf =  0.00639    CDp =  0.00276

 Side 1  free  transition at x/c =  0.8612   69
 Side 2  free  transition at x/c =  0.0698   21

  74   rms: 0.8825E-02   max: -.1659E+00   C at   21  2
       a = -1.000      CL = -0.0168
      Cm = -0.0045     CD =  0.00915   =>   CDf =  0.00639    CDp =  0.00276

 Side 1  free  transition at x/c =  0.8612   69
 Side 2  free  transition at x/c =  0.0698   21

  75   rms: 0.8825E-02   max: -.1659E+00   C at   21  2
       a = -1.000      CL = -0.0168
      Cm = -0.0045     CD =  0.00915   =>   CDf =  0.00639    CDp =  0.00276

 Side 1  free  transition at x/c =  0.8612   69
 Side 2  free  transition at x/c =  0.0698   21

  76   rms: 0.8824E-02   max: -.1659E+00   C at   21  2
       a = -1.000      CL = -0.0168
      Cm = -0.0045     CD =  0.00915   =>   CDf =  0.00639    CDp =  0.00276

 Side 1  free  transition at x/c =  0.8612   69
 Side 2  free  transition at x/c =  0.0698   21

  77   rms: 0.8824E-02   max: -.1659E+00   C at   21  2
       a = -1.000      CL = -0.0168
      Cm = -0.0045     CD =  0.00915   =>   CDf =  0.00639    CDp =  0.00276

 Side 1  free  transition at x/c =  0.8612   69
 Side 2  free  transition at x/c =  0.0698   21

  78   rms: 0.8825E-02   max: -.1659E+00   C at   21  2
       a = -1.000      CL = -0.0168
      Cm = -0.0045     CD =  0.00915   =>   CDf =  0.00639    CDp =  0.00276

 Side 1  free  transition at x/c =  0.8612   69
 Side 2  free  transition at x/c =  0.0698   21

  79   rms: 0.8825E-02   max: -.1659E+00   C at   21  2
       a = -1.000      CL = -0.0168
      Cm = -0.0045     CD =  0.00915   =>   CDf =  0.00639    CDp =  0.00276

 Side 1  free  transition at x/c =  0.8612   69
 Side 2  free  transition at x/c =  0.0698   21

  80   rms: 0.8824E-02   max: -.1659E+00   C at   21  2
       a = -1.000      CL = -0.0168
      Cm = -0.0045     CD =  0.00915   =>   CDf =  0.00639    CDp =  0.00276

 Side 1  free  transition at x/c =  0.8612   69
 Side 2  free  transition at x/c =  0.0698   21

  81   rms: 0.8825E-02   max: -.1659E+00   C at   21  2
       a = -1.000      CL = -0.0168
      Cm = -0.0045     CD =  0.00915   =>   CDf =  0.00639    CDp =  0.00276

 Side 1  free  transition at x/c =  0.8612   69
 Side 2  free  transition at x/c =  0.0698   21

  82   rms: 0.8825E-02   max: -.1659E+00   C at   21  2
       a = -1.000      CL = -0.0168
      Cm = -0.0045     CD =  0.00915   =>   CDf =  0.00639    CDp =  0.00276

 Side 1  free  transition at x/c =  0.8612   69
 Side 2  free  transition at x/c =  0.0698   21

  83   rms: 0.8824E-02   max: -.1659E+00   C at   21  2
       a = -1.000      CL = -0.0168
      Cm = -0.0045     CD =  0.00915   =>   CDf =  0.00639    CDp =  0.00276

 Side 1  free  transition at x/c =  0.8612   69
 Side 2  free  transition at x/c =  0.0698   21

  84   rms: 0.8825E-02   max: -.1659E+00   C at   21  2
       a = -1.000      CL = -0.0168
      Cm = -0.0045     CD =  0.00915   =>   CDf =  0.00639    CDp =  0.00276

 Side 1  free  transition at x/c =  0.8612   69
 Side 2  free  transition at x/c =  0.0698   21

  85   rms: 0.8825E-02   max: -.1659E+00   C at   21  2
       a = -1.000      CL = -0.0168
      Cm = -0.0045     CD =  0.00915   =>   CDf =  0.00639    CDp =  0.00276

 Side 1  free  transition at x/c =  0.8612   69
 Side 2  free  transition at x/c =  0.0698   21

  86   rms: 0.8825E-02   max: -.1659E+00   C at   21  2
       a = -1.000      CL = -0.0168
      Cm = -0.0045     CD =  0.00915   =>   CDf =  0.00639    CDp =  0.00276

 Side 1  free  transition at x/c =  0.8612   69
 Side 2  free  transition at x/c =  0.0698   21

  87   rms: 0.8825E-02   max: -.1659E+00   C at   21  2
       a = -1.000      CL = -0.0168
      Cm = -0.0045     CD =  0.00915   =>   CDf =  0.00639    CDp =  0.00276

 Side 1  free  transition at x/c =  0.8612   69
 Side 2  free  transition at x/c =  0.0698   21

  88   rms: 0.8825E-02   max: -.1659E+00   C at   21  2
       a = -1.000      CL = -0.0168
      Cm = -0.0045     CD =  0.00915   =>   CDf =  0.00639    CDp =  0.00276

 Side 1  free  transition at x/c =  0.8612   69
 Side 2  free  transition at x/c =  0.0698   21

  89   rms: 0.8824E-02   max: -.1659E+00   C at   21  2
       a = -1.000      CL = -0.0168
      Cm = -0.0045     CD =  0.00915   =>   CDf =  0.00639    CDp =  0.00276

 Side 1  free  transition at x/c =  0.8612   69
 Side 2  free  transition at x/c =  0.0698   21

  90   rms: 0.8825E-02   max: -.1659E+00   C at   21  2
       a = -1.000      CL = -0.0168
      Cm = -0.0045     CD =  0.00915   =>   CDf =  0.00639    CDp =  0.00276

 Side 1  free  transition at x/c =  0.8612   69
 Side 2  free  transition at x/c =  0.0698   21

  91   rms: 0.8825E-02   max: -.1659E+00   C at   21  2
       a = -1.000      CL = -0.0168
      Cm = -0.0045     CD =  0.00915   =>   CDf =  0.00639    CDp =  0.00276

 Side 1  free  transition at x/c =  0.8612   69
 Side 2  free  transition at x/c =  0.0698   21

  92   rms: 0.8825E-02   max: -.1659E+00   C at   21  2
       a = -1.000      CL = -0.0168
      Cm = -0.0045     CD =  0.00915   =>   CDf =  0.00639    CDp =  0.00276

 Side 1  free  transition at x/c =  0.8612   69
 Side 2  free  transition at x/c =  0.0698   21

  93   rms: 0.8824E-02   max: -.1659E+00   C at   21  2
       a = -1.000      CL = -0.0168
      Cm = -0.0045     CD =  0.00915   =>   CDf =  0.00639    CDp =  0.00276

 Side 1  free  transition at x/c =  0.8612   69
 Side 2  free  transition at x/c =  0.0698   21

  94   rms: 0.8824E-02   max: -.1659E+00   C at   21  2
       a = -1.000      CL = -0.0168
      Cm = -0.0045     CD =  0.00915   =>   CDf =  0.00639    CDp =  0.00276

 Side 1  free  transition at x/c =  0.8612   69
 Side 2  free  transition at x/c =  0.0698   21

  95   rms: 0.8825E-02   max: -.1659E+00   C at   21  2
       a = -1.000      CL = -0.0168
      Cm = -0.0045     CD =  0.00915   =>   CDf =  0.00639    CDp =  0.00276

 Side 1  free  transition at x/c =  0.8612   69
 Side 2  free  transition at x/c =  0.0698   21

  96   rms: 0.8825E-02   max: -.1659E+00   C at   21  2
       a = -1.000      CL = -0.0168
      Cm = -0.0045     CD =  0.00915   =>   CDf =  0.00639    CDp =  0.00276

 Side 1  free  transition at x/c =  0.8612   69
 Side 2  free  transition at x/c =  0.0698   21

  97   rms: 0.8825E-02   max: -.1659E+00   C at   21  2
       a = -1.000      CL = -0.0168
      Cm = -0.0045     CD =  0.00915   =>   CDf =  0.00639    CDp =  0.00276

 Side 1  free  transition at x/c =  0.8612   69
 Side 2  free  transition at x/c =  0.0698   21

  98   rms: 0.8825E-02   max: -.1659E+00   C at   21  2
       a = -1.000      CL = -0.0168
      Cm = -0.0045     CD =  0.00915   =>   CDf =  0.00639    CDp =  0.00276

 Side 1  free  transition at x/c =  0.8612   69
 Side 2  free  transition at x/c =  0.0698   21

  99   rms: 0.8824E-02   max: -.1659E+00   C at   21  2
       a = -1.000      CL = -0.0168
      Cm = -0.0045     CD =  0.00915   =>   CDf =  0.00639    CDp =  0.00276

 Side 1  free  transition at x/c =  0.8612   69
 Side 2  free  transition at x/c =  0.0698   21

 100   rms: 0.8825E-02   max: -.1659E+00   C at   21  2
       a = -1.000      CL = -0.0168
      Cm = -0.0045     CD =  0.00915   =>   CDf =  0.00639    CDp =  0.00276

 Side 1  free  transition at x/c =  0.8612   69
 Side 2  free  transition at x/c =  0.0698   21

 101   rms: 0.8825E-02   max: -.1659E+00   C at   21  2
       a = -1.000      CL = -0.0168
      Cm = -0.0045     CD =  0.00915   =>   CDf =  0.00639    CDp =  0.00276

 Side 1  free  transition at x/c =  0.8612   69
 Side 2  free  transition at x/c =  0.0698   21

 102   rms: 0.8825E-02   max: -.1659E+00   C at   21  2
       a = -1.000      CL = -0.0168
      Cm = -0.0045     CD =  0.00915   =>   CDf =  0.00639    CDp =  0.00276

 Side 1  free  transition at x/c =  0.8612   69
 Side 2  free  transition at x/c =  0.0698   21

 103   rms: 0.8825E-02   max: -.1659E+00   C at   21  2
       a = -1.000      CL = -0.0168
      Cm = -0.0045     CD =  0.00915   =>   CDf =  0.00639    CDp =  0.00276

 Side 1  free  transition at x/c =  0.8612   69
 Side 2  free  transition at x/c =  0.0698   21

 104   rms: 0.8824E-02   max: -.1659E+00   C at   21  2
       a = -1.000      CL = -0.0168
      Cm = -0.0045     CD =  0.00915   =>   CDf =  0.00639    CDp =  0.00276

 Side 1  free  transition at x/c =  0.8612   69
 Side 2  free  transition at x/c =  0.0698   21

 105   rms: 0.8824E-02   max: -.1659E+00   C at   21  2
       a = -1.000      CL = -0.0168
      Cm = -0.0045     CD =  0.00915   =>   CDf =  0.00639    CDp =  0.00276

 Side 1  free  transition at x/c =  0.8612   69
 Side 2  free  transition at x/c =  0.0698   21

 106   rms: 0.8825E-02   max: -.1659E+00   C at   21  2
       a = -1.000      CL = -0.0168
      Cm = -0.0045     CD =  0.00915   =>   CDf =  0.00639    CDp =  0.00276

 Side 1  free  transition at x/c =  0.8612   69
 Side 2  free  transition at x/c =  0.0698   21

 107   rms: 0.8824E-02   max: -.1659E+00   C at   21  2
       a = -1.000      CL = -0.0168
      Cm = -0.0045     CD =  0.00915   =>   CDf =  0.00639    CDp =  0.00276

 Side 1  free  transition at x/c =  0.8612   69
 Side 2  free  transition at x/c =  0.0698   21

 108   rms: 0.8825E-02   max: -.1659E+00   C at   21  2
       a = -1.000      CL = -0.0168
      Cm = -0.0045     CD =  0.00915   =>   CDf =  0.00639    CDp =  0.00276

 Side 1  free  transition at x/c =  0.8612   69
 Side 2  free  transition at x/c =  0.0698   21

 109   rms: 0.8825E-02   max: -.1659E+00   C at   21  2
       a = -1.000      CL = -0.0168
      Cm = -0.0045     CD =  0.00915   =>   CDf =  0.00639    CDp =  0.00276

 Side 1  free  transition at x/c =  0.8612   69
 Side 2  free  transition at x/c =  0.0698   21

 110   rms: 0.8825E-02   max: -.1659E+00   C at   21  2
       a = -1.000      CL = -0.0168
      Cm = -0.0045     CD =  0.00915   =>   CDf =  0.00639    CDp =  0.00276

 Side 1  free  transition at x/c =  0.8612   69
 Side 2  free  transition at x/c =  0.0698   21

 111   rms: 0.8824E-02   max: -.1659E+00   C at   21  2
       a = -1.000      CL = -0.0168
      Cm = -0.0045     CD =  0.00915   =>   CDf =  0.00639    CDp =  0.00276

 Side 1  free  transition at x/c =  0.8612   69
 Side 2  free  transition at x/c =  0.0698   21

 112   rms: 0.8825E-02   max: -.1659E+00   C at   21  2
       a = -1.000      CL = -0.0168
      Cm = -0.0045     CD =  0.00915   =>   CDf =  0.00639    CDp =  0.00276

 Side 1  free  transition at x/c =  0.8612   69
 Side 2  free  transition at x/c =  0.0698   21

 113   rms: 0.8824E-02   max: -.1659E+00   C at   21  2
       a = -1.000      CL = -0.0168
      Cm = -0.0045     CD =  0.00915   =>   CDf =  0.00639    CDp =  0.00276

 Side 1  free  transition at x/c =  0.8612   69
 Side 2  free  transition at x/c =  0.0698   21

 114   rms: 0.8825E-02   max: -.1659E+00   C at   21  2
       a = -1.000      CL = -0.0168
      Cm = -0.0045     CD =  0.00915   =>   CDf =  0.00639    CDp =  0.00276

 Side 1  free  transition at x/c =  0.8612   69
 Side 2  free  transition at x/c =  0.0698   21

 115   rms: 0.8824E-02   max: -.1659E+00   C at   21  2
       a = -1.000      CL = -0.0168
      Cm = -0.0045     CD =  0.00915   =>   CDf =  0.00639    CDp =  0.00276

 Side 1  free  transition at x/c =  0.8612   69
 Side 2  free  transition at x/c =  0.0698   21

 116   rms: 0.8824E-02   max: -.1659E+00   C at   21  2
       a = -1.000      CL = -0.0168
      Cm = -0.0045     CD =  0.00915   =>   CDf =  0.00639    CDp =  0.00276

 Side 1  free  transition at x/c =  0.8612   69
 Side 2  free  transition at x/c =  0.0698   21

 117   rms: 0.8825E-02   max: -.1659E+00   C at   21  2
       a = -1.000      CL = -0.0168
      Cm = -0.0045     CD =  0.00915   =>   CDf =  0.00639    CDp =  0.00276

 Side 1  free  transition at x/c =  0.8612   69
 Side 2  free  transition at x/c =  0.0698   21

 118   rms: 0.8825E-02   max: -.1659E+00   C at   21  2
       a = -1.000      CL = -0.0168
      Cm = -0.0045     CD =  0.00915   =>   CDf =  0.00639    CDp =  0.00276

 Side 1  free  transition at x/c =  0.8612   69
 Side 2  free  transition at x/c =  0.0698   21

 119   rms: 0.8825E-02   max: -.1659E+00   C at   21  2
       a = -1.000      CL = -0.0168
      Cm = -0.0045     CD =  0.00915   =>   CDf =  0.00639    CDp =  0.00276

 Side 1  free  transition at x/c =  0.8612   69
 Side 2  free  transition at x/c =  0.0698   21

 120   rms: 0.8824E-02   max: -.1659E+00   C at   21  2
       a = -1.000      CL = -0.0168
      Cm = -0.0045     CD =  0.00915   =>   CDf =  0.00639    CDp =  0.00276

 Side 1  free  transition at x/c =  0.8612   69
 Side 2  free  transition at x/c =  0.0698   21

 121   rms: 0.8824E-02   max: -.1659E+00   C at   21  2
       a = -1.000      CL = -0.0168
      Cm = -0.0045     CD =  0.00915   =>   CDf =  0.00639    CDp =  0.00276

 Side 1  free  transition at x/c =  0.8612   69
 Side 2  free  transition at x/c =  0.0698   21

 122   rms: 0.8824E-02   max: -.1659E+00   C at   21  2
       a = -1.000      CL = -0.0168
      Cm = -0.0045     CD =  0.00915   =>   CDf =  0.00639    CDp =  0.00276

 Side 1  free  transition at x/c =  0.8612   69
 Side 2  free  transition at x/c =  0.0698   21

 123   rms: 0.8824E-02   max: -.1659E+00   C at   21  2
       a = -1.000      CL = -0.0168
      Cm = -0.0045     CD =  0.00915   =>   CDf =  0.00639    CDp =  0.00276

 Side 1  free  transition at x/c =  0.8612   69
 Side 2  free  transition at x/c =  0.0698   21

 124   rms: 0.8825E-02   max: -.1659E+00   C at   21  2
       a = -1.000      CL = -0.0168
      Cm = -0.0045     CD =  0.00915   =>   CDf =  0.00639    CDp =  0.00276

 Side 1  free  transition at x/c =  0.8612   69
 Side 2  free  transition at x/c =  0.0698   21

 125   rms: 0.8825E-02   max: -.1659E+00   C at   21  2
       a = -1.000      CL = -0.0168
      Cm = -0.0045     CD =  0.00915   =>   CDf =  0.00639    CDp =  0.00276

 Side 1  free  transition at x/c =  0.8612   69
 Side 2  free  transition at x/c =  0.0698   21

 126   rms: 0.8825E-02   max: -.1659E+00   C at   21  2
       a = -1.000      CL = -0.0168
      Cm = -0.0045     CD =  0.00915   =>   CDf =  0.00639    CDp =  0.00276

 Side 1  free  transition at x/c =  0.8612   69
 Side 2  free  transition at x/c =  0.0698   21

 127   rms: 0.8825E-02   max: -.1659E+00   C at   21  2
       a = -1.000      CL = -0.0168
      Cm = -0.0045     CD =  0.00915   =>   CDf =  0.00639    CDp =  0.00276

 Side 1  free  transition at x/c =  0.8612   69
 Side 2  free  transition at x/c =  0.0698   21

 128   rms: 0.8824E-02   max: -.1659E+00   C at   21  2
       a = -1.000      CL = -0.0168
      Cm = -0.0045     CD =  0.00915   =>   CDf =  0.00639    CDp =  0.00276

 Side 1  free  transition at x/c =  0.8612   69
 Side 2  free  transition at x/c =  0.0698   21

 129   rms: 0.8824E-02   max: -.1659E+00   C at   21  2
       a = -1.000      CL = -0.0168
      Cm = -0.0045     CD =  0.00915   =>   CDf =  0.00639    CDp =  0.00276

 Side 1  free  transition at x/c =  0.8612   69
 Side 2  free  transition at x/c =  0.0698   21

 130   rms: 0.8824E-02   max: -.1659E+00   C at   21  2
       a = -1.000      CL = -0.0168
      Cm = -0.0045     CD =  0.00915   =>   CDf =  0.00639    CDp =  0.00276

 Side 1  free  transition at x/c =  0.8612   69
 Side 2  free  transition at x/c =  0.0698   21

 131   rms: 0.8824E-02   max: -.1659E+00   C at   21  2
       a = -1.000      CL = -0.0168
      Cm = -0.0045     CD =  0.00915   =>   CDf =  0.00639    CDp =  0.00276

 Side 1  free  transition at x/c =  0.8612   69
 Side 2  free  transition at x/c =  0.0698   21

 132   rms: 0.8824E-02   max: -.1659E+00   C at   21  2
       a = -1.000      CL = -0.0168
      Cm = -0.0045     CD =  0.00915   =>   CDf =  0.00639    CDp =  0.00276

 Side 1  free  transition at x/c =  0.8612   69
 Side 2  free  transition at x/c =  0.0698   21

 133   rms: 0.8824E-02   max: -.1659E+00   C at   21  2
       a = -1.000      CL = -0.0168
      Cm = -0.0045     CD =  0.00915   =>   CDf =  0.00639    CDp =  0.00276

 Side 1  free  transition at x/c =  0.8612   69
 Side 2  free  transition at x/c =  0.0698   21

 134   rms: 0.8824E-02   max: -.1659E+00   C at   21  2
       a = -1.000      CL = -0.0168
      Cm = -0.0045     CD =  0.00915   =>   CDf =  0.00639    CDp =  0.00276

 Side 1  free  transition at x/c =  0.8612   69
 Side 2  free  transition at x/c =  0.0698   21

 135   rms: 0.8824E-02   max: -.1659E+00   C at   21  2
       a = -1.000      CL = -0.0168
      Cm = -0.0045     CD =  0.00915   =>   CDf =  0.00639    CDp =  0.00276

 Side 1  free  transition at x/c =  0.8612   69
 Side 2  free  transition at x/c =  0.0698   21

 136   rms: 0.8825E-02   max: -.1659E+00   C at   21  2
       a = -1.000      CL = -0.0168
      Cm = -0.0045     CD =  0.00915   =>   CDf =  0.00639    CDp =  0.00276

 Side 1  free  transition at x/c =  0.8612   69
 Side 2  free  transition at x/c =  0.0698   21

 137   rms: 0.8825E-02   max: -.1659E+00   C at   21  2
       a = -1.000      CL = -0.0168
      Cm = -0.0045     CD =  0.00915   =>   CDf =  0.00639    CDp =  0.00276

 Side 1  free  transition at x/c =  0.8612   69
 Side 2  free  transition at x/c =  0.0698   21

 138   rms: 0.8824E-02   max: -.1659E+00   C at   21  2
       a = -1.000      CL = -0.0168
      Cm = -0.0045     CD =  0.00915   =>   CDf =  0.00639    CDp =  0.00276

 Side 1  free  transition at x/c =  0.8612   69
 Side 2  free  transition at x/c =  0.0698   21

 139   rms: 0.8824E-02   max: -.1659E+00   C at   21  2
       a = -1.000      CL = -0.0168
      Cm = -0.0045     CD =  0.00915   =>   CDf =  0.00639    CDp =  0.00276

 Side 1  free  transition at x/c =  0.8612   69
 Side 2  free  transition at x/c =  0.0698   21

 140   rms: 0.8824E-02   max: -.1659E+00   C at   21  2
       a = -1.000      CL = -0.0168
      Cm = -0.0045     CD =  0.00915   =>   CDf =  0.00639    CDp =  0.00276

 Side 1  free  transition at x/c =  0.8612   69
 Side 2  free  transition at x/c =  0.0698   21

 141   rms: 0.8825E-02   max: -.1659E+00   C at   21  2
       a = -1.000      CL = -0.0168
      Cm = -0.0045     CD =  0.00915   =>   CDf =  0.00639    CDp =  0.00276

 Side 1  free  transition at x/c =  0.8612   69
 Side 2  free  transition at x/c =  0.0698   21

 142   rms: 0.8825E-02   max: -.1659E+00   C at   21  2
       a = -1.000      CL = -0.0168
      Cm = -0.0045     CD =  0.00915   =>   CDf =  0.00639    CDp =  0.00276

 Side 1  free  transition at x/c =  0.8612   69
 Side 2  free  transition at x/c =  0.0698   21

 143   rms: 0.8825E-02   max: -.1659E+00   C at   21  2
       a = -1.000      CL = -0.0168
      Cm = -0.0045     CD =  0.00915   =>   CDf =  0.00639    CDp =  0.00276

 Side 1  free  transition at x/c =  0.8612   69
 Side 2  free  transition at x/c =  0.0698   21

 144   rms: 0.8824E-02   max: -.1659E+00   C at   21  2
       a = -1.000      CL = -0.0168
      Cm = -0.0045     CD =  0.00915   =>   CDf =  0.00639    CDp =  0.00276

 Side 1  free  transition at x/c =  0.8612   69
 Side 2  free  transition at x/c =  0.0698   21

 145   rms: 0.8824E-02   max: -.1659E+00   C at   21  2
       a = -1.000      CL = -0.0168
      Cm = -0.0045     CD =  0.00915   =>   CDf =  0.00639    CDp =  0.00276

 Side 1  free  transition at x/c =  0.8612   69
 Side 2  free  transition at x/c =  0.0698   21

 146   rms: 0.8825E-02   max: -.1659E+00   C at   21  2
       a = -1.000      CL = -0.0168
      Cm = -0.0045     CD =  0.00915   =>   CDf =  0.00639    CDp =  0.00276

 Side 1  free  transition at x/c =  0.8612   69
 Side 2  free  transition at x/c =  0.0698   21

 147   rms: 0.8824E-02   max: -.1659E+00   C at   21  2
       a = -1.000      CL = -0.0168
      Cm = -0.0045     CD =  0.00915   =>   CDf =  0.00639    CDp =  0.00276

 Side 1  free  transition at x/c =  0.8612   69
 Side 2  free  transition at x/c =  0.0698   21

 148   rms: 0.8825E-02   max: -.1659E+00   C at   21  2
       a = -1.000      CL = -0.0168
      Cm = -0.0045     CD =  0.00915   =>   CDf =  0.00639    CDp =  0.00276

 Side 1  free  transition at x/c =  0.8612   69
 Side 2  free  transition at x/c =  0.0698   21

 149   rms: 0.8825E-02   max: -.1659E+00   C at   21  2
       a = -1.000      CL = -0.0168
      Cm = -0.0045     CD =  0.00915   =>   CDf =  0.00639    CDp =  0.00276

 Side 1  free  transition at x/c =  0.8612   69
 Side 2  free  transition at x/c =  0.0698   21

 150   rms: 0.8825E-02   max: -.1659E+00   C at   21  2
       a = -1.000      CL = -0.0168
      Cm = -0.0045     CD =  0.00915   =>   CDf =  0.00639    CDp =  0.00276

 Side 1  free  transition at x/c =  0.8612   69
 Side 2  free  transition at x/c =  0.0698   21

 151   rms: 0.8824E-02   max: -.1659E+00   C at   21  2
       a = -1.000      CL = -0.0168
      Cm = -0.0045     CD =  0.00915   =>   CDf =  0.00639    CDp =  0.00276

 Side 1  free  transition at x/c =  0.8612   69
 Side 2  free  transition at x/c =  0.0698   21

 152   rms: 0.8824E-02   max: -.1659E+00   C at   21  2
       a = -1.000      CL = -0.0168
      Cm = -0.0045     CD =  0.00915   =>   CDf =  0.00639    CDp =  0.00276

 Side 1  free  transition at x/c =  0.8612   69
 Side 2  free  transition at x/c =  0.0698   21

 153   rms: 0.8824E-02   max: -.1659E+00   C at   21  2
       a = -1.000      CL = -0.0168
      Cm = -0.0045     CD =  0.00915   =>   CDf =  0.00639    CDp =  0.00276

 Side 1  free  transition at x/c =  0.8612   69
 Side 2  free  transition at x/c =  0.0698   21

 154   rms: 0.8824E-02   max: -.1659E+00   C at   21  2
       a = -1.000      CL = -0.0168
      Cm = -0.0045     CD =  0.00915   =>   CDf =  0.00639    CDp =  0.00276

 Side 1  free  transition at x/c =  0.8612   69
 Side 2  free  transition at x/c =  0.0698   21

 155   rms: 0.8824E-02   max: -.1659E+00   C at   21  2
       a = -1.000      CL = -0.0168
      Cm = -0.0045     CD =  0.00915   =>   CDf =  0.00639    CDp =  0.00276
 VISCAL:  Convergence failed
 Calculating wake trajectory ...
 Calculating source influence matrix ...

 Solving BL system ...

 Side 1  free  transition at x/c =  0.8612   69
 Side 2  free  transition at x/c =  0.0698   21

   1   rms: 0.1601E+00   max: 0.2169E+01   C at   21  2   RLX: 0.339
       a = -0.500      CL =  0.0032
      Cm = -0.0046     CD =  0.00905   =>   CDf =  0.00639    CDp =  0.00266

 MRCHDU: Convergence failed at  22  side 2    Res =  0.2970E+01
 MRCHDU: Convergence failed at  23  side 2    Res =  0.1633E+01
 MRCHDU: Convergence failed at  24  side 2    Res =  0.1651E+01
 MRCHDU: Convergence failed at  25  side 2    Res =  0.1216E+01
 MRCHDU: Convergence failed at  26  side 2    Res =  0.1025E+01
 MRCHDU: Convergence failed at  27  side 2    Res =  0.9461E+00
 MRCHDU: Convergence failed at  28  side 2    Res =  0.9678E+00
 MRCHDU: Convergence failed at  29  side 2    Res =  0.1014E+01
 MRCHDU: Convergence failed at  30  side 2    Res =  0.1039E+01
 MRCHDU: Convergence failed at  31  side 2    Res =  0.1077E+01
 MRCHDU: Convergence failed at  32  side 2    Res =  0.1129E+01
 MRCHDU: Convergence failed at  33  side 2    Res =  0.1204E+01
 MRCHDU: Convergence failed at  34  side 2    Res =  0.1748E+01
 MRCHDU: Convergence failed at  35  side 2    Res =  0.1905E+01
 MRCHDU: Convergence failed at  36  side 2    Res =  0.2088E+01
 MRCHDU: Convergence failed at  37  side 2    Res =  0.2309E+01
 MRCHDU: Convergence failed at  38  side 2    Res =  0.2566E+01
 MRCHDU: Convergence failed at  39  side 2    Res =  0.2810E+01
 MRCHDU: Convergence failed at  40  side 2    Res =  0.2994E+01
 MRCHDU: Convergence failed at  41  side 2    Res =  0.3252E+01
 MRCHDU: Convergence failed at  42  side 2    Res =  0.3556E+01
 MRCHDU: Convergence failed at  43  side 2    Res =  0.3913E+01
 MRCHDU: Convergence failed at  44  side 2    Res =  0.4378E+01
 MRCHDU: Convergence failed at  45  side 2    Res =  0.5043E+01
 MRCHDU: Convergence failed at  46  side 2    Res =  0.6019E+01
 MRCHDU: Convergence failed at  47  side 2    Res =  0.7554E+01
 MRCHDU: Convergence failed at  48  side 2    Res =  0.1023E+02
 MRCHDU: Convergence failed at  49  side 2    Res =  0.1569E+02
 MRCHDU: Convergence failed at  50  side 2    Res =  0.5052E+02
 MRCHDU: Convergence failed at  51  side 2    Res =  0.8919E+02
 MRCHDU: Convergence failed at  52  side 2    Res =  0.2445E+02
 MRCHDU: Convergence failed at  53  side 2    Res =  0.1533E+02
 MRCHDU: Convergence failed at  54  side 2    Res =  0.1093E+02
 MRCHDU: Convergence failed at  55  side 2    Res =  0.8668E+01
 MRCHDU: Convergence failed at  56  side 2    Res =  0.7246E+01
 MRCHDU: Convergence failed at  57  side 2    Res =  0.6282E+01
 MRCHDU: Convergence failed at  58  side 2    Res =  0.5611E+01
 MRCHDU: Convergence failed at  59  side 2    Res =  0.5111E+01
 MRCHDU: Convergence failed at  60  side 2    Res =  0.4725E+01
 MRCHDU: Convergence failed at  61  side 2    Res =  0.4439E+01
 MRCHDU: Convergence failed at  62  side 2    Res =  0.4226E+01
 MRCHDU: Convergence failed at  63  side 2    Res =  0.3815E+01
 MRCHDU: Convergence failed at  64  side 2    Res =  0.3718E+01
 MRCHDU: Convergence failed at  65  side 2    Res =  0.3677E+01
 MRCHDU: Convergence failed at  66  side 2    Res =  0.3626E+01
 MRCHDU: Convergence failed at  67  side 2    Res =  0.3591E+01
 MRCHDU: Convergence failed at  68  side 2    Res =  0.3751E+01
 MRCHDU: Convergence failed at  69  side 2    Res =  0.3725E+01
 MRCHDU: Convergence failed at  70  side 2    Res =  0.3707E+01
 MRCHDU: Convergence failed at  71  side 2    Res =  0.3599E+01
 MRCHDU: Convergence failed at  72  side 2    Res =  0.3603E+01
 MRCHDU: Convergence failed at  73  side 2    Res =  0.3613E+01
 MRCHDU: Convergence failed at  74  side 2    Res =  0.3478E+01
 MRCHDU: Convergence failed at  75  side 2    Res =  0.3441E+01
 MRCHDU: Convergence failed at  76  side 2    Res =  0.3495E+01
 MRCHDU: Convergence failed at  77  side 2    Res =  0.3577E+01
 MRCHDU: Convergence failed at  78  side 2    Res =  0.3707E+01
 MRCHDU: Convergence failed at  79  side 2    Res =  0.3990E+01
 MRCHDU: Convergence failed at  80  side 2    Res =  0.4596E+01
 MRCHDU: Convergence failed at  81  side 2    Res =  0.5002E+01
 MRCHDU: Convergence failed at  82  side 2    Res =  0.2733E+01
 Side 1  free  transition at x/c =  0.8512   69
 Side 2 forced transition at x/c =  1.0000   82

   2   rms: 0.2604E+00   max: -.1791E+01   C at   82  2   RLX: 0.279
       a = -0.500      CL = -0.1950
      Cm =  0.0691     CD =  0.00495   =>   CDf =  0.00541    CDp = -0.00046

 Side 1  free  transition at x/c =  0.8483   68
 Side 2 forced transition at x/c =  1.0000   82

   3   rms: 0.1878E+00   max: 0.8928E+00   D at   76  2
       a = -0.500      CL =  0.0244
      Cm = -0.0009     CD =  0.00530   =>   CDf =  0.00392    CDp =  0.00138

 Side 1  free  transition at x/c =  0.8349   68
 Side 2  free  transition at x/c =  0.8636   72

   4   rms: 0.7380E-01   max: -.7823E+00   D at   77  2   RLX: 0.639
       a = -0.500      CL =  0.0285
      Cm = -0.0026     CD =  0.00611   =>   CDf =  0.00353    CDp =  0.00258

 Side 1  free  transition at x/c =  0.8367   68
 Side 2  free  transition at x/c =  0.8552   71

   5   rms: 0.3150E-01   max: -.4812E+00   D at   77  2
       a = -0.500      CL =  0.0314
      Cm = -0.0035     CD =  0.00614   =>   CDf =  0.00356    CDp =  0.00258

 Side 1  free  transition at x/c =  0.8376   68
 Side 2  free  transition at x/c =  0.8403   70

   6   rms: 0.8790E-02   max: -.1424E+00   D at   77  2
       a = -0.500      CL =  0.0307
      Cm = -0.0034     CD =  0.00616   =>   CDf =  0.00363    CDp =  0.00253

 Side 1  free  transition at x/c =  0.8376   68
 Side 2  free  transition at x/c =  0.8407   70

   7   rms: 0.4779E-03   max: -.9262E-02   D at   77  2
       a = -0.500      CL =  0.0307
      Cm = -0.0034     CD =  0.00616   =>   CDf =  0.00362    CDp =  0.00254

 Side 1  free  transition at x/c =  0.8376   68
 Side 2  free  transition at x/c =  0.8405   70

   8   rms: 0.2881E-05   max: -.3985E-04   D at   77  2
       a = -0.500      CL =  0.0307
      Cm = -0.0034     CD =  0.00616   =>   CDf =  0.00362    CDp =  0.00254
 plradd ia,ip,cpol            7           0  5.46989730E-03

 Point added to stored polar  1
 Point written to save file  oa209_Re500k.base.pol                           
 Dump file unspecified or not available
 Calculating wake trajectory ...
 Calculating source influence matrix ...

 Solving BL system ...

 Side 1  free  transition at x/c =  0.8376   68
 Side 2  free  transition at x/c =  0.8405   70

   1   rms: 0.1366E+00   max: 0.6274E+00   D at   71  2
       a =  0.000      CL =  0.0799
      Cm = -0.0006     CD =  0.00623   =>   CDf =  0.00359    CDp =  0.00264

 MRCHDU: Convergence failed at  73  side 2    Res =  0.1910E+01
 MRCHDU: Convergence failed at  74  side 2    Res =  0.1814E+02
 MRCHDU: Convergence failed at  75  side 2    Res =  0.3232E+01
 MRCHDU: Convergence failed at  76  side 2    Res =  0.2154E+01
 MRCHDU: Convergence failed at  77  side 2    Res =  0.1749E+01
 MRCHDU: Convergence failed at  78  side 2    Res =  0.2090E+01
 MRCHDU: Convergence failed at  79  side 2    Res =  0.2025E+01
 MRCHDU: Convergence failed at  80  side 2    Res =  0.1447E+01
 Side 1  free  transition at x/c =  0.8029   67
 Side 2 forced transition at x/c =  1.0000   81

   2   rms: 0.1534E+00   max: 0.1498E+01   C at   81  2
       a =  0.000      CL =  0.0706
      Cm =  0.0029     CD =  0.00537   =>   CDf =  0.00370    CDp =  0.00167

 MRCHDU: Convergence failed at  69  side 2    Res =  0.3727E+01
 MRCHDU: Convergence failed at  70  side 2    Res =  0.5210E+01
 Side 1  free  transition at x/c =  0.8076   67
 Side 2  free  transition at x/c =  0.9206   75

   3   rms: 0.7442E-01   max: -.7904E+00   D at   78  2   RLX: 0.633
       a =  0.000      CL =  0.0749
      Cm =  0.0014     CD =  0.00635   =>   CDf =  0.00358    CDp =  0.00277

 Side 1  free  transition at x/c =  0.8057   67
 Side 2  free  transition at x/c =  0.9132   74

   4   rms: 0.3808E-01   max: -.5478E+00   D at   78  2   RLX: 0.913
       a =  0.000      CL =  0.0780
      Cm = -0.0000     CD =  0.00626   =>   CDf =  0.00361    CDp =  0.00265

 Side 1  free  transition at x/c =  0.8049   67
 Side 2  free  transition at x/c =  0.9015   73

   5   rms: 0.1461E-01   max: -.2286E+00   D at   78  2
       a =  0.000      CL =  0.0759
      Cm =  0.0004     CD =  0.00631   =>   CDf =  0.00366    CDp =  0.00264

 Side 1  free  transition at x/c =  0.8050   67
 Side 2  free  transition at x/c =  0.8998   73

   6   rms: 0.1208E-02   max: -.2316E-01   D at   78  2
       a =  0.000      CL =  0.0756
      Cm =  0.0005     CD =  0.00630   =>   CDf =  0.00367    CDp =  0.00264

 Side 1  free  transition at x/c =  0.8050   67
 Side 2  free  transition at x/c =  0.8997   73

   7   rms: 0.1411E-04   max: -.2698E-03   D at   78  2
       a =  0.000      CL =  0.0756
      Cm =  0.0005     CD =  0.00630   =>   CDf =  0.00367    CDp =  0.00264
 plradd ia,ip,cpol            8           0  5.46989730E-03

 Point added to stored polar  1
 Point written to save file  oa209_Re500k.base.pol                           
 Dump file unspecified or not available
 Calculating wake trajectory ...
 Calculating source influence matrix ...

 Solving BL system ...

 Side 1  free  transition at x/c =  0.8050   67
 Side 2  free  transition at x/c =  0.8997   73

   1   rms: 0.1178E+00   max: -.6219E+00   T at   73  2   RLX: 0.804
       a =  0.500      CL =  0.1121
      Cm =  0.0035     CD =  0.00648   =>   CDf =  0.00367    CDp =  0.00281

 Side 1  free  transition at x/c =  0.7661   64
 Side 2  free  transition at x/c =  0.9282   75

   2   rms: 0.4003E-01   max: 0.5727E+00   D at   75  2
       a =  0.500      CL =  0.1151
      Cm =  0.0056     CD =  0.00631   =>   CDf =  0.00379    CDp =  0.00252

 Side 1  free  transition at x/c =  0.7582   65
 Side 2  free  transition at x/c =  0.9330   74

   3   rms: 0.5019E-02   max: -.5327E-01   D at   76  2
       a =  0.500      CL =  0.1171
      Cm =  0.0051     CD =  0.00644   =>   CDf =  0.00383    CDp =  0.00260

 Side 1  free  transition at x/c =  0.7583   65
 Side 2  free  transition at x/c =  0.9341   75

   4   rms: 0.1919E-02   max: -.3602E-01   D at   74  2
       a =  0.500      CL =  0.1167
      Cm =  0.0052     CD =  0.00642   =>   CDf =  0.00383    CDp =  0.00259

 Side 1  free  transition at x/c =  0.7584   65
[...]
       a = 12.750      CL =  1.3932
      Cm = -0.0013     CD =  0.03027   =>   CDf =  0.00552    CDp =  0.02474

 Side 1  free  transition at x/c =  0.0233   28
 Side 2 forced transition at x/c =  1.0000   66

   2   rms: 0.6070E-02   max: 0.2658E-01   D at   93  1
       a = 12.750      CL =  1.3891
      Cm = -0.0009     CD =  0.03031   =>   CDf =  0.00544    CDp =  0.02487

 Side 1  free  transition at x/c =  0.0234   28
 Side 2 forced transition at x/c =  1.0000   66

   3   rms: 0.2985E-03   max: -.4841E-02   C at   66  2
       a = 12.750      CL =  1.3891
      Cm = -0.0009     CD =  0.03031   =>   CDf =  0.00544    CDp =  0.02487

 Side 1  free  transition at x/c =  0.0234   28
 Side 2 forced transition at x/c =  1.0000   66

   4   rms: 0.1780E-05   max: -.1094E-04   D at   69  2
       a = 12.750      CL =  1.3891
      Cm = -0.0009     CD =  0.03031   =>   CDf =  0.00544    CDp =  0.02487
 plradd ia,ip,cpol           39           0  1.17432384E-03

 Point added to stored polar  1
 Point written to save file  oa209_Re500k.base.pol                           
 Dump file unspecified or not available
 Calculating wake trajectory ...
 Calculating source influence matrix ...

 Solving BL system ...

 Side 1  free  transition at x/c =  0.0234   28
 Side 2 forced transition at x/c =  1.0000   66

   1   rms: 0.3835E-01   max: -.1415E+00   C at   66  2
       a = 13.000      CL =  1.3940
      Cm =  0.0009     CD =  0.03196   =>   CDf =  0.00544    CDp =  0.02651

 Side 1  free  transition at x/c =  0.0228   28
 Side 2 forced transition at x/c =  1.0000   66

   2   rms: 0.6137E-02   max: 0.3315E-01   D at   89  1
       a = 13.000      CL =  1.3898
      Cm =  0.0011     CD =  0.03223   =>   CDf =  0.00536    CDp =  0.02687

 Side 1  free  transition at x/c =  0.0228   28
 Side 2 forced transition at x/c =  1.0000   66

   3   rms: 0.2102E-03   max: 0.2438E-02   D at   87  1
       a = 13.000      CL =  1.3897
      Cm =  0.0011     CD =  0.03221   =>   CDf =  0.00536    CDp =  0.02686

 Side 1  free  transition at x/c =  0.0228   28
 Side 2 forced transition at x/c =  1.0000   66

   4   rms: 0.3434E-05   max: 0.2433E-04   D at   87  1
       a = 13.000      CL =  1.3897
      Cm =  0.0011     CD =  0.03221   =>   CDf =  0.00536    CDp =  0.02686
 plradd ia,ip,cpol           40           0  1.17432384E-03

 Point added to stored polar  1
 Point written to save file  oa209_Re500k.base.pol                           
 Dump file unspecified or not available
 Calculating wake trajectory ...
 Calculating source influence matrix ...

 Solving BL system ...

 Side 1  free  transition at x/c =  0.0228   28
 Side 2 forced transition at x/c =  1.0000   66

   1   rms: 0.4534E-01   max: -.1529E+00   C at   66  2
       a = 13.250      CL =  1.3889
      Cm =  0.0029     CD =  0.03475   =>   CDf =  0.00536    CDp =  0.02939

 Side 1  free  transition at x/c =  0.0222   28
 Side 2 forced transition at x/c =  1.0000   66

   2   rms: 0.8152E-02   max: 0.4399E-01   D at   86  1
       a = 13.250      CL =  1.3826
      Cm =  0.0031     CD =  0.03516   =>   CDf =  0.00523    CDp =  0.02993

 Side 1  free  transition at x/c =  0.0222   28
 Side 2 forced transition at x/c =  1.0000   66

   3   rms: 0.2505E-03   max: 0.4257E-02   D at   85  1
       a = 13.250      CL =  1.3826
      Cm =  0.0032     CD =  0.03514   =>   CDf =  0.00522    CDp =  0.02991

 Side 1  free  transition at x/c =  0.0222   28
 Side 2 forced transition at x/c =  1.0000   66

   4   rms: 0.3391E-05   max: 0.3573E-04   D at   75  2
       a = 13.250      CL =  1.3826
      Cm =  0.0032     CD =  0.03514   =>   CDf =  0.00522    CDp =  0.02991
 plradd ia,ip,cpol           41           0  1.17432384E-03

 Point added to stored polar  1
 Point written to save file  oa209_Re500k.base.pol                           
 Dump file unspecified or not available
 Calculating wake trajectory ...
 Calculating source influence matrix ...

 Solving BL system ...

 Side 1  free  transition at x/c =  0.0222   28
 Side 2 forced transition at x/c =  1.0000   66

   1   rms: 0.6260E-01   max: 0.1805E+00   D at   79  1
       a = 13.500      CL =  1.3725
      Cm =  0.0050     CD =  0.03922   =>   CDf =  0.00523    CDp =  0.03400

 Side 1  free  transition at x/c =  0.0219   27
 Side 2 forced transition at x/c =  1.0000   66

   2   rms: 0.2017E-01   max: -.1757E+00   D at   27  1
       a = 13.500      CL =  1.3850
      Cm =  0.0041     CD =  0.03711   =>   CDf =  0.00504    CDp =  0.03207

 Side 1  free  transition at x/c =  0.0220   27
 Side 2 forced transition at x/c =  1.0000   66

   3   rms: 0.3733E-02   max: -.1162E-01   D at   83  1
       a = 13.500      CL =  1.3877
      Cm =  0.0040     CD =  0.03694   =>   CDf =  0.00508    CDp =  0.03186

 Side 1  free  transition at x/c =  0.0219   27
 Side 2 forced transition at x/c =  1.0000   66

   4   rms: 0.1791E-03   max: 0.9610E-03   D at   83  1
       a = 13.500      CL =  1.3876
      Cm =  0.0040     CD =  0.03696   =>   CDf =  0.00507    CDp =  0.03188

 Side 1  free  transition at x/c =  0.0219   27
 Side 2 forced transition at x/c =  1.0000   66

   5   rms: 0.5363E-05   max: -.2191E-04   C at   66  2
       a = 13.500      CL =  1.3876
      Cm =  0.0040     CD =  0.03696   =>   CDf =  0.00507    CDp =  0.03188
 plradd ia,ip,cpol           42           0  1.17432384E-03

 Point added to stored polar  1
 Point written to save file  oa209_Re500k.base.pol                           
 Dump file unspecified or not available
 Calculating wake trajectory ...
 Calculating source influence matrix ...

 Solving BL system ...

 Side 1  free  transition at x/c =  0.0219   27
 Side 2 forced transition at x/c =  1.0000   66

   1   rms: 0.3629E-01   max: 0.1011E+00   T at   27  1
       a = 13.750      CL =  1.3939
      Cm =  0.0045     CD =  0.03906   =>   CDf =  0.00508    CDp =  0.03398

 Side 1  free  transition at x/c =  0.0216   27
 Side 2 forced transition at x/c =  1.0000   66

   2   rms: 0.5052E-02   max: 0.3497E-01   D at   82  1
       a = 13.750      CL =  1.3905
      Cm =  0.0045     CD =  0.03916   =>   CDf =  0.00492    CDp =  0.03424

 Side 1  free  transition at x/c =  0.0216   27
 Side 2 forced transition at x/c =  1.0000   66

   3   rms: 0.2215E-03   max: 0.2601E-02   D at   81  1
       a = 13.750      CL =  1.3904
      Cm =  0.0045     CD =  0.03914   =>   CDf =  0.00492    CDp =  0.03423

 Side 1  free  transition at x/c =  0.0216   27
 Side 2 forced transition at x/c =  1.0000   66

   4   rms: 0.5175E-05   max: -.4449E-04   C at   66  2
       a = 13.750      CL =  1.3904
      Cm =  0.0045     CD =  0.03914   =>   CDf =  0.00492    CDp =  0.03422
 plradd ia,ip,cpol           43           0  1.17432384E-03

 Point added to stored polar  1
 Point written to save file  oa209_Re500k.base.pol                           
 Dump file unspecified or not available
 Calculating wake trajectory ...
 Calculating source influence matrix ...

 Solving BL system ...

 Side 1  free  transition at x/c =  0.0216   27
 Side 2 forced transition at x/c =  1.0000   66

   1   rms: 0.3754E-01   max: 0.1108E+00   D at   77  1
       a = 14.000      CL =  1.3947
      Cm =  0.0047     CD =  0.04167   =>   CDf =  0.00492    CDp =  0.03675

 Side 1  free  transition at x/c =  0.0213   27
 Side 2 forced transition at x/c =  1.0000   66

   2   rms: 0.5522E-02   max: 0.3996E-01   D at   80  1
       a = 14.000      CL =  1.3911
      Cm =  0.0047     CD =  0.04175   =>   CDf =  0.00477    CDp =  0.03699

 Side 1  free  transition at x/c =  0.0213   27
 Side 2 forced transition at x/c =  1.0000   66

   3   rms: 0.1441E-03   max: 0.2023E-02   D at   77  2
       a = 14.000      CL =  1.3910
      Cm =  0.0047     CD =  0.04172   =>   CDf =  0.00476    CDp =  0.03696

 Side 1  free  transition at x/c =  0.0213   27
 Side 2 forced transition at x/c =  1.0000   66

   4   rms: 0.3004E-05   max: -.2295E-04   C at   66  2
       a = 14.000      CL =  1.3910
      Cm =  0.0047     CD =  0.04172   =>   CDf =  0.00476    CDp =  0.03696
 plradd ia,ip,cpol           44           0  1.17432384E-03

 Point added to stored polar  1
 Point written to save file  oa209_Re500k.base.pol                           
 Dump file unspecified or not available
 Calculating wake trajectory ...
 Calculating source influence matrix ...

 Solving BL system ...

 Side 1  free  transition at x/c =  0.0213   27
 Side 2 forced transition at x/c =  1.0000   66

   1   rms: 0.3893E-01   max: 0.1217E+00   D at   75  1
       a = 14.250      CL =  1.3937
      Cm =  0.0044     CD =  0.04473   =>   CDf =  0.00477    CDp =  0.03996

 Side 1  free  transition at x/c =  0.0210   27
 Side 2 forced transition at x/c =  1.0000   66

   2   rms: 0.6077E-02   max: 0.4125E-01   D at   77  1
       a = 14.250      CL =  1.3897
      Cm =  0.0043     CD =  0.04479   =>   CDf =  0.00461    CDp =  0.04017

 Side 1  free  transition at x/c =  0.0210   27
 Side 2 forced transition at x/c =  1.0000   66

   3   rms: 0.2075E-03   max: 0.3628E-02   D at   76  1
       a = 14.250      CL =  1.3896
      Cm =  0.0044     CD =  0.04474   =>   CDf =  0.00461    CDp =  0.04013

 Side 1  free  transition at x/c =  0.0210   27
 Side 2 forced transition at x/c =  1.0000   66

   4   rms: 0.4283E-05   max: -.6014E-04   C at   66  2
       a = 14.250      CL =  1.3896
      Cm =  0.0044     CD =  0.04474   =>   CDf =  0.00461    CDp =  0.04013
 plradd ia,ip,cpol           45           0  5.52063691E-04

 Point added to stored polar  1
 Point written to save file  oa209_Re500k.base.pol                           
 Dump file unspecified or not available
 Calculating wake trajectory ...
 Calculating source influence matrix ...

 Solving BL system ...

 Side 1  free  transition at x/c =  0.0210   27
 Side 2 forced transition at x/c =  1.0000   66

   1   rms: 0.3982E-01   max: 0.1287E+00   D at   73  1
       a = 14.500      CL =  1.3915
      Cm =  0.0035     CD =  0.04819   =>   CDf =  0.00413    CDp =  0.04406

 Side 1  free  transition at x/c =  0.0207   28
 Side 2 forced transition at x/c =  1.0000   65

   2   rms: 0.1179E-01   max: -.1565E+00   T at    2  1
       a = 14.500      CL =  1.3868
      Cm =  0.0034     CD =  0.04827   =>   CDf =  0.00445    CDp =  0.04382

 Side 1  free  transition at x/c =  0.0208   28
 Side 2 forced transition at x/c =  1.0000   65

   3   rms: 0.9706E-03   max: -.1154E-01   D at    4  1
       a = 14.500      CL =  1.3865
      Cm =  0.0035     CD =  0.04819   =>   CDf =  0.00444    CDp =  0.04375

 Side 1  free  transition at x/c =  0.0208   28
 Side 2 forced transition at x/c =  1.0000   65

   4   rms: 0.9388E-05   max: 0.5032E-04   T at    4  1
       a = 14.500      CL =  1.3865
      Cm =  0.0035     CD =  0.04819   =>   CDf =  0.00444    CDp =  0.04375
 plradd ia,ip,cpol           46           0  5.52063691E-04

 Point added to stored polar  1
 Point written to save file  oa209_Re500k.base.pol                           
 Dump file unspecified or not available
 Calculating wake trajectory ...
 Calculating source influence matrix ...

 Solving BL system ...

 Side 1  free  transition at x/c =  0.0208   28
 Side 2 forced transition at x/c =  1.0000   65

   1   rms: 0.4238E-01   max: -.1608E+00   D at    3  1
       a = 14.750      CL =  1.3869
      Cm =  0.0020     CD =  0.05227   =>   CDf =  0.00445    CDp =  0.04782

 Side 1  free  transition at x/c =  0.0204   28
 Side 2 forced transition at x/c =  1.0000   65

   2   rms: 0.8391E-02   max: 0.5308E-01   D at   73  1
       a = 14.750      CL =  1.3817
      Cm =  0.0019     CD =  0.05231   =>   CDf =  0.00429    CDp =  0.04802

 Side 1  free  transition at x/c =  0.0205   28
 Side 2 forced transition at x/c =  1.0000   65

   3   rms: 0.4958E-03   max: 0.5897E-02   D at   71  1
       a = 14.750      CL =  1.3814
      Cm =  0.0019     CD =  0.05221   =>   CDf =  0.00428    CDp =  0.04793

 Side 1  free  transition at x/c =  0.0205   28
 Side 2 forced transition at x/c =  1.0000   65

   4   rms: 0.1480E-04   max: 0.1069E-03   D at   78  2
       a = 14.750      CL =  1.3814
      Cm =  0.0019     CD =  0.05221   =>   CDf =  0.00428    CDp =  0.04792
 plradd ia,ip,cpol           47           0  5.52063691E-04

 Point added to stored polar  1
 Point written to save file  oa209_Re500k.base.pol                           
 Dump file unspecified or not available
 Calculating wake trajectory ...
 Calculating source influence matrix ...

 Solving BL system ...

 Side 1  free  transition at x/c =  0.0205   28
 Side 2 forced transition at x/c =  1.0000   65

   1   rms: 0.4267E-01   max: 0.1491E+00   D at   69  1
       a = 15.000      CL =  1.3809
      Cm = -0.0002     CD =  0.05689   =>   CDf =  0.00429    CDp =  0.05260

 Side 1  free  transition at x/c =  0.0202   28
 Side 2 forced transition at x/c =  1.0000   65

   2   rms: 0.9682E-02   max: 0.5716E-01   D at   70  1
       a = 15.000      CL =  1.3750
      Cm = -0.0003     CD =  0.05690   =>   CDf =  0.00413    CDp =  0.05277

 Side 1  free  transition at x/c =  0.0203   28
 Side 2 forced transition at x/c =  1.0000   65

   3   rms: 0.7888E-03   max: 0.7029E-02   D at   68  1
       a = 15.000      CL =  1.3744
      Cm = -0.0003     CD =  0.05678   =>   CDf =  0.00413    CDp =  0.05265

 Side 1  free  transition at x/c =  0.0203   28
 Side 2 forced transition at x/c =  1.0000   65

   4   rms: 0.2597E-04   max: 0.1544E-03   D at   78  2
       a = 15.000      CL =  1.3743
      Cm = -0.0003     CD =  0.05677   =>   CDf =  0.00413    CDp =  0.05265
 plradd ia,ip,cpol           48           0  5.52063691E-04

 Point added to stored polar  1
 Point written to save file  oa209_Re500k.base.pol                           
 Dump file unspecified or not available
 Calculating wake trajectory ...
 Calculating source influence matrix ...

 Solving BL system ...

 Side 1  free  transition at x/c =  0.0203   28
 Side 2 forced transition at x/c =  1.0000   65

   1   rms: 0.4348E-01   max: 0.1565E+00   D at   66  1
       a = 15.250      CL =  1.3729
      Cm = -0.0030     CD =  0.06206   =>   CDf =  0.00413    CDp =  0.05793

 Side 1  free  transition at x/c =  0.0200   28
 Side 2 forced transition at x/c =  1.0000   65

   2   rms: 0.1104E-01   max: 0.6103E-01   D at   66  1
       a = 15.250      CL =  1.3663
      Cm = -0.0031     CD =  0.06209   =>   CDf =  0.00398    CDp =  0.05811

 Side 1  free  transition at x/c =  0.0201   28
 Side 2 forced transition at x/c =  1.0000   65

   3   rms: 0.9250E-03   max: 0.6356E-02   D at   65  1
       a = 15.250      CL =  1.3655
      Cm = -0.0030     CD =  0.06193   =>   CDf =  0.00397    CDp =  0.05796

 Side 1  free  transition at x/c =  0.0201   28
 Side 2 forced transition at x/c =  1.0000   65

   4   rms: 0.3688E-04   max: 0.1767E-03   D at   79  2
       a = 15.250      CL =  1.3655
      Cm = -0.0030     CD =  0.06192   =>   CDf =  0.00397    CDp =  0.05795
 plradd ia,ip,cpol           49           0  5.52063691E-04

 Point added to stored polar  1
 Point written to save file  oa209_Re500k.base.pol                           
 Dump file unspecified or not available
 Calculating wake trajectory ...
 Calculating source influence matrix ...

 Solving BL system ...

 Side 1  free  transition at x/c =  0.0201   28
 Side 2 forced transition at x/c =  1.0000   65

   1   rms: 0.4472E-01   max: 0.1663E+00   D at   63  1   RLX: 0.962
       a = 15.500      CL =  1.3633
      Cm = -0.0063     CD =  0.06773   =>   CDf =  0.00397    CDp =  0.06375

 Side 1  free  transition at x/c =  0.0198   28
 Side 2 forced transition at x/c =  1.0000   65

   2   rms: 0.1226E-01   max: 0.6638E-01   D at   63  1
       a = 15.500      CL =  1.3561
      Cm = -0.0064     CD =  0.06783   =>   CDf =  0.00383    CDp =  0.06400

 Side 1  free  transition at x/c =  0.0199   28
 Side 2 forced transition at x/c =  1.0000   65

   3   rms: 0.1511E-02   max: 0.1391E-01   D at   79  2
       a = 15.500      CL =  1.3550
      Cm = -0.0063     CD =  0.06762   =>   CDf =  0.00381    CDp =  0.06380

 Side 1  free  transition at x/c =  0.0199   28
 Side 2 forced transition at x/c =  1.0000   65

   4   rms: 0.5678E-04   max: 0.6684E-03   D at   79  2
       a = 15.500      CL =  1.3549
      Cm = -0.0062     CD =  0.06760   =>   CDf =  0.00382    CDp =  0.06378
 plradd ia,ip,cpol           50           0  5.52063691E-04

 Point added to stored polar  1
 Point written to save file  oa209_Re500k.base.pol                           
 Dump file unspecified or not available
 Calculating wake trajectory ...
 Calculating source influence matrix ...

 Solving BL system ...

 Side 1  free  transition at x/c =  0.0199   28
 Side 2 forced transition at x/c =  1.0000   65

   1   rms: 0.4496E-01   max: 0.1712E+00   D at   60  1   RLX: 0.894
       a = 15.750      CL =  1.3522
      Cm = -0.0097     CD =  0.07350   =>   CDf =  0.00382    CDp =  0.06968

 Side 1  free  transition at x/c =  0.0197   28
 Side 2 forced transition at x/c =  1.0000   65

   2   rms: 0.1440E-01   max: 0.7311E-01   D at   60  1
       a = 15.750      CL =  1.3443
      Cm = -0.0100     CD =  0.07403   =>   CDf =  0.00369    CDp =  0.07034

 Side 1  free  transition at x/c =  0.0198   28
 Side 2 forced transition at x/c =  1.0000   65

   3   rms: 0.2035E-02   max: 0.1051E-01   D at   80  2
       a = 15.750      CL =  1.3427
      Cm = -0.0098     CD =  0.07377   =>   CDf =  0.00367    CDp =  0.07011

 Side 1  free  transition at x/c =  0.0198   28
 Side 2 forced transition at x/c =  1.0000   65

   4   rms: 0.1082E-03   max: 0.7631E-03   D at   80  2
       a = 15.750      CL =  1.3426
      Cm = -0.0098     CD =  0.07374   =>   CDf =  0.00367    CDp =  0.07007

 Side 1  free  transition at x/c =  0.0198   28
 Side 2 forced transition at x/c =  1.0000   65

   5   rms: 0.6908E-05   max: -.2296E-04   D at   58  1
       a = 15.750      CL =  1.3426
      Cm = -0.0098     CD =  0.07374   =>   CDf =  0.00367    CDp =  0.07007
 plradd ia,ip,cpol           51           0  5.52063691E-04

 Point added to stored polar  1
 Point written to save file  oa209_Re500k.base.pol                           
 Dump file unspecified or not available
 Calculating wake trajectory ...
 Calculating source influence matrix ...

 Solving BL system ...

 Side 1  free  transition at x/c =  0.0198   28
 Side 2 forced transition at x/c =  1.0000   65

   1   rms: 0.4444E-01   max: 0.1719E+00   D at   57  1   RLX: 0.832
       a = 16.000      CL =  1.3391
      Cm = -0.0132     CD =  0.07970   =>   CDf =  0.00367    CDp =  0.07603

 Side 1  free  transition at x/c =  0.0196   28
 Side 2 forced transition at x/c =  1.0000   65

   2   rms: 0.1619E-01   max: 0.7887E-01   D at   57  1
       a = 16.000      CL =  1.3311
      Cm = -0.0138     CD =  0.08067   =>   CDf =  0.00355    CDp =  0.07712

 Side 1  free  transition at x/c =  0.0196   28
 Side 2 forced transition at x/c =  1.0000   65

   3   rms: 0.2985E-02   max: 0.1508E-01   D at   80  2
       a = 16.000      CL =  1.3288
      Cm = -0.0136     CD =  0.08034   =>   CDf =  0.00352    CDp =  0.07682

 Side 1  free  transition at x/c =  0.0197   28
 Side 2 forced transition at x/c =  1.0000   65

   4   rms: 0.2719E-03   max: 0.2922E-02   D at   80  2
       a = 16.000      CL =  1.3286
      Cm = -0.0136     CD =  0.08028   =>   CDf =  0.00352    CDp =  0.07676

 Side 1  free  transition at x/c =  0.0197   28
 Side 2 forced transition at x/c =  1.0000   65

   5   rms: 0.9147E-05   max: 0.9728E-04   D at   80  2
       a = 16.000      CL =  1.3286
      Cm = -0.0136     CD =  0.08028   =>   CDf =  0.00352    CDp =  0.07676
 plradd ia,ip,cpol           52           0  5.52063691E-04

 Point added to stored polar  1
 Point written to save file  oa209_Re500k.base.pol                           
 Dump file unspecified or not available

.OPERva   c>  
 Polar accumulation disabled

.OPERv   c>  
 XFOIL   c>  
 XFOIL   c>  