
 ===================================================
  XFOIL Version 6.99
  Copyright (C) 2000   Mark Drela, Harold Youngren

  This software comes with ABSOLUTELY NO WARRANTY,
    subject to the GNU General Public License.

  Caveat computor
 ===================================================

 File  xfoil.def  not found

   QUIT    Exit program

  .OPER    Direct operating point(s)
  .MDES    Complex mapping design routine
  .QDES    Surface speed design routine
  .GDES    Geometry design routine

   SAVE f  Write airfoil to labeled coordinate file
   PSAV f  Write airfoil to plain coordinate file
   ISAV f  Write airfoil to ISES coordinate file
   MSAV f  Write airfoil to MSES coordinate file
   REVE    Reverse written-airfoil node ordering

   LOAD f  Read buffer airfoil from coordinate file
   NACA i  Set NACA 4,5-digit airfoil and buffer airfoil
   INTE    Set buffer airfoil by interpolating two airfoils
   NORM    Buffer airfoil normalization toggle
   XYCM rr Change CM reference location, currently  0.25000 0.00000

   BEND    Display structural properties of current airfoil

   PCOP    Set current-airfoil panel nodes directly from buffer airfoil points
   PANE    Set current-airfoil panel nodes ( 160 ) based on curvature
  .PPAR    Show/change paneling

  .PLOP    Plotting options

   WDEF f  Write  current-settings file
   RDEF f  Reread current-settings file
   NAME s  Specify new airfoil name
   NINC    Increment name version number

   Z       Zoom    | (available in all menus)
   U       Unzoom  | 

 XFOIL   c>  
 Labeled airfoil file.  Name:   ONERA OA206 AIRFOIL                            

 Number of input coordinate points: 113
 Counterclockwise ordering
 Max thickness =     0.060072  at x =   0.318
 Max camber    =     0.008432  at x =   0.196

  LE  x,y  =  -0.00000  -0.00001  |   Chord =   1.00000
  TE  x,y  =   1.00000   0.00011  |

 Current airfoil nodes set from buffer airfoil nodes ( 113 )

 XFOIL   c>  
 XFOIL   c>  
 Blunt trailing edge.  Gap =  0.00335

 Paneling parameters used...
   Number of panel nodes       160
   Panel bunching parameter    1.000
   TE/LE panel density ratio   0.150
   Refined-area/LE panel density ratio    0.200
   Top    side refined area x/c limits  1.000 1.000
   Bottom side refined area x/c limits  1.000 1.000

 XFOIL   c>  
.OPERi   c>  
 Xtr/c     =  1.0000    top    side
 Xtr/c     =  1.0000    bottom side
 Ncrit     =    9.00   ( 0.070 % turb. level )
 Vacc      =  0.0100

 Klag  =  5.6000     Uxwt  =    1.00
 A     =  6.7000     B     =  0.7500       KCt = 0.01485
 CtiniK=  1.8000     CtiniX=  3.3000

..VPAR   c>  
..VPAR   c>  
.OPERi   c>  
 M  =    0.0000
 Re =    600000

.OPERv   c>  
.OPERv   c>  
.OPERv   c>  
 Polar  1 newly created for accumulation
 Airfoil archived with polar: ONERA OA206 AIRFOIL                             

Enter  polar save filename  OR  <return> for no file   s>  
 New polar save file available

Enter  polar dump filename  OR  <return> for no file   s>  
 Polar dump file will NOT be written

 Polar accumulation enabled

.OPERva   c>   Calculating unit vorticity distributions ...
 Calculating wake trajectory ...
 Calculating source influence matrix ...

 Solving BL system ...

 Initializing BL ...
    side            1  ...
 MRCHUE: Inverse mode at  66     Hk =   4.088
 MRCHUE: Inverse mode at  67     Hk =   4.584
 MRCHUE: Inverse mode at  68     Hk =   5.071
 MRCHUE: Inverse mode at  69     Hk =   5.550
 MRCHUE: Inverse mode at  70     Hk =   6.018
 MRCHUE: Inverse mode at  71     Hk =   6.479
 MRCHUE: Inverse mode at  72     Hk =   6.930
 MRCHUE: Inverse mode at  73     Hk =   7.374
 MRCHUE: Inverse mode at  74     Hk =   7.816
 MRCHUE: Inverse mode at  75     Hk =   8.207
 MRCHUE: Inverse mode at  76     Hk =   8.519
 MRCHUE: Inverse mode at  77     Hk =   8.690
    side            2  ...
 MRCHUE: Inverse mode at  11     Hk =   4.912
 MRCHUE: Convergence failed at  12  side 2    Res =  0.2712E+01
 MRCHUE: Inverse mode at  13     Hk =   7.027
 MRCHUE: Inverse mode at  14     Hk =   6.966
 MRCHUE: Inverse mode at  15     Hk =   2.500
 MRCHUE: Inverse mode at  16     Hk =   2.500
 MRCHUE: Inverse mode at  87     Hk =   2.589
 MRCHUE: Inverse mode at  88     Hk =   2.484

 MRCHDU: Convergence failed at  15  side 2    Res =  0.2913E+01
 MRCHDU: Convergence failed at  16  side 2    Res =  0.7437E+01
 MRCHDU: Convergence failed at  17  side 2    Res =  0.5496E+02
 MRCHDU: Convergence failed at  18  side 2    Res =  0.2019E+02
 MRCHDU: Convergence failed at  19  side 2    Res =  0.4573E+02
 MRCHDU: Convergence failed at  20  side 2    Res =  0.3538E+02
 MRCHDU: Convergence failed at  21  side 2    Res =  0.2865E+02
 MRCHDU: Convergence failed at  22  side 2    Res =  0.3018E+02
 MRCHDU: Convergence failed at  23  side 2    Res =  0.1763E+02
 MRCHDU: Convergence failed at  24  side 2    Res =  0.1854E+02
 MRCHDU: Convergence failed at  25  side 2    Res =  0.1936E+02
 MRCHDU: Convergence failed at  26  side 2    Res =  0.2029E+02
 MRCHDU: Convergence failed at  27  side 2    Res =  0.1877E+02
 MRCHDU: Convergence failed at  28  side 2    Res =  0.1959E+02
 MRCHDU: Convergence failed at  29  side 2    Res =  0.2035E+02
 MRCHDU: Convergence failed at  30  side 2    Res =  0.1899E+02
 MRCHDU: Convergence failed at  31  side 2    Res =  0.1979E+02
 MRCHDU: Convergence failed at  32  side 2    Res =  0.2061E+02
 MRCHDU: Convergence failed at  33  side 2    Res =  0.2147E+02
 MRCHDU: Convergence failed at  34  side 2    Res =  0.2239E+02
 MRCHDU: Convergence failed at  35  side 2    Res =  0.2330E+02
 MRCHDU: Convergence failed at  36  side 2    Res =  0.2428E+02
 MRCHDU: Convergence failed at  37  side 2    Res =  0.2517E+02
 MRCHDU: Convergence failed at  38  side 2    Res =  0.2592E+02
 MRCHDU: Convergence failed at  39  side 2    Res =  0.2668E+02
 MRCHDU: Convergence failed at  40  side 2    Res =  0.2718E+02
 MRCHDU: Convergence failed at  41  side 2    Res =  0.2757E+02
 MRCHDU: Convergence failed at  42  side 2    Res =  0.2938E+02
 MRCHDU: Convergence failed at  43  side 2    Res =  0.2986E+02
 MRCHDU: Convergence failed at  44  side 2    Res =  0.3052E+02
 MRCHDU: Convergence failed at  45  side 2    Res =  0.3110E+02
 MRCHDU: Convergence failed at  46  side 2    Res =  0.3175E+02
 MRCHDU: Convergence failed at  47  side 2    Res =  0.3255E+02
 MRCHDU: Convergence failed at  48  side 2    Res =  0.3297E+02
 MRCHDU: Convergence failed at  49  side 2    Res =  0.3391E+02
 MRCHDU: Convergence failed at  50  side 2    Res =  0.3479E+02
 MRCHDU: Convergence failed at  51  side 2    Res =  0.3583E+02
 MRCHDU: Convergence failed at  52  side 2    Res =  0.3696E+02
 MRCHDU: Convergence failed at  53  side 2    Res =  0.3801E+02
 MRCHDU: Convergence failed at  54  side 2    Res =  0.4021E+02
 MRCHDU: Convergence failed at  55  side 2    Res =  0.4146E+02
 MRCHDU: Convergence failed at  56  side 2    Res =  0.4602E+02
 MRCHDU: Convergence failed at  57  side 2    Res =  0.4767E+02
 MRCHDU: Convergence failed at  58  side 2    Res =  0.4972E+02
 MRCHDU: Convergence failed at  59  side 2    Res =  0.5204E+02
 MRCHDU: Convergence failed at  60  side 2    Res =  0.5415E+02
 MRCHDU: Convergence failed at  61  side 2    Res =  0.5742E+02
 MRCHDU: Convergence failed at  62  side 2    Res =  0.6019E+02
 MRCHDU: Convergence failed at  63  side 2    Res =  0.6392E+02
 MRCHDU: Convergence failed at  64  side 2    Res =  0.6812E+02
 MRCHDU: Convergence failed at  65  side 2    Res =  0.7263E+02
 MRCHDU: Convergence failed at  66  side 2    Res =  0.7866E+02
 MRCHDU: Convergence failed at  67  side 2    Res =  0.8516E+02
 MRCHDU: Convergence failed at  68  side 2    Res =  0.9322E+02
 MRCHDU: Convergence failed at  69  side 2    Res =  0.1046E+03
 MRCHDU: Convergence failed at  70  side 2    Res =  0.1196E+03
 MRCHDU: Convergence failed at  71  side 2    Res =  0.1442E+03
 MRCHDU: Convergence failed at  72  side 2    Res =  0.6453E+02
 MRCHDU: Convergence failed at  73  side 2    Res =  0.6010E+02
 MRCHDU: Convergence failed at  74  side 2    Res =  0.5331E+02
 MRCHDU: Convergence failed at  75  side 2    Res =  0.1136E+04
 MRCHDU: Convergence failed at  76  side 2    Res =  0.4857E+02
 MRCHDU: Convergence failed at  77  side 2    Res =  0.5727E+02
 MRCHDU: Convergence failed at  78  side 2    Res =  0.7049E+02
 MRCHDU: Convergence failed at  79  side 2    Res =  0.6423E+02
 MRCHDU: Convergence failed at  80  side 2    Res =  0.8089E+02
 MRCHDU: Convergence failed at  81  side 2    Res =  0.9981E+02
 MRCHDU: Convergence failed at  82  side 2    Res =  0.1147E+03
 MRCHDU: Convergence failed at  83  side 2    Res =  0.1185E+03
 MRCHDU: Convergence failed at  84  side 2    Res =  0.1132E+03
 MRCHDU: Convergence failed at  85  side 2    Res =  0.1532E+03
 Side 1 forced transition at x/c =  1.0000   77
 Side 2  free  transition at x/c =  0.0238   15

   1   rms: 0.1548E+01   max: 0.1908E+01   D at   89  2   RLX: 0.246
       a = -4.000      CL = -2.2836
      Cm =  0.5237     CD =  0.00376   =>   CDf =  0.00125    CDp =  0.00251

 MRCHDU: Convergence failed at  15  side 2    Res =  0.4688E+01
 Side 1 forced transition at x/c =  1.0000   77
 Side 2  free  transition at x/c =  0.0208   14

   2   rms: 0.8397E+00   max: -.6810E+00   U at   85  2   RLX: 0.272
       a = -4.000      CL = -1.5597
      Cm =  0.3007     CD =  0.01195   =>   CDf =  0.00988    CDp =  0.00206

 Side 1 forced transition at x/c =  1.0000   77
 Side 2  free  transition at x/c =  0.0184   14

   3   rms: 0.6388E+00   max: -.5682E+00   D at   86  2   RLX: 0.301
       a = -4.000      CL = -1.2026
      Cm =  0.2058     CD =  0.01260   =>   CDf =  0.00788    CDp =  0.00472

 MRCHDU: Convergence failed at  26  side 2    Res =  0.5512E+00
 MRCHDU: Convergence failed at  27  side 2    Res =  0.6735E+00
 MRCHDU: Convergence failed at  28  side 2    Res =  0.5703E+00
 Side 1 forced transition at x/c =  1.0000   77
 Side 2  free  transition at x/c =  0.0177   14

   4   rms: 0.6367E+00   max: -.5181E+00   D at   86  2   RLX: 0.237
       a = -4.000      CL = -1.0587
      Cm =  0.1524     CD =  0.01270   =>   CDf =  0.00718    CDp =  0.00551

 MRCHDU: Convergence failed at  38  side 2    Res =  0.1564E+01
 MRCHDU: Convergence failed at  39  side 2    Res =  0.1404E+01
 MRCHDU: Convergence failed at  40  side 2    Res =  0.1217E+01
 MRCHDU: Convergence failed at  41  side 2    Res =  0.1219E+01
 Side 1 forced transition at x/c =  1.0000   77
 Side 2  free  transition at x/c =  0.0176   14

   5   rms: 0.5494E+00   max: -.8349E+00   C at   87  2   RLX: 0.354
       a = -4.000      CL = -0.8798
      Cm =  0.1008     CD =  0.01308   =>   CDf =  0.00742    CDp =  0.00566

 MRCHDU: Convergence failed at  52  side 2    Res =  0.3953E+00
 MRCHDU: Convergence failed at  59  side 2    Res =  0.2034E+00
 Side 1 forced transition at x/c =  1.0000   77
 Side 2  free  transition at x/c =  0.0176   14

   6   rms: 0.1253E+01   max: 0.1540E+02   C at   77  1   RLX: 0.097
       a = -4.000      CL = -0.9410
      Cm =  0.1171     CD =  0.01477   =>   CDf =  0.00784    CDp =  0.00694

 MRCHDU: Convergence failed at  53  side 2    Res =  0.5849E+00
 MRCHDU: Convergence failed at  54  side 2    Res =  0.4837E+00
 MRCHDU: Convergence failed at  55  side 2    Res =  0.1197E+01
 MRCHDU: Convergence failed at  56  side 2    Res =  0.5216E+00
 Side 1 forced transition at x/c =  1.0000   77
 Side 2  free  transition at x/c =  0.0178   14

   7   rms: 0.3744E+00   max: -.3678E+00   D at   86  2   RLX: 0.595
       a = -4.000      CL = -0.6362
      Cm =  0.0517     CD =  0.01517   =>   CDf =  0.00774    CDp =  0.00743

 Side 1 forced transition at x/c =  1.0000   77
 Side 2  free  transition at x/c =  0.0186   14

   8   rms: 0.2220E+00   max: -.2521E+01   C at   77  1   RLX: 0.198
       a = -4.000      CL = -0.5797
      Cm =  0.0390     CD =  0.01487   =>   CDf =  0.00654    CDp =  0.00833

 Side 1 forced transition at x/c =  1.0000   77
 Side 2  free  transition at x/c =  0.0184   14

   9   rms: 0.1983E+00   max: -.1316E+01   C at   77  1   RLX: 0.380
       a = -4.000      CL = -0.5003
      Cm =  0.0212     CD =  0.01571   =>   CDf =  0.00630    CDp =  0.00941

 Side 1 forced transition at x/c =  1.0000   77
 Side 2  free  transition at x/c =  0.0188   14

  10   rms: 0.1451E+00   max: -.6569E+00   D at   63  2   RLX: 0.761
       a = -4.000      CL = -0.4156
      Cm =  0.0015     CD =  0.01740   =>   CDf =  0.00583    CDp =  0.01157

 Side 1 forced transition at x/c =  1.0000   77
 Side 2  free  transition at x/c =  0.0199   14

  11   rms: 0.5724E-01   max: -.4312E+00   D at   63  2
       a = -4.000      CL = -0.3967
      Cm = -0.0036     CD =  0.01850   =>   CDf =  0.00525    CDp =  0.01325

 Side 1 forced transition at x/c =  1.0000   77
 Side 2  free  transition at x/c =  0.0208   14

  12   rms: 0.7594E-02   max: -.1092E+00   D at   63  2
       a = -4.000      CL = -0.3971
      Cm = -0.0035     CD =  0.01878   =>   CDf =  0.00501    CDp =  0.01378

 Side 1 forced transition at x/c =  1.0000   77
 Side 2  free  transition at x/c =  0.0210   14

  13   rms: 0.2867E-02   max: -.1810E-01   T at   14  2
       a = -4.000      CL = -0.3971
      Cm = -0.0035     CD =  0.01886   =>   CDf =  0.00500    CDp =  0.01386

 Side 1 forced transition at x/c =  1.0000   77
 Side 2  free  transition at x/c =  0.0211   14

  14   rms: 0.9926E-04   max: -.1329E-02   T at   14  2
       a = -4.000      CL = -0.3971
      Cm = -0.0035     CD =  0.01886   =>   CDf =  0.00499    CDp =  0.01387
 plradd ia,ip,cpol            1           0  1.06527621E-03

 Point added to stored polar  1
 Point written to save file  oa206_Re600k.base.pol                           
 Dump file unspecified or not available
 Calculating wake trajectory ...
 Calculating source influence matrix ...

 Solving BL system ...

 Side 1 forced transition at x/c =  1.0000   77
 Side 2  free  transition at x/c =  0.0211   14

   1   rms: 0.8984E+00   max: 0.5896E+01   T at   14  2   RLX: 0.194
       a = -3.500      CL = -0.3873
      Cm = -0.0036     CD =  0.01389   =>   CDf =  0.00499    CDp =  0.00890

 Side 1 forced transition at x/c =  1.0000   77
 Side 2  free  transition at x/c =  0.0187   14

   2   rms: 0.4337E+00   max: -.1526E+01   D at   20  2   RLX: 0.328
       a = -3.500      CL = -0.3730
      Cm = -0.0036     CD =  0.01416   =>   CDf =  0.00505    CDp =  0.00911

 Side 1 forced transition at x/c =  1.0000   77
 Side 2  free  transition at x/c =  0.0188   14

   3   rms: 0.1300E+00   max: -.5742E+00   D at   19  2   RLX: 0.871
       a = -3.500      CL = -0.3428
      Cm = -0.0031     CD =  0.01217   =>   CDf =  0.00550    CDp =  0.00667

 Side 1 forced transition at x/c =  1.0000   77
 Side 2  free  transition at x/c =  0.0196   14

   4   rms: 0.5792E-01   max: 0.3915E+00   D at   15  2
       a = -3.500      CL = -0.3380
      Cm = -0.0034     CD =  0.01357   =>   CDf =  0.00573    CDp =  0.00784

 Side 1 forced transition at x/c =  1.0000   78
 Side 2  free  transition at x/c =  0.0197   13

   5   rms: 0.1468E-01   max: 0.7727E-01   D at   16  2
       a = -3.500      CL = -0.3383
      Cm = -0.0034     CD =  0.01342   =>   CDf =  0.00570    CDp =  0.00772

 Side 1 forced transition at x/c =  1.0000   78
 Side 2  free  transition at x/c =  0.0197   13

   6   rms: 0.8953E-03   max: 0.9267E-02   D at    4  1
       a = -3.500      CL = -0.3383
      Cm = -0.0034     CD =  0.01343   =>   CDf =  0.00567    CDp =  0.00776

 Side 1 forced transition at x/c =  1.0000   78
 Side 2  free  transition at x/c =  0.0197   13

   7   rms: 0.9551E-05   max: -.1186E-03   D at    3  1
       a = -3.500      CL = -0.3383
      Cm = -0.0034     CD =  0.01343   =>   CDf =  0.00567    CDp =  0.00776
 plradd ia,ip,cpol            2           0  2.35231151E-03

 Point added to stored polar  1
 Point written to save file  oa206_Re600k.base.pol                           
 Dump file unspecified or not available
 Calculating wake trajectory ...
 Calculating source influence matrix ...

 Solving BL system ...

 Side 1 forced transition at x/c =  1.0000   78
 Side 2  free  transition at x/c =  0.0197   13

   1   rms: 0.2322E+00   max: 0.2579E+01   D at    3  1   RLX: 0.213
       a = -3.000      CL = -0.3258
      Cm = -0.0035     CD =  0.01288   =>   CDf =  0.00567    CDp =  0.00721

 Side 1 forced transition at x/c =  1.0000   78
 Side 2  free  transition at x/c =  0.0200   13

   2   rms: 0.1111E+00   max: -.3324E+00   D at   17  2
       a = -3.000      CL = -0.2798
      Cm = -0.0038     CD =  0.01105   =>   CDf =  0.00573    CDp =  0.00532

 Side 1 forced transition at x/c =  1.0000   78
 Side 2  free  transition at x/c =  0.0217   13

   3   rms: 0.4274E-01   max: 0.2722E+00   D at   13  2
       a = -3.000      CL = -0.2795
      Cm = -0.0040     CD =  0.01168   =>   CDf =  0.00588    CDp =  0.00580

 Side 1 forced transition at x/c =  1.0000   78
 Side 2  free  transition at x/c =  0.0216   13

   4   rms: 0.4504E-02   max: 0.2355E-01   D at   15  2
       a = -3.000      CL = -0.2796
      Cm = -0.0040     CD =  0.01162   =>   CDf =  0.00585    CDp =  0.00577

 Side 1 forced transition at x/c =  1.0000   78
 Side 2  free  transition at x/c =  0.0216   13

   5   rms: 0.9596E-05   max: 0.9649E-04   D at   14  2
       a = -3.000      CL = -0.2796
      Cm = -0.0040     CD =  0.01162   =>   CDf =  0.00585    CDp =  0.00577
 plradd ia,ip,cpol            3           0  2.35231151E-03

 Point added to stored polar  1
 Point written to save file  oa206_Re600k.base.pol                           
 Dump file unspecified or not available
 Calculating wake trajectory ...
 Calculating source influence matrix ...

 Solving BL system ...

 Side 1 forced transition at x/c =  1.0000   78
 Side 2  free  transition at x/c =  0.0216   13

   1   rms: 0.9767E-01   max: -.6901E+00   T at   13  2   RLX: 0.725
       a = -2.500      CL = -0.2368
      Cm = -0.0045     CD =  0.01107   =>   CDf =  0.00585    CDp =  0.00522

 Side 1 forced transition at x/c =  1.0000   78
 Side 2  free  transition at x/c =  0.0225   13

   2   rms: 0.6619E-01   max: 0.3562E+00   D at   15  2
       a = -2.500      CL = -0.2210
      Cm = -0.0046     CD =  0.01041   =>   CDf =  0.00597    CDp =  0.00444

 Side 1  free  transition at x/c =  0.9986   78
 Side 2  free  transition at x/c =  0.0236   14

   3   rms: 0.5489E-01   max: 0.4343E+00   D at   14  2
       a = -2.500      CL = -0.2220
      Cm = -0.0045     CD =  0.00948   =>   CDf =  0.00604    CDp =  0.00344

 Side 1 forced transition at x/c =  1.0000   78
 Side 2  free  transition at x/c =  0.0244   14

   4   rms: 0.1072E-01   max: 0.9776E-01   D at   14  2
       a = -2.500      CL = -0.2219
      Cm = -0.0046     CD =  0.00956   =>   CDf =  0.00598    CDp =  0.00358

 Side 1 forced transition at x/c =  1.0000   78
 Side 2  free  transition at x/c =  0.0243   14

   5   rms: 0.1243E-03   max: 0.8580E-03   D at   15  2
       a = -2.500      CL = -0.2219
      Cm = -0.0046     CD =  0.00956   =>   CDf =  0.00597    CDp =  0.00359

 Side 1 forced transition at x/c =  1.0000   78
 Side 2  free  transition at x/c =  0.0243   14

   6   rms: 0.1468E-05   max: -.7254E-05   D at    7  2
       a = -2.500      CL = -0.2219
      Cm = -0.0046     CD =  0.00956   =>   CDf =  0.00597    CDp =  0.00359
 plradd ia,ip,cpol            4           0  2.35231151E-03

 Point added to stored polar  1
 Point written to save file  oa206_Re600k.base.pol                           
 Dump file unspecified or not available
 Calculating wake trajectory ...
 Calculating source influence matrix ...

 Solving BL system ...

 Side 1 forced transition at x/c =  1.0000   78
 Side 2  free  transition at x/c =  0.0243   14

   1   rms: 0.1798E+00   max: -.6462E+00   T at   14  2   RLX: 0.774
       a = -2.000      CL = -0.1775
      Cm = -0.0052     CD =  0.00808   =>   CDf =  0.00599    CDp =  0.00210

 Side 1  free  transition at x/c =  0.9669   76
 Side 2  free  transition at x/c =  0.0297   13

   2   rms: 0.4635E-01   max: -.4877E+00   D at   77  1
       a = -2.000      CL = -0.1614
      Cm = -0.0055     CD =  0.00883   =>   CDf =  0.00603    CDp =  0.00280

 Side 1  free  transition at x/c =  0.9739   77
 Side 2  free  transition at x/c =  0.0294   13

   3   rms: 0.1163E-01   max: -.1686E+00   C at   77  1
       a = -2.000      CL = -0.1583
      Cm = -0.0062     CD =  0.00870   =>   CDf =  0.00603    CDp =  0.00267

 Side 1  free  transition at x/c =  0.9756   77
 Side 2  free  transition at x/c =  0.0296   13

   4   rms: 0.2204E-02   max: 0.3598E-01   C at   77  1
       a = -2.000      CL = -0.1585
      Cm = -0.0062     CD =  0.00871   =>   CDf =  0.00602    CDp =  0.00269

 Side 1  free  transition at x/c =  0.9750   77
 Side 2  free  transition at x/c =  0.0295   13

   5   rms: 0.3547E-04   max: -.6547E-03   D at   78  1
       a = -2.000      CL = -0.1585
      Cm = -0.0062     CD =  0.00871   =>   CDf =  0.00602    CDp =  0.00269
 plradd ia,ip,cpol            5           0  4.22968669E-03

 Point added to stored polar  1
 Point written to save file  oa206_Re600k.base.pol                           
 Dump file unspecified or not available
 Calculating wake trajectory ...
 Calculating source influence matrix ...

 Solving BL system ...

 Side 1  free  transition at x/c =  0.9750   77
 Side 2  free  transition at x/c =  0.0295   13

   1   rms: 0.1134E+00   max: 0.7517E+00   C at   77  1   RLX: 0.724
       a = -1.500      CL = -0.1196
      Cm = -0.0056     CD =  0.00852   =>   CDf =  0.00602    CDp =  0.00250

 Side 1  free  transition at x/c =  0.9581   75
 Side 2  free  transition at x/c =  0.0349   14

   2   rms: 0.4131E-01   max: -.3303E+00   D at   76  1
       a = -1.500      CL = -0.1125
      Cm = -0.0035     CD =  0.00815   =>   CDf =  0.00608    CDp =  0.00207

 Side 1  free  transition at x/c =  0.9499   75
 Side 2  free  transition at x/c =  0.0398   14

   3   rms: 0.1389E-01   max: 0.2238E+00   D at   14  2
       a = -1.500      CL = -0.1121
      Cm = -0.0036     CD =  0.00825   =>   CDf =  0.00611    CDp =  0.00215

 Side 1  free  transition at x/c =  0.9500   75
 Side 2  free  transition at x/c =  0.0390   14

   4   rms: 0.1017E-02   max: 0.1140E-01   D at   14  2
       a = -1.500      CL = -0.1121
      Cm = -0.0036     CD =  0.00826   =>   CDf =  0.00609    CDp =  0.00217

 Side 1  free  transition at x/c =  0.9500   75
 Side 2  free  transition at x/c =  0.0389   14

   5   rms: 0.2534E-05   max: 0.2604E-04   T at   14  2
       a = -1.500      CL = -0.1121
      Cm = -0.0036     CD =  0.00826   =>   CDf =  0.00609    CDp =  0.00217
 plradd ia,ip,cpol            6           0  4.22968669E-03

 Point added to stored polar  1
 Point written to save file  oa206_Re600k.base.pol                           
 Dump file unspecified or not available
 Calculating wake trajectory ...
 Calculating source influence matrix ...

 Solving BL system ...

 Side 1  free  transition at x/c =  0.9500   75
 Side 2  free  transition at x/c =  0.0389   14

   1   rms: 0.1167E+00   max: -.7915E+00   T at   14  2   RLX: 0.632
       a = -1.000      CL = -0.0846
      Cm = -0.0016     CD =  0.00806   =>   CDf =  0.00610    CDp =  0.00195

 Side 1  free  transition at x/c =  0.9387   75
 Side 2  free  transition at x/c =  0.0510   14

   2   rms: 0.7799E-01   max: 0.5775E+00   D at   14  2   RLX: 0.916
       a = -1.000      CL = -0.0647
      Cm = -0.0019     CD =  0.00780   =>   CDf =  0.00611    CDp =  0.00170

 Side 1  free  transition at x/c =  0.9311   74
 Side 2  free  transition at x/c =  0.0766   16

   3   rms: 0.7940E-01   max: -.1255E+01   C at   16  2   RLX: 0.398
       a = -1.000      CL = -0.0639
      Cm = -0.0016     CD =  0.00779   =>   CDf =  0.00604    CDp =  0.00175

 Side 1  free  transition at x/c =  0.9313   74
 Side 2  free  transition at x/c =  0.0962   17

   4   rms: 0.1604E+00   max: -.3864E+01   C at   17  2   RLX: 0.129
       a = -1.000      CL = -0.0636
      Cm = -0.0016     CD =  0.00774   =>   CDf =  0.00595    CDp =  0.00179

 Side 1  free  transition at x/c =  0.9314   74
 Side 2  free  transition at x/c =  0.0996   17

   5   rms: 0.9813E-01   max: -.2388E+01   C at   17  2   RLX: 0.209
       a = -1.000      CL = -0.0631
      Cm = -0.0016     CD =  0.00773   =>   CDf =  0.00594    CDp =  0.00179

 Side 1  free  transition at x/c =  0.9314   74
 Side 2  free  transition at x/c =  0.1070   18

   6   rms: 0.1527E+00   max: -.3595E+01   C at   18  2   RLX: 0.139
       a = -1.000      CL = -0.0629
      Cm = -0.0016     CD =  0.00768   =>   CDf =  0.00592    CDp =  0.00176

 Side 1  free  transition at x/c =  0.9315   74
 Side 2  free  transition at x/c =  0.1136   18

   7   rms: 0.2331E+00   max: -.5358E+01   C at   18  2   RLX: 0.093
       a = -1.000      CL = -0.0629
      Cm = -0.0017     CD =  0.00765   =>   CDf =  0.00588    CDp =  0.00177

 Side 1  free  transition at x/c =  0.9315   74
 Side 2  free  transition at x/c =  0.1196   19

   8   rms: 0.2879E+00   max: -.6783E+01   C at   19  2   RLX: 0.074
       a = -1.000      CL = -0.0626
      Cm = -0.0017     CD =  0.00762   =>   CDf =  0.00586    CDp =  0.00176

 Side 1  free  transition at x/c =  0.9315   74
 Side 2  free  transition at x/c =  0.1249   19

   9   rms: 0.3109E+00   max: -.7184E+01   C at   19  2   RLX: 0.070
       a = -1.000      CL = -0.0625
      Cm = -0.0017     CD =  0.00760   =>   CDf =  0.00584    CDp =  0.00176

 Side 1  free  transition at x/c =  0.9315   74
 Side 2  free  transition at x/c =  0.1405   20

  10   rms: 0.8472E+00   max: -.1906E+02   C at   20  2   RLX: 0.026
       a = -1.000      CL = -0.0626
      Cm = -0.0017     CD =  0.00754   =>   CDf =  0.00579    CDp =  0.00176

 Side 1  free  transition at x/c =  0.9315   74
 Side 2  free  transition at x/c =  0.1497   21

  11   rms: 0.7803E+00   max: -.1796E+02   C at   21  2   RLX: 0.028
       a = -1.000      CL = -0.0626
      Cm = -0.0017     CD =  0.00750   =>   CDf =  0.00576    CDp =  0.00175

 Side 1  free  transition at x/c =  0.9315   74
 Side 2  free  transition at x/c =  0.1619   22

  12   rms: 0.8828E+00   max: -.2027E+02   C at   22  2   RLX: 0.025
       a = -1.000      CL = -0.0627
      Cm = -0.0018     CD =  0.00746   =>   CDf =  0.00572    CDp =  0.00174

 Side 1  free  transition at x/c =  0.9316   74
 Side 2  free  transition at x/c =  0.1675   22

  13   rms: 0.6409E+00   max: -.1443E+02   C at   22  2   RLX: 0.035
       a = -1.000      CL = -0.0625
      Cm = -0.0018     CD =  0.00744   =>   CDf =  0.00570    CDp =  0.00174

 Side 1  free  transition at x/c =  0.9316   74
 Side 2  free  transition at x/c =  0.1678   22

  14   rms: 0.3327E+00   max: -.7488E+01   C at   22  2   RLX: 0.067
       a = -1.000      CL = -0.0624
      Cm = -0.0018     CD =  0.00744   =>   CDf =  0.00570    CDp =  0.00174

 Side 1  free  transition at x/c =  0.9316   74
 Side 2  free  transition at x/c =  0.1704   22

  15   rms: 0.1663E+00   max: -.3686E+01   C at   22  2   RLX: 0.136
       a = -1.000      CL = -0.0624
      Cm = -0.0019     CD =  0.00744   =>   CDf =  0.00569    CDp =  0.00174

 Side 1  free  transition at x/c =  0.9316   74
 Side 2  free  transition at x/c =  0.1819   23

  16   rms: 0.1352E+00   max: -.2996E+01   C at   23  2   RLX: 0.167
       a = -1.000      CL = -0.0627
      Cm = -0.0019     CD =  0.00739   =>   CDf =  0.00565    CDp =  0.00173

 Side 1  free  transition at x/c =  0.9316   74
 Side 2  free  transition at x/c =  0.1987   24

  17   rms: 0.1853E+00   max: -.3975E+01   C at   24  2   RLX: 0.126
       a = -1.000      CL = -0.0629
      Cm = -0.0020     CD =  0.00733   =>   CDf =  0.00560    CDp =  0.00173

 Side 1  free  transition at x/c =  0.9317   74
 Side 2  free  transition at x/c =  0.2004   25

  18   rms: 0.7719E-01   max: -.1718E+01   C at   25  2   RLX: 0.291
       a = -1.000      CL = -0.0629
      Cm = -0.0020     CD =  0.00730   =>   CDf =  0.00559    CDp =  0.00171

 Side 1  free  transition at x/c =  0.9317   74
 Side 2  free  transition at x/c =  0.2030   25

  19   rms: 0.6072E-01   max: -.1361E+01   C at   25  2   RLX: 0.367
       a = -1.000      CL = -0.0629
      Cm = -0.0021     CD =  0.00729   =>   CDf =  0.00559    CDp =  0.00171

 Side 1  free  transition at x/c =  0.9317   74
 Side 2  free  transition at x/c =  0.2213   26

  20   rms: 0.5089E-01   max: -.1118E+01   C at   26  2   RLX: 0.447
       a = -1.000      CL = -0.0632
      Cm = -0.0021     CD =  0.00723   =>   CDf =  0.00552    CDp =  0.00171

 Side 1  free  transition at x/c =  0.9317   74
 Side 2  free  transition at x/c =  0.2248   26

  21   rms: 0.2959E-01   max: -.6406E+00   C at   26  2   RLX: 0.780
       a = -1.000      CL = -0.0633
      Cm = -0.0022     CD =  0.00722   =>   CDf =  0.00551    CDp =  0.00171

 Side 1  free  transition at x/c =  0.9318   74
 Side 2  free  transition at x/c =  0.2343   27

  22   rms: 0.2620E-02   max: -.5707E-01   C at   27  2
       a = -1.000      CL = -0.0633
      Cm = -0.0022     CD =  0.00722   =>   CDf =  0.00548    CDp =  0.00174

 Side 1  free  transition at x/c =  0.9318   74
 Side 2  free  transition at x/c =  0.2360   27

  23   rms: 0.1731E-03   max: 0.3777E-02   C at   27  2
       a = -1.000      CL = -0.0633
      Cm = -0.0022     CD =  0.00722   =>   CDf =  0.00548    CDp =  0.00174

 Side 1  free  transition at x/c =  0.9318   74
 Side 2  free  transition at x/c =  0.2359   27

  24   rms: 0.3029E-05   max: -.5989E-04   C at   27  2
       a = -1.000      CL = -0.0633
      Cm = -0.0022     CD =  0.00722   =>   CDf =  0.00548    CDp =  0.00174
 plradd ia,ip,cpol            7           0  4.22968669E-03

 Point added to stored polar  1
 Point written to save file  oa206_Re600k.base.pol                           
 Dump file unspecified or not available
 Calculating wake trajectory ...
 Calculating source influence matrix ...

 Solving BL system ...

 Side 1  free  transition at x/c =  0.9318   74
 Side 2  free  transition at x/c =  0.2359   27

   1   rms: 0.2999E+01   max: -.6527E+02   C at   27  2   RLX: 0.008
       a = -0.500      CL = -0.0629
      Cm = -0.0022     CD =  0.00718   =>   CDf =  0.00548    CDp =  0.00170

 Side 1  free  transition at x/c =  0.9316   74
 Side 2  free  transition at x/c =  0.2512   28

   2   rms: 0.3354E+01   max: -.7194E+02   C at   28  2   RLX: 0.007
       a = -0.500      CL = -0.0627
      Cm = -0.0022     CD =  0.00712   =>   CDf =  0.00543    CDp =  0.00169

 Side 1  free  transition at x/c =  0.9315   74
 Side 2  free  transition at x/c =  0.2560   29

   3   rms: 0.1993E+01   max: -.4321E+02   C at   29  2   RLX: 0.012
       a = -0.500      CL = -0.0619
      Cm = -0.0023     CD =  0.00709   =>   CDf =  0.00541    CDp =  0.00168

 Side 1  free  transition at x/c =  0.9313   74
 Side 2  free  transition at x/c =  0.2733   30

   4   rms: 0.2763E+01   max: -.5989E+02   C at   30  2   RLX: 0.008
       a = -0.500      CL = -0.0614
      Cm = -0.0023     CD =  0.00703   =>   CDf =  0.00535    CDp =  0.00168

 Side 1  free  transition at x/c =  0.9312   74
 Side 2  free  transition at x/c =  0.2827   30

   5   rms: 0.3130E+01   max: -.6482E+02   C at   30  2   RLX: 0.008
       a = -0.500      CL = -0.0609
      Cm = -0.0023     CD =  0.00700   =>   CDf =  0.00532    CDp =  0.00168

 Side 1  free  transition at x/c =  0.9310   74
 Side 2  free  transition at x/c =  0.2931   31

   6   rms: 0.2028E+01   max: -.4270E+02   C at   31  2   RLX: 0.012
       a = -0.500      CL = -0.0603
      Cm = -0.0024     CD =  0.00696   =>   CDf =  0.00528    CDp =  0.00167

 Side 1  free  transition at x/c =  0.9308   74
 Side 2  free  transition at x/c =  0.3092   32

   7   rms: 0.1709E+01   max: -.3535E+02   C at   32  2   RLX: 0.014
       a = -0.500      CL = -0.0597
      Cm = -0.0024     CD =  0.00690   =>   CDf =  0.00523    CDp =  0.00167

 Side 1  free  transition at x/c =  0.9306   74
 Side 2  free  transition at x/c =  0.3283   34

   8   rms: 0.2205E+01   max: -.4656E+02   C at   34  2   RLX: 0.011
       a = -0.500      CL = -0.0593
      Cm = -0.0024     CD =  0.00681   =>   CDf =  0.00517    CDp =  0.00164

 Side 1  free  transition at x/c =  0.9304   74
 Side 2  free  transition at x/c =  0.3399   34

   9   rms: 0.2194E+01   max: -.4453E+02   C at   34  2   RLX: 0.011
       a = -0.500      CL = -0.0586
      Cm = -0.0025     CD =  0.00678   =>   CDf =  0.00513    CDp =  0.00165

 Side 1  free  transition at x/c =  0.9302   74
 Side 2  free  transition at x/c =  0.3532   35

  10   rms: 0.2142E+01   max: -.4338E+02   C at   35  2   RLX: 0.012
       a = -0.500      CL = -0.0581
      Cm = -0.0025     CD =  0.00673   =>   CDf =  0.00509    CDp =  0.00164

 Side 1  free  transition at x/c =  0.9300   74
 Side 2  free  transition at x/c =  0.3674   36

  11   rms: 0.2088E+01   max: -.4181E+02   C at   36  2   RLX: 0.012
       a = -0.500      CL = -0.0576
      Cm = -0.0025     CD =  0.00667   =>   CDf =  0.00504    CDp =  0.00164

 Side 1  free  transition at x/c =  0.9298   74
 Side 2  free  transition at x/c =  0.3838   38

  12   rms: 0.2200E+01   max: -.4552E+02   C at   38  2   RLX: 0.011
       a = -0.500      CL = -0.0572
      Cm = -0.0025     CD =  0.00659   =>   CDf =  0.00498    CDp =  0.00161

 Side 1  free  transition at x/c =  0.9297   74
 Side 2  free  transition at x/c =  0.3969   38

  13   rms: 0.3000E+01   max: -.5867E+02   C at   38  2   RLX: 0.009
       a = -0.500      CL = -0.0566
      Cm = -0.0026     CD =  0.00655   =>   CDf =  0.00493    CDp =  0.00162

 Side 1  free  transition at x/c =  0.9295   74
 Side 2  free  transition at x/c =  0.4069   39

  14   rms: 0.2401E+01   max: -.4796E+02   C at   39  2   RLX: 0.010
       a = -0.500      CL = -0.0561
      Cm = -0.0026     CD =  0.00651   =>   CDf =  0.00490    CDp =  0.00161

 Side 1  free  transition at x/c =  0.9294   74
 Side 2  free  transition at x/c =  0.4323   41

  15   rms: 0.4215E+01   max: -.8424E+02   C at   41  2   RLX: 0.006
       a = -0.500      CL = -0.0561
      Cm = -0.0026     CD =  0.00640   =>   CDf =  0.00481    CDp =  0.00160

 Side 1  free  transition at x/c =  0.9293   74
 Side 2  free  transition at x/c =  0.4390   41

  16   rms: 0.3448E+01   max: -.6627E+02   C at   41  2   RLX: 0.008
       a = -0.500      CL = -0.0556
      Cm = -0.0027     CD =  0.00638   =>   CDf =  0.00478    CDp =  0.00160

 Side 1  free  transition at x/c =  0.9292   74
 Side 2  free  transition at x/c =  0.4487   42

  17   rms: 0.3505E+01   max: -.6893E+02   C at   42  2   RLX: 0.007
       a = -0.500      CL = -0.0552
      Cm = -0.0027     CD =  0.00634   =>   CDf =  0.00475    CDp =  0.00159

 Side 1  free  transition at x/c =  0.9291   74
 Side 2  free  transition at x/c =  0.4526   42

  18   rms: 0.2486E+01   max: -.4786E+02   C at   42  2   RLX: 0.010
       a = -0.500      CL = -0.0545
      Cm = -0.0028     CD =  0.00633   =>   CDf =  0.00474    CDp =  0.00159

 Side 1  free  transition at x/c =  0.9289   74
 Side 2  free  transition at x/c =  0.4749   44

  19   rms: 0.4334E+01   max: -.8500E+02   C at   44  2   RLX: 0.006
       a = -0.500      CL = -0.0545
      Cm = -0.0028     CD =  0.00624   =>   CDf =  0.00465    CDp =  0.00158

 Side 1  free  transition at x/c =  0.9288   74
 Side 2  free  transition at x/c =  0.4866   45

  20   rms: 0.4354E+01   max: -.8591E+02   C at   45  2   RLX: 0.006
       a = -0.500      CL = -0.0542
      Cm = -0.0028     CD =  0.00619   =>   CDf =  0.00461    CDp =  0.00157

 Side 1  free  transition at x/c =  0.9288   74
 Side 2  free  transition at x/c =  0.4937   45

  21   rms: 0.4111E+01   max: -.7832E+02   C at   45  2   RLX: 0.006
       a = -0.500      CL = -0.0537
      Cm = -0.0029     CD =  0.00617   =>   CDf =  0.00459    CDp =  0.00158

 Side 1  free  transition at x/c =  0.9287   74
 Side 2  free  transition at x/c =  0.5072   46

  22   rms: 0.4845E+01   max: -.9288E+02   C at   46  2   RLX: 0.005
       a = -0.500      CL = -0.0534
      Cm = -0.0029     CD =  0.00611   =>   CDf =  0.00454    CDp =  0.00157

 Side 1  free  transition at x/c =  0.9286   74
 Side 2  free  transition at x/c =  0.5121   47

  23   rms: 0.2434E+01   max: -.4860E+02   C at   47  2   RLX: 0.010
       a = -0.500      CL = -0.0528
      Cm = -0.0030     CD =  0.00608   =>   CDf =  0.00452    CDp =  0.00156

 Side 1  free  transition at x/c =  0.9285   74
 Side 2  free  transition at x/c =  0.5105   47

  24   rms: 0.1393E+01   max: -.2791E+02   C at   47  2   RLX: 0.018
       a = -0.500      CL = -0.0517
      Cm = -0.0032     CD =  0.00609   =>   CDf =  0.00454    CDp =  0.00155

 Side 1  free  transition at x/c =  0.9282   74
 Side 2  free  transition at x/c =  0.5374   48

  25   rms: 0.4679E+01   max: -.8674E+02   C at   48  2   RLX: 0.006
       a = -0.500      CL = -0.0517
      Cm = -0.0031     CD =  0.00599   =>   CDf =  0.00443    CDp =  0.00156

 Side 1  free  transition at x/c =  0.9281   74
 Side 2  free  transition at x/c =  0.5418   49

  26   rms: 0.2825E+01   max: -.5524E+02   C at   49  2   RLX: 0.009
       a = -0.500      CL = -0.0511
      Cm = -0.0032     CD =  0.00597   =>   CDf =  0.00441    CDp =  0.00155

 Side 1  free  transition at x/c =  0.9280   74
 Side 2  free  transition at x/c =  0.5566   50

  27   rms: 0.3605E+01   max: -.7016E+02   C at   50  2   RLX: 0.007
       a = -0.500      CL = -0.0508
      Cm = -0.0033     CD =  0.00591   =>   CDf =  0.00436    CDp =  0.00155

 Side 1  free  transition at x/c =  0.9280   74
 Side 2  free  transition at x/c =  0.5665   50

  28   rms: 0.1790E+01   max: -.3328E+02   C at   50  2   RLX: 0.015
       a = -0.500      CL = -0.0500
      Cm = -0.0034     CD =  0.00588   =>   CDf =  0.00433    CDp =  0.00155

 Side 1  free  transition at x/c =  0.9277   74
 Side 2  free  transition at x/c =  0.5903   52

  29   rms: 0.9614E+00   max: -.1822E+02   C at   52  2   RLX: 0.027
       a = -0.500      CL = -0.0492
      Cm = -0.0032     CD =  0.00579   =>   CDf =  0.00424    CDp =  0.00155

 Side 1  free  transition at x/c =  0.9273   74
 Side 2  free  transition at x/c =  0.6114   54

  30   rms: 0.1127E+01   max: -.2196E+02   C at   54  2   RLX: 0.023
       a = -0.500      CL = -0.0485
      Cm = -0.0032     CD =  0.00570   =>   CDf =  0.00417    CDp =  0.00153

 Side 1  free  transition at x/c =  0.9270   74
 Side 2  free  transition at x/c =  0.6264   55

  31   rms: 0.1065E+01   max: -.2071E+02   C at   55  2   RLX: 0.024
       a = -0.500      CL = -0.0475
      Cm = -0.0032     CD =  0.00565   =>   CDf =  0.00412    CDp =  0.00153

 Side 1  free  transition at x/c =  0.9267   74
 Side 2  free  transition at x/c =  0.6424   56

  32   rms: 0.1017E+01   max: -.1964E+02   C at   56  2   RLX: 0.025
       a = -0.500      CL = -0.0466
      Cm = -0.0033     CD =  0.00559   =>   CDf =  0.00406    CDp =  0.00153

 Side 1  free  transition at x/c =  0.9264   74
 Side 2  free  transition at x/c =  0.6593   57

  33   rms: 0.9401E+00   max: -.1791E+02   C at   57  2   RLX: 0.028
       a = -0.500      CL = -0.0457
      Cm = -0.0032     CD =  0.00552   =>   CDf =  0.00399    CDp =  0.00153

 Side 1  free  transition at x/c =  0.9260   74
 Side 2  free  transition at x/c =  0.6772   58

  34   rms: 0.7669E+00   max: -.1439E+02   C at   58  2   RLX: 0.035
       a = -0.500      CL = -0.0446
      Cm = -0.0032     CD =  0.00546   =>   CDf =  0.00393    CDp =  0.00153

 Side 1  free  transition at x/c =  0.9256   74
 Side 2  free  transition at x/c =  0.6997   60

  35   rms: 0.7117E+00   max: -.1356E+02   C at   60  2   RLX: 0.037
       a = -0.500      CL = -0.0439
      Cm = -0.0030     CD =  0.00537   =>   CDf =  0.00384    CDp =  0.00153

 Side 1  free  transition at x/c =  0.9251   74
 Side 2  free  transition at x/c =  0.7180   61

  36   rms: 0.4987E+00   max: -.9369E+01   C at   61  2   RLX: 0.053
       a = -0.500      CL = -0.0424
      Cm = -0.0029     CD =  0.00531   =>   CDf =  0.00377    CDp =  0.00154

 Side 1  free  transition at x/c =  0.9245   74
 Side 2  free  transition at x/c =  0.7437   63

  37   rms: 0.4147E+00   max: -.7794E+01   C at   63  2   RLX: 0.064
       a = -0.500      CL = -0.0413
      Cm = -0.0026     CD =  0.00522   =>   CDf =  0.00367    CDp =  0.00155

 Side 1  free  transition at x/c =  0.9238   74
 Side 2  free  transition at x/c =  0.7648   65

  38   rms: 0.3388E+00   max: -.6379E+01   C at   65  2   RLX: 0.078
       a = -0.500      CL = -0.0398
      Cm = -0.0023     CD =  0.00515   =>   CDf =  0.00360    CDp =  0.00154

 Side 1  free  transition at x/c =  0.9230   74
 Side 2  free  transition at x/c =  0.7782   65

  39   rms: 0.2183E+00   max: -.3975E+01   C at   65  2   RLX: 0.126
       a = -0.500      CL = -0.0369
      Cm = -0.0022     CD =  0.00513   =>   CDf =  0.00356    CDp =  0.00157

 Side 1  free  transition at x/c =  0.9218   74
 Side 2  free  transition at x/c =  0.8041   67

  40   rms: 0.1458E+00   max: -.2573E+01   C at   67  2   RLX: 0.194
       a = -0.500      CL = -0.0343
      Cm = -0.0014     CD =  0.00507   =>   CDf =  0.00345    CDp =  0.00161

 Side 1  free  transition at x/c =  0.9203   74
 Side 2  free  transition at x/c =  0.8352   70

  41   rms: 0.8808E-01   max: -.1388E+01   C at   70  2   RLX: 0.360
       a = -0.500      CL = -0.0319
      Cm =  0.0001     CD =  0.00502   =>   CDf =  0.00335    CDp =  0.00168

 Side 1  free  transition at x/c =  0.9181   73
 Side 2  free  transition at x/c =  0.8485   70

  42   rms: 0.3394E-01   max: -.1281E+00   T at   71  2
       a = -0.500      CL = -0.0172
      Cm = -0.0005     CD =  0.00505   =>   CDf =  0.00335    CDp =  0.00170

 MRCHDU: Convergence failed at  75  side 2    Res =  0.3632E+01
 MRCHDU: Convergence failed at  76  side 2    Res =  0.1509E+01
 MRCHDU: Convergence failed at  77  side 2    Res =  0.1761E+01
 MRCHDU: Convergence failed at  78  side 2    Res =  0.2097E+01
 MRCHDU: Convergence failed at  79  side 2    Res =  0.2422E+01
 MRCHDU: Convergence failed at  80  side 2    Res =  0.2680E+01
 MRCHDU: Convergence failed at  81  side 2    Res =  0.2724E+01
 Side 1  free  transition at x/c =  0.9117   73
 Side 2  free  transition at x/c =  0.9149   75

  43   rms: 0.9946E+00   max: 0.1067E+02   C at   81  2   RLX: 0.141
       a = -0.500      CL = -0.0311
      Cm =  0.0087     CD =  0.00452   =>   CDf =  0.00311    CDp =  0.00142

 Side 1  free  transition at x/c =  0.9117   73
 Side 2  free  transition at x/c =  0.9054   75

  44   rms: 0.5336E-01   max: 0.3279E+00   D at   78  2
       a = -0.500      CL = -0.0205
      Cm =  0.0005     CD =  0.00506   =>   CDf =  0.00330    CDp =  0.00176

 Side 1  free  transition at x/c =  0.9125   73
 Side 2  free  transition at x/c =  0.8853   73

  45   rms: 0.1170E-01   max: -.2002E+00   D at   74  2
       a = -0.500      CL = -0.0216
      Cm =  0.0008     CD =  0.00501   =>   CDf =  0.00324    CDp =  0.00177

 Side 1  free  transition at x/c =  0.9124   73
 Side 2  free  transition at x/c =  0.8829   73

  46   rms: 0.6044E-03   max: 0.7602E-02   C at   73  2
       a = -0.500      CL = -0.0216
      Cm =  0.0007     CD =  0.00501   =>   CDf =  0.00325    CDp =  0.00176

 Side 1  free  transition at x/c =  0.9124   73
 Side 2  free  transition at x/c =  0.8827   73

  47   rms: 0.3103E-05   max: -.4207E-04   D at   76  2
       a = -0.500      CL = -0.0216
      Cm =  0.0007     CD =  0.00501   =>   CDf =  0.00325    CDp =  0.00176
 plradd ia,ip,cpol            8           0  4.22968669E-03

 Point added to stored polar  1
 Point written to save file  oa206_Re600k.base.pol                           
 Dump file unspecified or not available
 Calculating wake trajectory ...
 Calculating source influence matrix ...

 Solving BL system ...

 Side 1  free  transition at x/c =  0.9124   73
 Side 2  free  transition at x/c =  0.8827   73

   1   rms: 0.1516E+00   max: -.9813E+00   C at   73  2   RLX: 0.510
       a =  0.000      CL = -0.0030
      Cm =  0.0038     CD =  0.00499   =>   CDf =  0.00325    CDp =  0.00174

 Side 1  free  transition at x/c =  0.9000   72
 Side 2  free  transition at x/c =  0.9282   76

   2   rms: 0.7067E-01   max: 0.5781E+00   D at   77  2
       a =  0.000      CL =  0.0082
      Cm =  0.0083     CD =  0.00491   =>   CDf =  0.00323    CDp =  0.00168

 Side 1  free  transition at x/c =  0.8859   72
 Side 2  free  transition at x/c =  0.9488   77

   3   rms: 0.1912E-01   max: -.1932E+00   T at   77  2
       a =  0.000      CL =  0.0080
      Cm =  0.0083     CD =  0.00491   =>   CDf =  0.00324    CDp =  0.00167

 Side 1  free  transition at x/c =  0.8891   72
 Side 2  free  transition at x/c =  0.9557   77

   4   rms: 0.5096E-02   max: -.7024E-01   D at   77  2
       a =  0.000      CL =  0.0084
      Cm =  0.0082     CD =  0.00495   =>   CDf =  0.00320    CDp =  0.00174

 Side 1  free  transition at x/c =  0.8886   72
 Side 2  free  transition at x/c =  0.9562   77

   5   rms: 0.2266E-03   max: 0.2589E-02   D at   78  2
       a =  0.000      CL =  0.0083
      Cm =  0.0082     CD =  0.00494   =>   CDf =  0.00320    CDp =  0.00174

 Side 1  free  transition at x/c =  0.8886   72
 Side 2  free  transition at x/c =  0.9561   77

   6   rms: 0.1496E-05   max: 0.1973E-04   D at   84  2
       a =  0.000      CL =  0.0083
      Cm =  0.0082     CD =  0.00494   =>   CDf =  0.00320    CDp =  0.00174
 plradd ia,ip,cpol            9           0  6.79332158E-03

 Point added to stored polar  1
 Point written to save file  oa206_Re600k.base.pol                           
 Dump file unspecified or not available
 Calculating wake trajectory ...
 Calculating source influence matrix ...

 Solving BL system ...

 Side 1  free  transition at x/c =  0.8886   72
 Side 2  free  transition at x/c =  0.9561   77

   1   rms: 0.1087E+00   max: -.7267E+00   T at   77  2   RLX: 0.688
       a =  0.500      CL =  0.0324
      Cm =  0.0123     CD =  0.00477   =>   CDf =  0.00320    CDp =  0.00157

 Side 1  free  transition at x/c =  0.8631   70
 Side 2  free  transition at x/c =  0.9873   80

   2   rms: 0.9579E-01   max: -.8930E+00   C at   80  2   RLX: 0.560
       a =  0.500      CL =  0.0540
      Cm =  0.0100     CD =  0.00466   =>   CDf =  0.00328    CDp =  0.00138

 Side 1  free  transition at x/c =  0.8611   70
 Side 2  free  transition at x/c =  0.9962   81

   3   rms: 0.5723E-01   max: -.4005E+00   C at   81  2
       a =  0.500      CL =  0.0858
      Cm =  0.0048     CD =  0.00470   =>   CDf =  0.00327    CDp =  0.00143

 Side 1  free  transition at x/c =  0.8585   70
 Side 2  free  transition at x/c =  0.9975   81

   4   rms: 0.2005E-01   max: -.1496E+00   C at   81  2
       a =  0.500      CL =  0.0815
      Cm =  0.0057     CD =  0.00478   =>   CDf =  0.00328    CDp =  0.00150

 Side 1  free  transition at x/c =  0.8584   70
 Side 2 forced transition at x/c =  1.0000   81

   5   rms: 0.1089E-01   max: -.1183E+00   C at   81  2
       a =  0.500      CL =  0.0779
      Cm =  0.0065     CD =  0.00477   =>   CDf =  0.00328    CDp =  0.00149

 Side 1  free  transition at x/c =  0.8582   70
 Side 2 forced transition at x/c =  1.0000   81

   6   rms: 0.1464E-03   max: -.1787E-02   D at   84  2
       a =  0.500      CL =  0.0778
      Cm =  0.0065     CD =  0.00477   =>   CDf =  0.00328    CDp =  0.00149

 Side 1  free  transition at x/c =  0.8582   70
 Side 2 forced transition at x/c =  1.0000   81

   7   rms: 0.1670E-05   max: 0.2223E-04   D at   84  2
       a =  0.500      CL =  0.0778
      Cm =  0.0065     CD =  0.00477   =>   CDf =  0.00328    CDp =  0.00149
 plradd ia,ip,cpol           10           0  7.85565302E-02

 Point added to stored polar  1
 Point written to save file  oa206_Re600k.base.pol                           
 Dump file unspecified or not available
 Calculating wake trajectory ...
 Calculating source influence matrix ...

 Solving BL system ...

 Side 1  free  transition at x/c =  0.8582   70
 Side 2 forced transition at x/c =  1.0000   81

   1   rms: 0.1085E+00   max: -.2704E+00   C at   81  2
       a =  1.000      CL =  0.1285
      Cm =  0.0076     CD =  0.00469   =>   CDf =  0.00333    CDp =  0.00136

 Side 1  free  transition at x/c =  0.8027   67
 Side 2 forced transition at x/c =  1.0000   80

   2   rms: 0.2211E-01   max: 0.2796E+00   D at   70  1
       a =  1.000      CL =  0.1270
      Cm =  0.0080     CD =  0.00474   =>   CDf =  0.00353    CDp =  0.00121

 Side 1  free  transition at x/c =  0.8152   68
 Side 2 forced transition at x/c =  1.0000   80

   3   rms: 0.7936E-02   max: 0.1306E+00   C at   68  1
       a =  1.000      CL =  0.1275
      Cm =  0.0079     CD =  0.00473   =>   CDf =  0.00343    CDp =  0.00130

 Side 1  free  transition at x/c =  0.8115   68
 Side 2 forced transition at x/c =  1.0000   80

   4   rms: 0.2898E-03   max: -.5347E-02   D at   70  1
       a =  1.000      CL =  0.1275
      Cm =  0.0079     CD =  0.00474   =>   CDf =  0.00346    CDp =  0.00128

 Side 1  free  transition at x/c =  0.8114   68
 Side 2 forced transition at x/c =  1.0000   80

   5   rms: 0.1589E-05   max: 0.1520E-04   C at   80  2
       a =  1.000      CL =  0.1275
      Cm =  0.0079     CD =  0.00474   =>   CDf =  0.00346    CDp =  0.00128
 plradd ia,ip,cpol           11           0  6.58318177E-02

 Point added to stored polar  1
 Point written to save file  oa206_Re600k.base.pol                           
 Dump file unspecified or not available
 Calculating wake trajectory ...
 Calculating source influence matrix ...

 Solving BL system ...

 Side 1  free  transition at x/c =  0.8114   68
 Side 2 forced transition at x/c =  1.0000   80

   1   rms: 0.1103E+00   max: 0.9981E+00   C at   68  1
       a =  1.500      CL =  0.1770
      Cm =  0.0094     CD =  0.00482   =>   CDf =  0.00346    CDp =  0.00136

 Side 1  free  transition at x/c =  0.7343   62
 Side 2 forced transition at x/c =  1.0000   80

   2   rms: 0.2555E-01   max: -.2437E+00   C at   62  1
       a =  1.500      CL =  0.1792
      Cm =  0.0088     CD =  0.00488   =>   CDf =  0.00379    CDp =  0.00109

 Side 1  free  transition at x/c =  0.7457   63
 Side 2 forced transition at x/c =  1.0000   80

   3   rms: 0.7163E-02   max: 0.1241E+00   C at   63  1
       a =  1.500      CL =  0.1795
      Cm =  0.0088     CD =  0.00488   =>   CDf =  0.00371    CDp =  0.00118

 Side 1  free  transition at x/c =  0.7419   63
 Side 2 forced transition at x/c =  1.0000   80

   4   rms: 0.1352E-03   max: -.1627E-02   D at   66  1
       a =  1.500      CL =  0.1795
      Cm =  0.0087     CD =  0.00489   =>   CDf =  0.00373    CDp =  0.00116

 Side 1  free  transition at x/c =  0.7419   63
 Side 2 forced transition at x/c =  1.0000   80

   5   rms: 0.6585E-06   max: 0.7211E-05   C at   63  1
       a =  1.500      CL =  0.1795
      Cm =  0.0087     CD =  0.00489   =>   CDf =  0.00373    CDp =  0.00116
 plradd ia,ip,cpol           12           0  5.35035729E-02

 Point added to stored polar  1
 Point written to save file  oa206_Re600k.base.pol                           
 Dump file unspecified or not available
 Calculating wake trajectory ...
 Calculating source influence matrix ...

 Solving BL system ...

 Side 1  free  transition at x/c =  0.7419   63
 Side 2 forced transition at x/c =  1.0000   80

   1   rms: 0.1362E+00   max: 0.1816E+01   C at   63  1   RLX: 0.775
       a =  2.000      CL =  0.2211
      Cm =  0.0091     CD =  0.00511   =>   CDf =  0.00374    CDp =  0.00137

 Side 1  free  transition at x/c =  0.6550   58
 Side 2 forced transition at x/c =  1.0000   79

   2   rms: 0.3029E-01   max: -.1841E+00   D at   58  1
       a =  2.000      CL =  0.2349
      Cm =  0.0087     CD =  0.00527   =>   CDf =  0.00407    CDp =  0.00120

 Side 1  free  transition at x/c =  0.6288   56
 Side 2 forced transition at x/c =  1.0000   79

   3   rms: 0.6098E-02   max: -.1141E+00   C at   56  1
       a =  2.000      CL =  0.2349
      Cm =  0.0087     CD =  0.00529   =>   CDf =  0.00415    CDp =  0.00114

 Side 1  free  transition at x/c =  0.6319   56
 Side 2 forced transition at x/c =  1.0000   79

   4   rms: 0.8814E-04   max: 0.1350E-02   C at   56  1
       a =  2.000      CL =  0.2349
      Cm =  0.0087     CD =  0.00529   =>   CDf =  0.00414    CDp =  0.00115
 plradd ia,ip,cpol           13           0  4.16912697E-02

 Point added to stored polar  1
 Point written to save file  oa206_Re600k.base.pol                           
 Dump file unspecified or not available
 Calculating wake trajectory ...
 Calculating source influence matrix ...

 Solving BL system ...

 Side 1  free  transition at x/c =  0.6319   56
 Side 2 forced transition at x/c =  1.0000   79

   1   rms: 0.2082E+00   max: 0.3561E+01   C at   56  1   RLX: 0.421
       a =  2.500      CL =  0.2589
      Cm =  0.0085     CD =  0.00553   =>   CDf =  0.00414    CDp =  0.00140

 Side 1  free  transition at x/c =  0.5591   51
 Side 2 forced transition at x/c =  1.0000   79

   2   rms: 0.1004E+00   max: 0.1627E+01   C at   51  1   RLX: 0.922
       a =  2.500      CL =  0.2898
      Cm =  0.0079     CD =  0.00593   =>   CDf =  0.00443    CDp =  0.00151

 Side 1  free  transition at x/c =  0.4640   44
 Side 2 forced transition at x/c =  1.0000   79

   3   rms: 0.1677E-01   max: -.1864E+00   C at   44  1
       a =  2.500      CL =  0.2925
      Cm =  0.0078     CD =  0.00605   =>   CDf =  0.00479    CDp =  0.00126

 Side 1  free  transition at x/c =  0.4665   44
 Side 2 forced transition at x/c =  1.0000   79

   4   rms: 0.1313E-02   max: 0.2512E-01   C at   44  1
       a =  2.500      CL =  0.2925
      Cm =  0.0078     CD =  0.00606   =>   CDf =  0.00477    CDp =  0.00129

 Side 1  free  transition at x/c =  0.4658   44
 Side 2 forced transition at x/c =  1.0000   79

   5   rms: 0.3818E-05   max: -.6312E-04   C at   44  1
       a =  2.500      CL =  0.2925
      Cm =  0.0078     CD =  0.00606   =>   CDf =  0.00477    CDp =  0.00129
 plradd ia,ip,cpol           14           0  6.03371114E-03

 Point added to stored polar  1
 Point written to save file  oa206_Re600k.base.pol                           
 Dump file unspecified or not available
 Calculating wake trajectory ...
 Calculating source influence matrix ...

 Solving BL system ...

 Side 1  free  transition at x/c =  0.4658   44
 Side 2 forced transition at x/c =  1.0000   79

   1   rms: 0.2622E+00   max: 0.4893E+01   C at   44  1   RLX: 0.307
       a =  3.000      CL =  0.3104
      Cm =  0.0074     CD =  0.00629   =>   CDf =  0.00477    CDp =  0.00152

 Side 1  free  transition at x/c =  0.4171   41
 Side 2 forced transition at x/c =  1.0000   79

   2   rms: 0.1141E+00   max: 0.1827E+01   C at   41  1   RLX: 0.821
       a =  3.000      CL =  0.3435
      Cm =  0.0068     CD =  0.00671   =>   CDf =  0.00494    CDp =  0.00177

 Side 1  free  transition at x/c =  0.3692   38
 Side 2 forced transition at x/c =  1.0000   78

   3   rms: 0.1776E-01   max: 0.1492E+00   D at   41  1
       a =  3.000      CL =  0.3509
      Cm =  0.0067     CD =  0.00669   =>   CDf =  0.00516    CDp =  0.00153

 Side 1  free  transition at x/c =  0.3647   38
 Side 2 forced transition at x/c =  1.0000   78

   4   rms: 0.7072E-03   max: 0.5638E-02   D at    7  1
       a =  3.000      CL =  0.3509
      Cm =  0.0067     CD =  0.00670   =>   CDf =  0.00515    CDp =  0.00155

 Side 1  free  transition at x/c =  0.3647   38
 Side 2 forced transition at x/c =  1.0000   78

   5   rms: 0.1514E-05   max: 0.2014E-04   C at   38  1
       a =  3.000      CL =  0.3509
      Cm =  0.0067     CD =  0.00670   =>   CDf =  0.00515    CDp =  0.00155
 plradd ia,ip,cpol           15           0  3.61911440E-03

 Point added to stored polar  1
 Point written to save file  oa206_Re600k.base.pol                           
 Dump file unspecified or not available
 Calculating wake trajectory ...
 Calculating source influence matrix ...

 Solving BL system ...

 Side 1  free  transition at x/c =  0.3647   38
 Side 2 forced transition at x/c =  1.0000   78

   1   rms: 0.1386E+00   max: 0.2039E+01   C at   38  1   RLX: 0.736
       a =  3.500      CL =  0.3939
      Cm =  0.0059     CD =  0.00706   =>   CDf =  0.00515    CDp =  0.00191

 Side 1  free  transition at x/c =  0.3080   34
 Side 2 forced transition at x/c =  1.0000   78

   2   rms: 0.3204E-01   max: -.2702E+00   D at   34  1
       a =  3.500      CL =  0.4093
      Cm =  0.0057     CD =  0.00719   =>   CDf =  0.00538    CDp =  0.00180

 Side 1  free  transition at x/c =  0.2851   33
 Side 2 forced transition at x/c =  1.0000   78

   3   rms: 0.9029E-02   max: -.1373E+00   C at   33  1
       a =  3.500      CL =  0.4092
      Cm =  0.0056     CD =  0.00725   =>   CDf =  0.00546    CDp =  0.00179

 Side 1  free  transition at x/c =  0.2887   33
 Side 2 forced transition at x/c =  1.0000   78

   4   rms: 0.4508E-03   max: 0.6645E-02   C at   33  1
       a =  3.500      CL =  0.4092
      Cm =  0.0056     CD =  0.00725   =>   CDf =  0.00543    CDp =  0.00183

 Side 1  free  transition at x/c =  0.2886   33
 Side 2 forced transition at x/c =  1.0000   78

   5   rms: 0.1956E-05   max: 0.2339E-04   C at   33  1
       a =  3.500      CL =  0.4092
      Cm =  0.0056     CD =  0.00725   =>   CDf =  0.00543    CDp =  0.00183
 plradd ia,ip,cpol           16           0  1.90762093E-03

 Point added to stored polar  1
 Point written to save file  oa206_Re600k.base.pol                           
 Dump file unspecified or not available
 Calculating wake trajectory ...
 Calculating source influence matrix ...

 Solving BL system ...

 Side 1  free  transition at x/c =  0.2886   33
 Side 2 forced transition at x/c =  1.0000   78

   1   rms: 0.1917E+00   max: 0.2863E+01   C at   33  1   RLX: 0.355
       a =  4.000      CL =  0.4298
      Cm =  0.0052     CD =  0.00754   =>   CDf =  0.00543    CDp =  0.00211

 Side 1  free  transition at x/c =  0.2556   30
 Side 2 forced transition at x/c =  1.0000   78

   2   rms: 0.7000E-01   max: 0.4497E+00   C at   30  1
       a =  4.000      CL =  0.4675
      Cm =  0.0047     CD =  0.00771   =>   CDf =  0.00549    CDp =  0.00222

 Side 1  free  transition at x/c =  0.1982   27
 Side 2 forced transition at x/c =  1.0000   77

   3   rms: 0.1697E-01   max: -.2498E+00   C at   27  1
       a =  4.000      CL =  0.4672
      Cm =  0.0046     CD =  0.00791   =>   CDf =  0.00578    CDp =  0.00213

 Side 1  free  transition at x/c =  0.2033   28
 Side 2 forced transition at x/c =  1.0000   77

   4   rms: 0.2287E-02   max: -.2747E-01   C at   28  1
       a =  4.000      CL =  0.4672
      Cm =  0.0046     CD =  0.00790   =>   CDf =  0.00574    CDp =  0.00216

 Side 1  free  transition at x/c =  0.2033   28
 Side 2 forced transition at x/c =  1.0000   77

   5   rms: 0.3956E-04   max: 0.7163E-03   C at   28  1
       a =  4.000      CL =  0.4672
      Cm =  0.0046     CD =  0.00790   =>   CDf =  0.00573    CDp =  0.00217
 plradd ia,ip,cpol           17           0  1.90762093E-03

 Point added to stored polar  1
 Point written to save file  oa206_Re600k.base.pol                           
 Dump file unspecified or not available
 Calculating wake trajectory ...
 Calculating source influence matrix ...

 Solving BL system ...

 Side 1  free  transition at x/c =  0.2033   28
 Side 2 forced transition at x/c =  1.0000   77

   1   rms: 0.1900E+00   max: 0.2873E+01   C at   28  1   RLX: 0.369
       a =  4.500      CL =  0.4885
      Cm =  0.0042     CD =  0.00825   =>   CDf =  0.00573    CDp =  0.00251

 Side 1  free  transition at x/c =  0.1721   25
 Side 2 forced transition at x/c =  1.0000   77

   2   rms: 0.6761E-01   max: -.3748E+00   D at   25  1
       a =  4.500      CL =  0.5252
      Cm =  0.0037     CD =  0.00846   =>   CDf =  0.00587    CDp =  0.00259

 Side 1  free  transition at x/c =  0.1254   22
 Side 2 forced transition at x/c =  1.0000   77

   3   rms: 0.1591E-01   max: -.2333E+00   C at   22  1
       a =  4.500      CL =  0.5249
      Cm =  0.0036     CD =  0.00864   =>   CDf =  0.00605    CDp =  0.00259

 Side 1  free  transition at x/c =  0.1300   22
 Side 2 forced transition at x/c =  1.0000   77

   4   rms: 0.1077E-02   max: -.1766E-01   D at   23  1
       a =  4.500      CL =  0.5249
      Cm =  0.0036     CD =  0.00865   =>   CDf =  0.00603    CDp =  0.00262

 Side 1  free  transition at x/c =  0.1295   22
 Side 2 forced transition at x/c =  1.0000   77

   5   rms: 0.4085E-05   max: -.7180E-04   D at   23  1
       a =  4.500      CL =  0.5249
      Cm =  0.0036     CD =  0.00865   =>   CDf =  0.00603    CDp =  0.00262
 plradd ia,ip,cpol           18           0  1.90762093E-03

 Point added to stored polar  1
 Point written to save file  oa206_Re600k.base.pol                           
 Dump file unspecified or not available
 Calculating wake trajectory ...
 Calculating source influence matrix ...

 Solving BL system ...

 Side 1  free  transition at x/c =  0.1295   22
 Side 2 forced transition at x/c =  1.0000   77

   1   rms: 0.1327E+00   max: 0.1856E+01   C at   22  1   RLX: 0.706
       a =  5.000      CL =  0.5656
      Cm =  0.0030     CD =  0.00907   =>   CDf =  0.00603    CDp =  0.00304

 Side 1  free  transition at x/c =  0.0832   19
 Side 2 forced transition at x/c =  1.0000   77

   2   rms: 0.6250E-01   max: -.8522E+00   D at   19  1   RLX: 0.587
       a =  5.000      CL =  0.5757
      Cm =  0.0029     CD =  0.00947   =>   CDf =  0.00610    CDp =  0.00337

 Side 1  free  transition at x/c =  0.0638   18
 Side 2 forced transition at x/c =  1.0000   76

   3   rms: 0.4853E-01   max: 0.7857E+00   C at   18  1
       a =  5.000      CL =  0.5818
      Cm =  0.0026     CD =  0.00971   =>   CDf =  0.00630    CDp =  0.00341

 Side 1  free  transition at x/c =  0.0409   16
 Side 2 forced transition at x/c =  1.0000   76

   4   rms: 0.1324E-01   max: -.1597E+00   D at   16  1
       a =  5.000      CL =  0.5817
      Cm =  0.0026     CD =  0.00986   =>   CDf =  0.00645    CDp =  0.00341

 Side 1  free  transition at x/c =  0.0373   16
 Side 2 forced transition at x/c =  1.0000   76

   5   rms: 0.1668E-02   max: -.2134E-01   D at   16  1
       a =  5.000      CL =  0.5817
      Cm =  0.0026     CD =  0.00989   =>   CDf =  0.00646    CDp =  0.00343

 Side 1  free  transition at x/c =  0.0369   16
 Side 2 forced transition at x/c =  1.0000   76

   6   rms: 0.1115E-04   max: -.2101E-03   D at   16  1
       a =  5.000      CL =  0.5817
      Cm =  0.0026     CD =  0.00989   =>   CDf =  0.00647    CDp =  0.00342
 plradd ia,ip,cpol           19           0  7.60662660E-04

 Point added to stored polar  1
 Point written to save file  oa206_Re600k.base.pol                           
 Dump file unspecified or not available
 Calculating wake trajectory ...
 Calculating source influence matrix ...

 Solving BL system ...

 Side 1  free  transition at x/c =  0.0369   16
 Side 2 forced transition at x/c =  1.0000   76

   1   rms: 0.2283E+00   max: 0.2340E+01   C at   16  1   RLX: 0.232
       a =  5.500      CL =  0.5948
      Cm =  0.0024     CD =  0.01030   =>   CDf =  0.00647    CDp =  0.00383

 Side 1  free  transition at x/c =  0.0295   15
 Side 2 forced transition at x/c =  1.0000   76

   2   rms: 0.9196E-01   max: -.8920E+00   C at   15  1   RLX: 0.561
       a =  5.500      CL =  0.6195
      Cm =  0.0022     CD =  0.01048   =>   CDf =  0.00645    CDp =  0.00403

 Side 1  free  transition at x/c =  0.0240   15
 Side 2 forced transition at x/c =  1.0000   76

   3   rms: 0.6118E-01   max: 0.3651E+00   T at   15  1
       a =  5.500      CL =  0.6385
      Cm =  0.0020     CD =  0.01137   =>   CDf =  0.00646    CDp =  0.00491

 MRCHDU: Convergence failed at  15  side 1    Res =  0.5872E+01
 MRCHDU: Convergence failed at  16  side 1    Res =  0.9917E+01
 MRCHDU: Convergence failed at  17  side 1    Res =  0.5345E+01
 MRCHDU: Convergence failed at  18  side 1    Res =  0.5384E+01
 MRCHDU: Convergence failed at  19  side 1    Res =  0.6365E+01
 MRCHDU: Convergence failed at  20  side 1    Res =  0.7876E+01
 MRCHDU: Convergence failed at  21  side 1    Res =  0.1032E+02
 MRCHDU: Convergence failed at  22  side 1    Res =  0.1453E+02
 MRCHDU: Convergence failed at  23  side 1    Res =  0.2392E+02
 MRCHDU: Convergence failed at  24  side 1    Res =  0.5277E+02
 MRCHDU: Convergence failed at  25  side 1    Res =  0.3556E+03
 MRCHDU: Convergence failed at  26  side 1    Res =  0.5118E+02
 MRCHDU: Convergence failed at  27  side 1    Res =  0.2736E+02
 MRCHDU: Convergence failed at  28  side 1    Res =  0.2073E+02
 MRCHDU: Convergence failed at  29  side 1    Res =  0.2329E+02
 MRCHDU: Convergence failed at  30  side 1    Res =  0.2552E+02
 MRCHDU: Convergence failed at  31  side 1    Res =  0.2787E+02
 MRCHDU: Convergence failed at  32  side 1    Res =  0.2767E+02
 MRCHDU: Convergence failed at  33  side 1    Res =  0.3486E+03
 MRCHDU: Convergence failed at  34  side 1    Res =  0.3683E+02
 MRCHDU: Convergence failed at  35  side 1    Res =  0.3917E+02
 MRCHDU: Convergence failed at  36  side 1    Res =  0.4236E+02
 MRCHDU: Convergence failed at  37  side 1    Res =  0.4799E+02
 MRCHDU: Convergence failed at  38  side 1    Res =  0.6202E+02
 MRCHDU: Convergence failed at  39  side 1    Res =  0.8138E+03
 MRCHDU: Convergence failed at  40  side 1    Res =  0.3029E+03
 MRCHDU: Convergence failed at  41  side 1    Res =  0.5345E+02
 MRCHDU: Convergence failed at  42  side 1    Res =  0.1069E+04
 MRCHDU: Convergence failed at  43  side 1    Res =  0.1912E+04
 MRCHDU: Convergence failed at  44  side 1    Res =  0.7725E+02
 MRCHDU: Convergence failed at  45  side 1    Res =  0.4163E+03
 MRCHDU: Convergence failed at  46  side 1    Res =  0.1368E+03
 MRCHDU: Convergence failed at  47  side 1    Res =  0.7981E+02
 MRCHDU: Convergence failed at  48  side 1    Res =  0.3559E+02
 MRCHDU: Convergence failed at  49  side 1    Res =  0.7951E+02
 MRCHDU: Convergence failed at  50  side 1    Res =  0.3084E+02
 MRCHDU: Convergence failed at  51  side 1    Res =  0.3008E+02
 MRCHDU: Convergence failed at  52  side 1    Res =  0.3060E+02
 MRCHDU: Convergence failed at  53  side 1    Res =  0.3102E+02
 MRCHDU: Convergence failed at  54  side 1    Res =  0.2831E+02
 MRCHDU: Convergence failed at  55  side 1    Res =  0.2932E+02
 MRCHDU: Convergence failed at  56  side 1    Res =  0.2970E+02
 MRCHDU: Convergence failed at  57  side 1    Res =  0.3078E+02
 MRCHDU: Convergence failed at  58  side 1    Res =  0.2653E+02
 MRCHDU: Convergence failed at  59  side 1    Res =  0.2756E+02
 MRCHDU: Convergence failed at  60  side 1    Res =  0.2859E+02
 MRCHDU: Convergence failed at  61  side 1    Res =  0.4632E+02
 MRCHDU: Convergence failed at  62  side 1    Res =  0.4885E+02
 MRCHDU: Convergence failed at  63  side 1    Res =  0.2739E+02
 MRCHDU: Convergence failed at  64  side 1    Res =  0.2892E+02
 MRCHDU: Convergence failed at  65  side 1    Res =  0.3098E+02
 MRCHDU: Convergence failed at  66  side 1    Res =  0.4052E+02
 MRCHDU: Convergence failed at  67  side 1    Res =  0.2743E+02
 MRCHDU: Convergence failed at  68  side 1    Res =  0.2891E+02
 MRCHDU: Convergence failed at  69  side 1    Res =  0.3280E+02
 MRCHDU: Convergence failed at  70  side 1    Res =  0.3478E+02
 MRCHDU: Convergence failed at  71  side 1    Res =  0.3721E+02
 MRCHDU: Convergence failed at  72  side 1    Res =  0.4336E+02
 MRCHDU: Convergence failed at  73  side 1    Res =  0.5133E+02
 MRCHDU: Convergence failed at  74  side 1    Res =  0.1288E+03
 MRCHDU: Convergence failed at  75  side 1    Res =  0.9819E+02
 MRCHDU: Convergence failed at  76  side 1    Res =  0.6346E+02
 MRCHDU: Convergence failed at  77  side 1    Res =  0.7832E+02
 MRCHDU: Convergence failed at  78  side 1    Res =  0.8898E+02
 MRCHDU: Convergence failed at  79  side 1    Res =  0.5332E+03
 MRCHDU: Convergence failed at  80  side 1    Res =  0.6285E+04
 MRCHDU: Convergence failed at  81  side 1    Res =  0.5760E+03
 MRCHDU: Convergence failed at  82  side 1    Res =  0.4183E+03
 MRCHDU: Convergence failed at  83  side 1    Res =  0.5189E+03
 MRCHDU: Convergence failed at  84  side 1    Res =  0.9358E+02
 MRCHDU: Convergence failed at  85  side 1    Res =  0.1160E+03
 MRCHDU: Convergence failed at  86  side 1    Res =  0.3880E+03
 Side 1  free  transition at x/c =  0.0204   14
 Side 2 forced transition at x/c =  1.0000   76

   4   rms: 0.1928E+01   max: -.7884E+01   C at   76  2   RLX: 0.063
       a =  5.500      CL =  2.2659
      Cm = -0.5211     CD =  0.00366   =>   CDf =  0.00151    CDp =  0.00216

 MRCHDU: Convergence failed at  18  side 1    Res =  0.4506E+00
 MRCHDU: Convergence failed at  19  side 1    Res =  0.4366E+00
 MRCHDU: Convergence failed at  20  side 1    Res =  0.4139E+00
 MRCHDU: Convergence failed at  21  side 1    Res =  0.3742E+00
 Side 1  free  transition at x/c =  0.0200   14
 Side 2 forced transition at x/c =  1.0000   76

   5   rms: 0.7108E+00   max: -.3277E+01   D at   22  1   RLX: 0.153
       a =  5.500      CL =  1.5539
      Cm = -0.3341     CD =  0.04166   =>   CDf =  0.00226    CDp =  0.03940

 MRCHDU: Convergence failed at  15  side 1    Res =  0.2287E+01
 MRCHDU: Convergence failed at  16  side 1    Res =  0.6007E+01
 MRCHDU: Convergence failed at  17  side 1    Res =  0.3715E+01
 MRCHDU: Convergence failed at  18  side 1    Res =  0.2883E+01
 MRCHDU: Convergence failed at  19  side 1    Res =  0.2251E+01
 MRCHDU: Convergence failed at  20  side 1    Res =  0.2046E+01
 MRCHDU: Convergence failed at  21  side 1    Res =  0.2294E+01
 MRCHDU: Convergence failed at  22  side 1    Res =  0.4392E+02
 MRCHDU: Convergence failed at  50  side 1    Res =  0.1641E-02
 Side 1  free  transition at x/c =  0.0267   15
 Side 2 forced transition at x/c =  1.0000   76

   6   rms: 0.5556E+00   max: -.1654E+01   D at   49  1   RLX: 0.302
       a =  5.500      CL =  1.2289
      Cm = -0.1899     CD =  0.03812   =>   CDf =  0.00222    CDp =  0.03591

 MRCHDU: Convergence failed at  50  side 1    Res =  0.3613E-02
 Side 1  free  transition at x/c =  0.0263   15
 Side 2 forced transition at x/c =  1.0000   76

   7   rms: 0.7800E+00   max: -.4074E+01   D at   49  1   RLX: 0.123
       a =  5.500      CL =  1.1522
      Cm = -0.1736     CD =  0.04430   =>   CDf =  0.00386    CDp =  0.04044

 MRCHDU: Convergence failed at  49  side 1    Res =  0.2866E+00
 MRCHDU: Convergence failed at  50  side 1    Res =  0.1098E+01
 MRCHDU: Convergence failed at  51  side 1    Res =  0.7184E+00
 MRCHDU: Convergence failed at  52  side 1    Res =  0.6977E+00
 MRCHDU: Convergence failed at  53  side 1    Res =  0.6754E+00
 MRCHDU: Convergence failed at  54  side 1    Res =  0.6529E+00
 MRCHDU: Convergence failed at  55  side 1    Res =  0.6302E+00
 MRCHDU: Convergence failed at  56  side 1    Res =  0.6074E+00
 MRCHDU: Convergence failed at  57  side 1    Res =  0.5844E+00
 MRCHDU: Convergence failed at  58  side 1    Res =  0.5616E+00
 MRCHDU: Convergence failed at  59  side 1    Res =  0.5382E+00
 MRCHDU: Convergence failed at  60  side 1    Res =  0.5150E+00
 MRCHDU: Convergence failed at  61  side 1    Res =  0.4918E+00
 MRCHDU: Convergence failed at  62  side 1    Res =  0.4685E+00
 MRCHDU: Convergence failed at  63  side 1    Res =  0.4450E+00
 MRCHDU: Convergence failed at  64  side 1    Res =  0.4217E+00
 MRCHDU: Convergence failed at  65  side 1    Res =  0.3988E+00
 MRCHDU: Convergence failed at  66  side 1    Res =  0.3752E+00
 MRCHDU: Convergence failed at  67  side 1    Res =  0.3510E+00
 MRCHDU: Convergence failed at  68  side 1    Res =  0.3265E+00
 MRCHDU: Convergence failed at  69  side 1    Res =  0.3014E+00
 MRCHDU: Convergence failed at  70  side 1    Res =  0.2747E+00
 MRCHDU: Convergence failed at  71  side 1    Res =  0.2469E+00
 MRCHDU: Convergence failed at  72  side 1    Res =  0.2174E+00
 MRCHDU: Convergence failed at  73  side 1    Res =  0.1848E+00
 MRCHDU: Convergence failed at  74  side 1    Res =  0.1483E+00
 MRCHDU: Convergence failed at  75  side 1    Res =  0.1047E+00
 MRCHDU: Convergence failed at  76  side 1    Res =  0.2713E-01
 MRCHDU: Convergence failed at  77  side 1    Res =  0.1136E-02
 Side 1  free  transition at x/c =  0.0292   15
 Side 2 forced transition at x/c =  1.0000   76

   8   rms: 0.4149E+01   max: 0.2196E+02   D at   76  1   RLX: 0.029
       a =  5.500      CL =  0.9594
      Cm = -0.0844     CD =  0.03292   =>   CDf =  0.00385    CDp =  0.02907

 MRCHDU: Convergence failed at  76  side 1    Res =  0.3184E+00
 MRCHDU: Convergence failed at  77  side 1    Res =  0.6330E+00
 MRCHDU: Convergence failed at  78  side 1    Res =  0.2003E+00
 MRCHDU: Convergence failed at  79  side 1    Res =  0.1866E+00
 MRCHDU: Convergence failed at  80  side 1    Res =  0.1691E+00
 MRCHDU: Convergence failed at  81  side 1    Res =  0.1516E+00
 MRCHDU: Convergence failed at  82  side 1    Res =  0.1347E+00
 MRCHDU: Convergence failed at  83  side 1    Res =  0.1191E+00
 MRCHDU: Convergence failed at  84  side 1    Res =  0.1042E+00
 MRCHDU: Convergence failed at  85  side 1    Res =  0.9221E-01
 MRCHDU: Convergence failed at  86  side 1    Res =  0.2069E-02
 MRCHDU: Convergence failed at  78  side 2    Res =  0.2693E+01
 Side 1  free  transition at x/c =  0.0236   15
 Side 2 forced transition at x/c =  1.0000   76

   9   rms: 0.8335E+01   max: -.5895E+02   C at   76  2   RLX: 0.008
       a =  5.500      CL =  0.8047
      Cm = -0.0061     CD =  0.02191   =>   CDf =  0.00349    CDp =  0.01841

 MRCHDU: Convergence failed at  85  side 1    Res =  0.3726E+00
 MRCHDU: Convergence failed at  86  side 1    Res =  0.7775E+00
 Side 1  free  transition at x/c =  0.0264   15
 Side 2 forced transition at x/c =  1.0000   76

  10   rms: 0.7184E+01   max: 0.3819E+02   T at   15  1   RLX: 0.015
       a =  5.500      CL =  0.8441
      Cm =  0.0053     CD =  0.04838   =>   CDf =  0.00349    CDp =  0.04489

 MRCHDU: Convergence failed at  15  side 1    Res =  0.8901E+01
 Side 1  free  transition at x/c =  0.0208   14
 Side 2 forced transition at x/c =  1.0000   76

  11   rms: 0.3427E+01   max: -.2054E+02   D at   16  1   RLX: 0.024
       a =  5.500      CL =  0.7922
      Cm =  0.0133     CD =  0.05805   =>   CDf =  0.00346    CDp =  0.05459

 Side 1  free  transition at x/c =  0.0275   15
 Side 2 forced transition at x/c =  1.0000   76

  12   rms: 0.1839E+02   max: 0.7442E+02   T at   15  1   RLX: 0.007
       a =  5.500      CL =  0.8252
      Cm =  0.0236     CD =  0.04323   =>   CDf =  0.00348    CDp =  0.03975

 Side 1  free  transition at x/c =  0.0213   14
 Side 2 forced transition at x/c =  1.0000   76

  13   rms: 0.3473E+01   max: 0.1624E+02   D at   78  2   RLX: 0.039
       a =  5.500      CL =  0.7609
      Cm =  0.0208     CD =  0.05757   =>   CDf =  0.00359    CDp =  0.05398

 Side 1  free  transition at x/c =  0.0276   15
 Side 2 forced transition at x/c =  1.0000   76

  14   rms: 0.4832E+01   max: 0.1439E+02   D at   27  1   RLX: 0.038
       a =  5.500      CL =  0.6379
      Cm =  0.0224     CD =  0.07320   =>   CDf =  0.00349    CDp =  0.06971

 Side 1  free  transition at x/c =  0.0399   16
 Side 2 forced transition at x/c =  1.0000   76

  15   rms: 0.3066E+01   max: 0.7069E+02   C at   16  1   RLX: 0.021
       a =  5.500      CL =  0.6024
      Cm =  0.0354     CD =  0.06128   =>   CDf =  0.00325    CDp =  0.05803

 Side 1  free  transition at x/c =  0.0352   16
 Side 2 forced transition at x/c =  1.0000   76

  16   rms: 0.2270E+01   max: 0.1787E+02   C at   16  1   RLX: 0.084
       a =  5.500      CL =  0.6487
      Cm =  0.0505     CD =  0.03984   =>   CDf =  0.00334    CDp =  0.03650

 Side 1  free  transition at x/c =  0.0255   15
 Side 2 forced transition at x/c =  1.0000   76

  17   rms: 0.9638E+01   max: 0.3079E+02   D at   34  1   RLX: 0.020
       a =  5.500      CL =  0.6120
      Cm =  0.0365     CD =  0.06513   =>   CDf =  0.00334    CDp =  0.06179

 Side 1  free  transition at x/c =  0.0302   15
 Side 2 forced transition at x/c =  1.0000   76

  18   rms: 0.3706E+01   max: 0.2004E+02   T at   15  1   RLX: 0.040
       a =  5.500      CL =  0.6248
      Cm =  0.0542     CD =  0.04013   =>   CDf =  0.00312    CDp =  0.03701

 Side 1  free  transition at x/c =  0.0278   15
 Side 2 forced transition at x/c =  1.0000   76

  19   rms: 0.5348E+01   max: 0.1529E+02   D at   44  1   RLX: 0.040
       a =  5.500      CL =  0.5843
      Cm =  0.0378     CD =  0.06595   =>   CDf =  0.00324    CDp =  0.06271

 Side 1  free  transition at x/c =  0.0306   15
 Side 2 forced transition at x/c =  1.0000   76

  20   rms: 0.3896E+01   max: 0.1713E+02   C at   76  2   RLX: 0.048
       a =  5.500      CL =  0.5649
      Cm =  0.0726     CD =  0.03572   =>   CDf =  0.00320    CDp =  0.03252

 Side 1  free  transition at x/c =  0.0271   15
 Side 2 forced transition at x/c =  1.0000   76

  21   rms: 0.4299E+01   max: 0.1186E+02   D at   35  1   RLX: 0.048
       a =  5.500      CL =  0.5149
      Cm =  0.0626     CD =  0.06135   =>   CDf =  0.00324    CDp =  0.05811

 Side 1  free  transition at x/c =  0.0303   15
 Side 2 forced transition at x/c =  1.0000   76

  22   rms: 0.8087E+01   max: 0.4113E+02   C at   76  2   RLX: 0.023
       a =  5.500      CL =  0.5290
      Cm =  0.0866     CD =  0.03344   =>   CDf =  0.00313    CDp =  0.03031

 Side 1  free  transition at x/c =  0.0272   15
 Side 2 forced transition at x/c =  1.0000   76

  23   rms: 0.1150E+02   max: 0.3135E+02   D at   35  1   RLX: 0.032
       a =  5.500      CL =  0.5023
      Cm =  0.0719     CD =  0.05564   =>   CDf =  0.00355    CDp =  0.05209

 Side 1  free  transition at x/c =  0.0303   15
 Side 2 forced transition at x/c =  1.0000   76

  24   rms: 0.2095E+01   max: -.6185E+01   D at   55  1   RLX: 0.081
       a =  5.500      CL =  0.4847
      Cm =  0.0814     CD =  0.03047   =>   CDf =  0.00324    CDp =  0.02724

 Side 1  free  transition at x/c =  0.0290   15
 Side 2 forced transition at x/c =  1.0000   76

  25   rms: 0.4106E+01   max: -.1296E+02   D at   49  1   RLX: 0.039
       a =  5.500      CL =  0.4856
      Cm =  0.0855     CD =  0.02367   =>   CDf =  0.00357    CDp =  0.02010

 Side 1  free  transition at x/c =  0.0278   15
 Side 2 forced transition at x/c =  1.0000   76

  26   rms: 0.1006E+02   max: -.2834E+02   D at   33  1   RLX: 0.018
       a =  5.500      CL =  0.4893
      Cm =  0.0879     CD =  0.01675   =>   CDf =  0.00397    CDp =  0.01278

 Side 1  free  transition at x/c =  0.0267   15
 Side 2 forced transition at x/c =  1.0000   76

  27   rms: 0.2697E+01   max: -.8173E+01   D at   49  1   RLX: 0.061
       a =  5.500      CL =  0.5123
      Cm =  0.0847     CD =  0.01410   =>   CDf =  0.00433    CDp =  0.00978

 Side 1  free  transition at x/c =  0.0257   15
 Side 2 forced transition at x/c =  1.0000   76

  28   rms: 0.9292E+00   max: -.3053E+01   D at   49  1   RLX: 0.164
       a =  5.500      CL =  0.5372
      Cm =  0.0729     CD =  0.01280   =>   CDf =  0.00476    CDp =  0.00804

 Side 1  free  transition at x/c =  0.0246   15
 Side 2 forced transition at x/c =  1.0000   76

  29   rms: 0.4364E+00   max: -.1577E+01   D at   45  1   RLX: 0.317
       a =  5.500      CL =  0.5696
      Cm =  0.0516     CD =  0.01204   =>   CDf =  0.00524    CDp =  0.00680

 Side 1  free  transition at x/c =  0.0230   15
 Side 2 forced transition at x/c =  1.0000   76

  30   rms: 0.1985E+00   max: -.9204E+00   D at   48  1   RLX: 0.543
       a =  5.500      CL =  0.6056
      Cm =  0.0250     CD =  0.01194   =>   CDf =  0.00573    CDp =  0.00622

 Side 1  free  transition at x/c =  0.0210   14
 Side 2 forced transition at x/c =  1.0000   76

  31   rms: 0.1185E+00   max: -.6874E+00   D at   48  1   RLX: 0.727
       a =  5.500      CL =  0.6293
      Cm =  0.0083     CD =  0.01130   =>   CDf =  0.00602    CDp =  0.00529

 Side 1  free  transition at x/c =  0.0206   14
 Side 2 forced transition at x/c =  1.0000   76

[...]

  61   rms: 0.1617E+07   max: -.4385E+08   T at   97  2   RLX: 0.000
       a = 10.750      CL =  0.3798
      Cm =  0.0244     CD =*********   =>   CDf =  0.00195    CDp =*********

 Side 1  free  transition at x/c =  0.0148   14
 Side 2 forced transition at x/c =  1.0000   76

  62   rms: 0.1532E+06   max: -.4155E+07   T at   97  2   RLX: 0.000
       a = 10.750      CL =  0.3799
      Cm =  0.0243     CD =*********   =>   CDf =  0.00195    CDp =*********

 Side 1  free  transition at x/c =  0.0148   14
 Side 2 forced transition at x/c =  1.0000   76

  63   rms: 0.3903E+06   max: -.1059E+08   T at   97  2   RLX: 0.000
       a = 10.750      CL =  0.3799
      Cm =  0.0243     CD =*********   =>   CDf =  0.00195    CDp =*********

 Side 1  free  transition at x/c =  0.0148   14
 Side 2 forced transition at x/c =  1.0000   76

  64   rms: 0.2719E+06   max: -.7377E+07   T at   97  2   RLX: 0.000
       a = 10.750      CL =  0.3799
      Cm =  0.0243     CD =*********   =>   CDf =  0.00195    CDp =*********

 Side 1  free  transition at x/c =  0.0148   14
 Side 2 forced transition at x/c =  1.0000   76

  65   rms: 0.3353E+06   max: 0.9096E+07   T at   97  2   RLX: 0.000
       a = 10.750      CL =  0.3799
      Cm =  0.0243     CD =*********   =>   CDf =  0.00195    CDp =*********

 Side 1  free  transition at x/c =  0.0148   14
 Side 2 forced transition at x/c =  1.0000   76

  66   rms: 0.2137E+06   max: -.5798E+07   T at   97  2   RLX: 0.000
       a = 10.750      CL =  0.3799
      Cm =  0.0243     CD =*********   =>   CDf =  0.00195    CDp =*********

 Side 1  free  transition at x/c =  0.0148   14
 Side 2 forced transition at x/c =  1.0000   76

  67   rms: 0.1146E+06   max: -.3109E+07   T at   97  2   RLX: 0.000
       a = 10.750      CL =  0.3799
      Cm =  0.0243     CD =*********   =>   CDf =  0.00195    CDp =*********

 Side 1  free  transition at x/c =  0.0148   14
 Side 2 forced transition at x/c =  1.0000   76

  68   rms: 0.4059E+05   max: 0.1101E+07   T at   97  2   RLX: 0.000
       a = 10.750      CL =  0.3799
      Cm =  0.0243     CD =*********   =>   CDf =  0.00195    CDp =*********

 Side 1  free  transition at x/c =  0.0148   14
 Side 2 forced transition at x/c =  1.0000   76

  69   rms: 0.2183E+06   max: -.5923E+07   T at   97  2   RLX: 0.000
       a = 10.750      CL =  0.3799
      Cm =  0.0243     CD =*********   =>   CDf =  0.00195    CDp =*********

 Side 1  free  transition at x/c =  0.0148   14
 Side 2 forced transition at x/c =  1.0000   76

  70   rms: 0.5590E+06   max: -.1517E+08   T at   97  2   RLX: 0.000
       a = 10.750      CL =  0.3799
      Cm =  0.0243     CD =*********   =>   CDf =  0.00195    CDp =*********

 Side 1  free  transition at x/c =  0.0148   14
 Side 2 forced transition at x/c =  1.0000   76

  71   rms: 0.9070E+05   max: -.2459E+07   T at   97  2   RLX: 0.000
       a = 10.750      CL =  0.3799
      Cm =  0.0243     CD =*********   =>   CDf =  0.00195    CDp =*********

 Side 1  free  transition at x/c =  0.0148   14
 Side 2 forced transition at x/c =  1.0000   76

  72   rms: 0.1286E+05   max: -.2487E+06   T at   98  2   RLX: 0.000
       a = 10.750      CL =  0.3799
      Cm =  0.0243     CD =*********   =>   CDf =  0.00195    CDp =*********

 Side 1  free  transition at x/c =  0.0148   14
 Side 2 forced transition at x/c =  1.0000   76

  73   rms: 0.1067E+06   max: -.2889E+07   T at   97  2   RLX: 0.000
       a = 10.750      CL =  0.3799
      Cm =  0.0243     CD =*********   =>   CDf =  0.00195    CDp =*********

 Side 1  free  transition at x/c =  0.0148   14
 Side 2 forced transition at x/c =  1.0000   76

  74   rms: 0.2376E+05   max: -.6394E+06   T at   97  2   RLX: 0.000
       a = 10.750      CL =  0.3799
      Cm =  0.0243     CD =*********   =>   CDf =  0.00195    CDp =*********

 Side 1  free  transition at x/c =  0.0148   14
 Side 2 forced transition at x/c =  1.0000   76

  75   rms: 0.4528E+05   max: 0.8822E+06   T at   98  2   RLX: 0.000
       a = 10.750      CL =  0.3799
      Cm =  0.0243     CD =*********   =>   CDf =  0.00195    CDp =*********

 Side 1  free  transition at x/c =  0.0148   14
 Side 2 forced transition at x/c =  1.0000   76

  76   rms: 0.1185E+06   max: 0.3178E+07   T at   97  2   RLX: 0.000
       a = 10.750      CL =  0.3799
      Cm =  0.0243     CD =*********   =>   CDf =  0.00195    CDp =*********

 Side 1  free  transition at x/c =  0.0148   14
 Side 2 forced transition at x/c =  1.0000   76

  77   rms: 0.5532E+05   max: -.1336E+07   T at   97  2   RLX: 0.000
       a = 10.750      CL =  0.3799
      Cm =  0.0243     CD =*********   =>   CDf =  0.00195    CDp =*********

 Side 1  free  transition at x/c =  0.0148   14
 Side 2 forced transition at x/c =  1.0000   76

  78   rms: 0.1214E+06   max: -.3154E+07   T at   97  2   RLX: 0.000
       a = 10.750      CL =  0.3799
      Cm =  0.0243     CD =*********   =>   CDf =  0.00195    CDp =*********

 Side 1  free  transition at x/c =  0.0148   14
 Side 2 forced transition at x/c =  1.0000   76

  79   rms: 0.1701E+06   max: 0.4110E+07   T at   98  2   RLX: 0.000
       a = 10.750      CL =  0.3799
      Cm =  0.0243     CD =*********   =>   CDf =  0.00195    CDp =*********

 Side 1  free  transition at x/c =  0.0148   14
 Side 2 forced transition at x/c =  1.0000   76

  80   rms: 0.3134E+07   max: -.8442E+08   T at   98  2   RLX: 0.000
       a = 10.750      CL =  0.3799
      Cm =  0.0243     CD =*********   =>   CDf =  0.00195    CDp =*********

 Side 1  free  transition at x/c =  0.0148   14
 Side 2 forced transition at x/c =  1.0000   76

  81   rms: 0.1024E+07   max: 0.2553E+08   T at   97  2   RLX: 0.000
       a = 10.750      CL =  0.3799
      Cm =  0.0243     CD =*********   =>   CDf =  0.00195    CDp =*********

 Side 1  free  transition at x/c =  0.0148   14
 Side 2 forced transition at x/c =  1.0000   76

  82   rms: 0.2566E+06   max: 0.5252E+07   T at   98  2   RLX: 0.000
       a = 10.750      CL =  0.3799
      Cm =  0.0243     CD =*********   =>   CDf =  0.00195    CDp =*********

 Side 1  free  transition at x/c =  0.0148   14
 Side 2 forced transition at x/c =  1.0000   76

  83   rms: 0.1816E+07   max: 0.4898E+08   T at   97  2   RLX: 0.000
       a = 10.750      CL =  0.3799
      Cm =  0.0243     CD =*********   =>   CDf =  0.00195    CDp =*********

 Side 1  free  transition at x/c =  0.0148   14
 Side 2 forced transition at x/c =  1.0000   76

  84   rms: 0.2552E+06   max: -.6878E+07   T at   97  2   RLX: 0.000
       a = 10.750      CL =  0.3799
      Cm =  0.0243     CD =*********   =>   CDf =  0.00195    CDp =*********

 Side 1  free  transition at x/c =  0.0148   14
 Side 2 forced transition at x/c =  1.0000   76

  85   rms: 0.2692E+06   max: 0.6191E+07   T at   97  2   RLX: 0.000
       a = 10.750      CL =  0.3799
      Cm =  0.0243     CD =*********   =>   CDf =  0.00195    CDp =*********

 Side 1  free  transition at x/c =  0.0148   14
 Side 2 forced transition at x/c =  1.0000   76

  86   rms: 0.5724E+05   max: -.1238E+07   T at   97  2   RLX: 0.000
       a = 10.750      CL =  0.3799
      Cm =  0.0243     CD =*********   =>   CDf =  0.00195    CDp =*********

 Side 1  free  transition at x/c =  0.0148   14
 Side 2 forced transition at x/c =  1.0000   76

  87   rms: 0.1913E+06   max: -.5066E+07   T at   98  2   RLX: 0.000
       a = 10.750      CL =  0.3799
      Cm =  0.0243     CD =*********   =>   CDf =  0.00195    CDp =*********

 Side 1  free  transition at x/c =  0.0148   14
 Side 2 forced transition at x/c =  1.0000   76

  88   rms: 0.2450E+06   max: -.5717E+07   T at   97  2   RLX: 0.000
       a = 10.750      CL =  0.3799
      Cm =  0.0243     CD =*********   =>   CDf =  0.00195    CDp =*********

 Side 1  free  transition at x/c =  0.0148   14
 Side 2 forced transition at x/c =  1.0000   76

  89   rms: 0.1641E+07   max: -.4356E+08   T at   97  2   RLX: 0.000
       a = 10.750      CL =  0.3799
      Cm =  0.0243     CD =*********   =>   CDf =  0.00195    CDp =*********

 Side 1  free  transition at x/c =  0.0148   14
 Side 2 forced transition at x/c =  1.0000   76

  90   rms: 0.8883E+07   max: 0.2348E+09   T at   97  2   RLX: 0.000
       a = 10.750      CL =  0.3799
      Cm =  0.0243     CD =*********   =>   CDf =  0.00195    CDp =*********

 Side 1  free  transition at x/c =  0.0148   14
 Side 2 forced transition at x/c =  1.0000   76

  91   rms: 0.5045E+06   max: -.1133E+08   T at   98  2   RLX: 0.000
       a = 10.750      CL =  0.3799
      Cm =  0.0243     CD =*********   =>   CDf =  0.00195    CDp =*********

 Side 1  free  transition at x/c =  0.0148   14
 Side 2 forced transition at x/c =  1.0000   76

  92   rms: 0.3554E+06   max: 0.7005E+07   T at   97  2   RLX: 0.000
       a = 10.750      CL =  0.3799
      Cm =  0.0243     CD =*********   =>   CDf =  0.00195    CDp =*********

 Side 1  free  transition at x/c =  0.0148   14
 Side 2 forced transition at x/c =  1.0000   76

  93   rms: 0.6362E+05   max: -.1581E+07   T at   97  2   RLX: 0.000
       a = 10.750      CL =  0.3799
      Cm =  0.0243     CD =*********   =>   CDf =  0.00195    CDp =*********

 Side 1  free  transition at x/c =  0.0148   14
 Side 2 forced transition at x/c =  1.0000   76

  94   rms: 0.1904E+06   max: -.4865E+07   T at   97  2   RLX: 0.000
       a = 10.750      CL =  0.3799
      Cm =  0.0243     CD =*********   =>   CDf =  0.00195    CDp =*********

 Side 1  free  transition at x/c =  0.0148   14
 Side 2 forced transition at x/c =  1.0000   76

  95   rms: 0.4112E+06   max: -.1086E+08   T at   98  2   RLX: 0.000
       a = 10.750      CL =  0.3799
      Cm =  0.0243     CD =*********   =>   CDf =  0.00195    CDp =*********

 Side 1  free  transition at x/c =  0.0148   14
 Side 2 forced transition at x/c =  1.0000   76

  96   rms: 0.1802E+07   max: -.4053E+08   T at   97  2   RLX: 0.000
       a = 10.750      CL =  0.3799
      Cm =  0.0243     CD =*********   =>   CDf =  0.00195    CDp =*********

 Side 1  free  transition at x/c =  0.0148   14
 Side 2 forced transition at x/c =  1.0000   76

  97   rms: 0.4608E+06   max: 0.9974E+07   T at   98  2   RLX: 0.000
       a = 10.750      CL =  0.3799
      Cm =  0.0243     CD =*********   =>   CDf =  0.00195    CDp =*********

 Side 1  free  transition at x/c =  0.0148   14
 Side 2 forced transition at x/c =  1.0000   76

  98   rms: 0.1453E+09   max: -.3888E+10   T at   97  2   RLX: 0.000
       a = 10.750      CL =  0.3799
      Cm =  0.0243     CD =*********   =>   CDf =  0.00195    CDp =*********

 Side 1  free  transition at x/c =  0.0148   14
 Side 2 forced transition at x/c =  1.0000   76

  99   rms: 0.6465E+08   max: -.1706E+10   T at   97  2   RLX: 0.000
       a = 10.750      CL =  0.3799
      Cm =  0.0243     CD =*********   =>   CDf =  0.00195    CDp =*********

 Side 1  free  transition at x/c =  0.0148   14
 Side 2 forced transition at x/c =  1.0000   76

 100   rms: 0.4431E+10   max: -.1172E+12   T at   97  2   RLX: 0.000
       a = 10.750      CL =  0.3799
      Cm =  0.0243     CD =*********   =>   CDf =  0.00195    CDp =*********

 Side 1  free  transition at x/c =  0.0148   14
 Side 2 forced transition at x/c =  1.0000   76

 101   rms: 0.2245E+11   max: -.5953E+12   T at   97  2   RLX: 0.000
       a = 10.750      CL =  0.3799
      Cm =  0.0243     CD =*********   =>   CDf =  0.00195    CDp =*********

 Side 1  free  transition at x/c =  0.0148   14
 Side 2 forced transition at x/c =  1.0000   76

 102   rms: 0.1070E+12   max: -.2856E+13   T at   97  2   RLX: 0.000
       a = 10.750      CL =  0.3799
      Cm =  0.0243     CD =*********   =>   CDf =  0.00195    CDp =*********

 Side 1  free  transition at x/c =  0.0148   14
 Side 2 forced transition at x/c =  1.0000   76

 103   rms: 0.4624E+12   max: 0.1236E+14   T at   97  2   RLX: 0.000
       a = 10.750      CL =  0.3799
      Cm =  0.0243     CD =*********   =>   CDf =  0.00195    CDp =*********

 Side 1  free  transition at x/c =  0.0148   14
 Side 2 forced transition at x/c =  1.0000   76

 104   rms: 0.3660E+11   max: 0.9696E+12   T at   97  2   RLX: 0.000
       a = 10.750      CL =  0.3799
      Cm =  0.0243     CD =*********   =>   CDf =  0.00195    CDp =*********

 Side 1  free  transition at x/c =  0.0148   14
 Side 2 forced transition at x/c =  1.0000   76

 105   rms: 0.4869E+10   max: 0.1293E+12   T at   97  2   RLX: 0.000
       a = 10.750      CL =  0.3799
      Cm =  0.0243     CD =*********   =>   CDf =  0.00195    CDp =*********

 Side 1  free  transition at x/c =  0.0148   14
 Side 2 forced transition at x/c =  1.0000   76

 106   rms: 0.9568E+09   max: -.2593E+11   T at   97  2   RLX: 0.000
       a = 10.750      CL =  0.3799
      Cm =  0.0243     CD =*********   =>   CDf =  0.00195    CDp =*********

 Side 1  free  transition at x/c =  0.0148   14
 Side 2 forced transition at x/c =  1.0000   76

 107   rms: 0.1299E+10   max: 0.2907E+11   T at   97  2   RLX: 0.000
       a = 10.750      CL =  0.3799
      Cm =  0.0243     CD =*********   =>   CDf =  0.00195    CDp =*********

 Side 1  free  transition at x/c =  0.0148   14
 Side 2 forced transition at x/c =  1.0000   76

 108   rms: 0.4550E+08   max: -.1094E+10   T at   97  2   RLX: 0.000
       a = 10.750      CL =  0.3799
      Cm =  0.0243     CD =*********   =>   CDf =  0.00195    CDp =*********

 Side 1  free  transition at x/c =  0.0148   14
 Side 2 forced transition at x/c =  1.0000   76

 109   rms: 0.1385E+10   max: 0.3756E+11   T at   97  2   RLX: 0.000
       a = 10.750      CL =  0.3799
      Cm =  0.0243     CD =*********   =>   CDf =  0.00195    CDp =*********

 Side 1  free  transition at x/c =  0.0148   14
 Side 2 forced transition at x/c =  1.0000   76

 110   rms: 0.1225E+09   max: -.3324E+10   T at   97  2   RLX: 0.000
       a = 10.750      CL =  0.3799
      Cm =  0.0243     CD =*********   =>   CDf =  0.00195    CDp =*********

 Side 1  free  transition at x/c =  0.0148   14
 Side 2 forced transition at x/c =  1.0000   76

 111   rms: 0.2337E+08   max: -.6302E+09   T at   97  2   RLX: 0.000
       a = 10.750      CL =  0.3799
      Cm =  0.0243     CD =*********   =>   CDf =  0.00195    CDp =*********

 Side 1  free  transition at x/c =  0.0148   14
 Side 2 forced transition at x/c =  1.0000   76

 112   rms: 0.1285E+11   max: 0.3487E+12   T at   97  2   RLX: 0.000
       a = 10.750      CL =  0.3799
      Cm =  0.0243     CD =*********   =>   CDf =  0.00195    CDp =*********

 Side 1  free  transition at x/c =  0.0148   14
 Side 2 forced transition at x/c =  1.0000   76

 113   rms: 0.8529E+09   max: 0.2314E+11   T at   97  2   RLX: 0.000
       a = 10.750      CL =  0.3799
      Cm =  0.0243     CD =*********   =>   CDf =  0.00195    CDp =*********

 Side 1  free  transition at x/c =  0.0148   14
 Side 2 forced transition at x/c =  1.0000   76

 114   rms: 0.3933E+08   max: -.1067E+10   T at   97  2   RLX: 0.000
       a = 10.750      CL =  0.3799
      Cm =  0.0243     CD =*********   =>   CDf =  0.00195    CDp =*********

 Side 1  free  transition at x/c =  0.0148   14
 Side 2 forced transition at x/c =  1.0000   76

 115   rms: 0.2201E+09   max: 0.5971E+10   T at   97  2   RLX: 0.000
       a = 10.750      CL =  0.3799
      Cm =  0.0243     CD =*********   =>   CDf =  0.00195    CDp =*********

 Side 1  free  transition at x/c =  0.0148   14
 Side 2 forced transition at x/c =  1.0000   76

 116   rms: 0.4238E+08   max: -.1101E+10   T at   97  2   RLX: 0.000
       a = 10.750      CL =  0.3799
      Cm =  0.0243     CD =*********   =>   CDf =  0.00195    CDp =*********

 Side 1  free  transition at x/c =  0.0148   14
 Side 2 forced transition at x/c =  1.0000   76

 117   rms: 0.1810E+09   max: 0.4885E+10   T at   97  2   RLX: 0.000
       a = 10.750      CL =  0.3799
      Cm =  0.0243     CD =*********   =>   CDf =  0.00195    CDp =*********

 Side 1  free  transition at x/c =  0.0148   14
 Side 2 forced transition at x/c =  1.0000   76

 118   rms: 0.1496E+08   max: 0.3174E+09   T at   97  2   RLX: 0.000
       a = 10.750      CL =  0.3799
      Cm =  0.0243     CD =*********   =>   CDf =  0.00195    CDp =*********

 Side 1  free  transition at x/c =  0.0148   14
 Side 2 forced transition at x/c =  1.0000   76

 119   rms: 0.8343E+06   max: -.1851E+08   T at   97  2   RLX: 0.000
       a = 10.750      CL =  0.3799
      Cm =  0.0243     CD =*********   =>   CDf =  0.00195    CDp =*********

 Side 1  free  transition at x/c =  0.0148   14
 Side 2 forced transition at x/c =  1.0000   76

 120   rms: 0.8336E+07   max: 0.2170E+09   T at   98  2   RLX: 0.000
       a = 10.750      CL =  0.3799
      Cm =  0.0243     CD =*********   =>   CDf =  0.00195    CDp =*********

 Side 1  free  transition at x/c =  0.0148   14
 Side 2 forced transition at x/c =  1.0000   76

 121   rms: 0.3869E+07   max: -.1049E+09   T at   97  2   RLX: 0.000
       a = 10.750      CL =  0.3799
      Cm =  0.0243     CD =*********   =>   CDf =  0.00195    CDp =*********

 Side 1  free  transition at x/c =  0.0148   14
 Side 2 forced transition at x/c =  1.0000   76

 122   rms: 0.1081E+09   max: -.2933E+10   T at   97  2   RLX: 0.000
       a = 10.750      CL =  0.3799
      Cm =  0.0243     CD =*********   =>   CDf =  0.00195    CDp =*********

 Side 1  free  transition at x/c =  0.0148   14
 Side 2 forced transition at x/c =  1.0000   76

 123   rms: 0.2925E+10   max: -.7936E+11   T at   97  2   RLX: 0.000
       a = 10.750      CL =  0.3799
      Cm =  0.0243     CD =*********   =>   CDf =  0.00195    CDp =*********

 Side 1  free  transition at x/c =  0.0148   14
 Side 2 forced transition at x/c =  1.0000   76

 124   rms: 0.6158E+09   max: -.1670E+11   T at   97  2   RLX: 0.000
       a = 10.750      CL =  0.3799
      Cm =  0.0243     CD =*********   =>   CDf =  0.00195    CDp =*********

 Side 1  free  transition at x/c =  0.0148   14
 Side 2 forced transition at x/c =  1.0000   76

 125   rms: 0.6162E+11   max: 0.1672E+13   T at   97  2   RLX: 0.000
       a = 10.750      CL =  0.3799
      Cm =  0.0243     CD =*********   =>   CDf =  0.00195    CDp =*********

 Side 1  free  transition at x/c =  0.0148   14
 Side 2 forced transition at x/c =  1.0000   76

 126   rms: 0.2051E+10   max: -.5564E+11   T at   97  2   RLX: 0.000
       a = 10.750      CL =  0.3799
      Cm =  0.0243     CD =*********   =>   CDf =  0.00195    CDp =*********

 Side 1  free  transition at x/c =  0.0148   14
 Side 2 forced transition at x/c =  1.0000   76

 127   rms: 0.1021E+11   max: 0.2771E+12   T at   97  2   RLX: 0.000
       a = 10.750      CL =  0.3799
      Cm =  0.0243     CD =*********   =>   CDf =  0.00195    CDp =*********

 Side 1  free  transition at x/c =  0.0148   14
 Side 2 forced transition at x/c =  1.0000   76

 128   rms: 0.2589E+10   max: -.5404E+11   T at   98  2   RLX: 0.000
       a = 10.750      CL =  0.3799
      Cm =  0.0243     CD =*********   =>   CDf =  0.00195    CDp =*********

 Side 1  free  transition at x/c =  0.0148   14
 Side 2 forced transition at x/c =  1.0000   76

 129   rms: 0.1137E+10   max: -.3014E+11   T at   97  2   RLX: 0.000
       a = 10.750      CL =  0.3799
      Cm =  0.0243     CD =*********   =>   CDf =  0.00195    CDp =*********

 Side 1  free  transition at x/c =  0.0148   14
 Side 2 forced transition at x/c =  1.0000   76

 130   rms: 0.3814E+10   max: 0.1007E+12   T at   97  2   RLX: 0.000
       a = 10.750      CL =  0.3799
      Cm =  0.0243     CD =*********   =>   CDf =  0.00195    CDp =*********

 Side 1  free  transition at x/c =  0.0148   14
 Side 2 forced transition at x/c =  1.0000   76

 131   rms: 0.1770E+10   max: 0.4790E+11   T at   97  2   RLX: 0.000
       a = 10.750      CL =  0.3799
      Cm =  0.0243     CD =*********   =>   CDf =  0.00195    CDp =*********

 Side 1  free  transition at x/c =  0.0148   14
 Side 2 forced transition at x/c =  1.0000   76

 132   rms: 0.7751E+08   max: -.1982E+10   T at   97  2   RLX: 0.000
       a = 10.750      CL =  0.3799

[TIMEOUT]
