
 ===================================================
  XFOIL Version 6.99
  Copyright (C) 2000   Mark Drela, Harold Youngren

  This software comes with ABSOLUTELY NO WARRANTY,
    subject to the GNU General Public License.

  Caveat computor
 ===================================================

 File  xfoil.def  not found

   QUIT    Exit program

  .OPER    Direct operating point(s)
  .MDES    Complex mapping design routine
  .QDES    Surface speed design routine
  .GDES    Geometry design routine

   SAVE f  Write airfoil to labeled coordinate file
   PSAV f  Write airfoil to plain coordinate file
   ISAV f  Write airfoil to ISES coordinate file
   MSAV f  Write airfoil to MSES coordinate file
   REVE    Reverse written-airfoil node ordering

   LOAD f  Read buffer airfoil from coordinate file
   NACA i  Set NACA 4,5-digit airfoil and buffer airfoil
   INTE    Set buffer airfoil by interpolating two airfoils
   NORM    Buffer airfoil normalization toggle
   XYCM rr Change CM reference location, currently  0.25000 0.00000

   BEND    Display structural properties of current airfoil

   PCOP    Set current-airfoil panel nodes directly from buffer airfoil points
   PANE    Set current-airfoil panel nodes ( 160 ) based on curvature
  .PPAR    Show/change paneling

  .PLOP    Plotting options

   WDEF f  Write  current-settings file
   RDEF f  Reread current-settings file
   NAME s  Specify new airfoil name
   NINC    Increment name version number

   Z       Zoom    | (available in all menus)
   U       Unzoom  | 

 XFOIL   c>  
 Labeled airfoil file.  Name:   ONERA OA206 AIRFOIL                            

 Number of input coordinate points: 113
 Counterclockwise ordering
 Max thickness =     0.060072  at x =   0.318
 Max camber    =     0.008432  at x =   0.196

  LE  x,y  =  -0.00000  -0.00001  |   Chord =   1.00000
  TE  x,y  =   1.00000   0.00011  |

 Current airfoil nodes set from buffer airfoil nodes ( 113 )

 XFOIL   c>  
 XFOIL   c>  
 Blunt trailing edge.  Gap =  0.00335

 Paneling parameters used...
   Number of panel nodes       160
   Panel bunching parameter    1.000
   TE/LE panel density ratio   0.150
   Refined-area/LE panel density ratio    0.200
   Top    side refined area x/c limits  1.000 1.000
   Bottom side refined area x/c limits  1.000 1.000

 XFOIL   c>  
.OPERi   c>  
 Xtr/c     =  1.0000    top    side
 Xtr/c     =  1.0000    bottom side
 Ncrit     =    9.00   ( 0.070 % turb. level )
 Vacc      =  0.0100

 Klag  =  5.6000     Uxwt  =    1.00
 A     =  6.7000     B     =  0.7500       KCt = 0.01485
 CtiniK=  1.8000     CtiniX=  3.3000

..VPAR   c>  
..VPAR   c>  
.OPERi   c>  
 M  =    0.0000
 Re =    300000

.OPERv   c>  
.OPERv   c>  
.OPERv   c>  
 Polar  1 newly created for accumulation
 Airfoil archived with polar: ONERA OA206 AIRFOIL                             

Enter  polar save filename  OR  <return> for no file   s>  
 New polar save file available

Enter  polar dump filename  OR  <return> for no file   s>  
 Polar dump file will NOT be written

 Polar accumulation enabled

.OPERva   c>   Calculating unit vorticity distributions ...
 Calculating wake trajectory ...
 Calculating source influence matrix ...

 Solving BL system ...

 Initializing BL ...
    side            1  ...
 MRCHUE: Inverse mode at  66     Hk =   3.940
 MRCHUE: Inverse mode at  67     Hk =   4.291
 MRCHUE: Inverse mode at  68     Hk =   4.636
 MRCHUE: Inverse mode at  69     Hk =   4.973
 MRCHUE: Inverse mode at  70     Hk =   5.303
 MRCHUE: Inverse mode at  71     Hk =   5.626
 MRCHUE: Inverse mode at  72     Hk =   5.942
 MRCHUE: Inverse mode at  73     Hk =   6.253
 MRCHUE: Inverse mode at  74     Hk =   6.560
 MRCHUE: Inverse mode at  75     Hk =   6.832
 MRCHUE: Inverse mode at  76     Hk =   7.049
 MRCHUE: Inverse mode at  77     Hk =   7.168
    side            2  ...
 MRCHUE: Inverse mode at  11     Hk =   4.436
 MRCHUE: Inverse mode at  12     Hk =   5.596
 MRCHUE: Convergence failed at  13  side 2    Res =  0.6341E+01
 MRCHUE: Inverse mode at  14     Hk =   7.330
 MRCHUE: Inverse mode at  15     Hk =   9.283
 MRCHUE: Inverse mode at  16     Hk =   2.500
 MRCHUE: Inverse mode at  17     Hk =   2.500
 MRCHUE: Inverse mode at  87     Hk =   2.566
 MRCHUE: Inverse mode at  88     Hk =   2.480

 MRCHDU: Convergence failed at  13  side 2    Res =  0.1546E+01
 MRCHDU: Convergence failed at  16  side 2    Res =  0.7477E+01
 MRCHDU: Convergence failed at  17  side 2    Res =  0.3309E+03
 MRCHDU: Convergence failed at  18  side 2    Res =  0.3042E+02
 MRCHDU: Convergence failed at  19  side 2    Res =  0.1015E+03
 MRCHDU: Convergence failed at  20  side 2    Res =  0.1966E+03
 MRCHDU: Convergence failed at  21  side 2    Res =  0.5737E+02
 MRCHDU: Convergence failed at  22  side 2    Res =  0.5341E+02
 MRCHDU: Convergence failed at  23  side 2    Res =  0.5771E+02
 MRCHDU: Convergence failed at  24  side 2    Res =  0.3103E+02
 MRCHDU: Convergence failed at  25  side 2    Res =  0.2699E+02
 MRCHDU: Convergence failed at  26  side 2    Res =  0.2746E+02
 MRCHDU: Convergence failed at  27  side 2    Res =  0.2821E+02
 MRCHDU: Convergence failed at  28  side 2    Res =  0.2912E+02
 MRCHDU: Convergence failed at  29  side 2    Res =  0.3011E+02
 MRCHDU: Convergence failed at  30  side 2    Res =  0.3130E+02
 MRCHDU: Convergence failed at  31  side 2    Res =  0.3253E+02
 MRCHDU: Convergence failed at  32  side 2    Res =  0.3386E+02
 MRCHDU: Convergence failed at  33  side 2    Res =  0.3725E+02
 MRCHDU: Convergence failed at  34  side 2    Res =  0.3892E+02
 MRCHDU: Convergence failed at  35  side 2    Res =  0.4059E+02
 MRCHDU: Convergence failed at  36  side 2    Res =  0.4223E+02
 MRCHDU: Convergence failed at  37  side 2    Res =  0.4392E+02
 MRCHDU: Convergence failed at  38  side 2    Res =  0.4548E+02
 MRCHDU: Convergence failed at  39  side 2    Res =  0.4707E+02
 MRCHDU: Convergence failed at  40  side 2    Res =  0.4840E+02
 MRCHDU: Convergence failed at  41  side 2    Res =  0.5144E+02
 MRCHDU: Convergence failed at  42  side 2    Res =  0.5285E+02
 MRCHDU: Convergence failed at  43  side 2    Res =  0.5397E+02
 MRCHDU: Convergence failed at  44  side 2    Res =  0.5884E+02
 MRCHDU: Convergence failed at  45  side 2    Res =  0.6456E+02
 MRCHDU: Convergence failed at  46  side 2    Res =  0.6652E+02
 MRCHDU: Convergence failed at  47  side 2    Res =  0.6891E+02
 MRCHDU: Convergence failed at  48  side 2    Res =  0.7130E+02
 MRCHDU: Convergence failed at  49  side 2    Res =  0.7417E+02
 MRCHDU: Convergence failed at  50  side 2    Res =  0.7696E+02
 MRCHDU: Convergence failed at  51  side 2    Res =  0.8028E+02
 MRCHDU: Convergence failed at  52  side 2    Res =  0.8400E+02
 MRCHDU: Convergence failed at  53  side 2    Res =  0.8758E+02
 MRCHDU: Convergence failed at  54  side 2    Res =  0.9183E+02
 MRCHDU: Convergence failed at  55  side 2    Res =  0.9606E+02
 MRCHDU: Convergence failed at  56  side 2    Res =  0.1013E+03
 MRCHDU: Convergence failed at  57  side 2    Res =  0.1064E+03
 MRCHDU: Convergence failed at  58  side 2    Res =  0.1130E+03
 MRCHDU: Convergence failed at  59  side 2    Res =  0.1208E+03
 MRCHDU: Convergence failed at  60  side 2    Res =  0.1281E+03
 MRCHDU: Convergence failed at  61  side 2    Res =  0.1403E+03
 MRCHDU: Convergence failed at  62  side 2    Res =  0.1511E+03
 MRCHDU: Convergence failed at  63  side 2    Res =  0.1669E+03
 MRCHDU: Convergence failed at  64  side 2    Res =  0.1862E+03
 MRCHDU: Convergence failed at  65  side 2    Res =  0.2092E+03
 MRCHDU: Convergence failed at  66  side 2    Res =  0.5148E+02
 MRCHDU: Convergence failed at  67  side 2    Res =  0.6112E+02
 MRCHDU: Convergence failed at  68  side 2    Res =  0.1875E+04
 MRCHDU: Convergence failed at  69  side 2    Res =  0.7562E+03
 MRCHDU: Convergence failed at  70  side 2    Res =  0.4016E+02
 MRCHDU: Convergence failed at  71  side 2    Res =  0.5653E+04
 MRCHDU: Convergence failed at  72  side 2    Res =  0.7325E+03
 MRCHDU: Convergence failed at  73  side 2    Res =  0.3557E+03
 MRCHDU: Convergence failed at  74  side 2    Res =  0.7282E+02
 MRCHDU: Convergence failed at  75  side 2    Res =  0.8292E+02
 MRCHDU: Convergence failed at  76  side 2    Res =  0.1003E+03
 MRCHDU: Convergence failed at  77  side 2    Res =  0.1262E+03
 MRCHDU: Convergence failed at  78  side 2    Res =  0.1184E+03
 MRCHDU: Convergence failed at  79  side 2    Res =  0.1685E+03
 MRCHDU: Convergence failed at  80  side 2    Res =  0.2533E+03
 MRCHDU: Convergence failed at  81  side 2    Res =  0.4028E+03
 MRCHDU: Convergence failed at  82  side 2    Res =  0.6028E+03
 MRCHDU: Convergence failed at  83  side 2    Res =  0.6744E+03
 MRCHDU: Convergence failed at  84  side 2    Res =  0.5728E+03
 MRCHDU: Convergence failed at  85  side 2    Res =  0.1194E+04
 Side 1 forced transition at x/c =  1.0000   77
 Side 2  free  transition at x/c =  0.0350   16

   1   rms: 0.1471E+01   max: 0.2111E+01   D at   90  2   RLX: 0.278
       a = -4.000      CL = -2.1789
      Cm =  0.4976     CD =  0.00531   =>   CDf =  0.00184    CDp =  0.00346

 MRCHDU: Convergence failed at  23  side 2    Res =  0.3991E-01
 MRCHDU: Convergence failed at  42  side 2    Res =  0.1999E-01
 Side 1 forced transition at x/c =  1.0000   77
 Side 2  free  transition at x/c =  0.0328   16

   2   rms: 0.9338E+00   max: 0.5660E+01   T at   19  2   RLX: 0.134
       a = -4.000      CL = -1.5437
      Cm =  0.3087     CD =  0.02306   =>   CDf =  0.00603    CDp =  0.01704

 MRCHDU: Convergence failed at  23  side 2    Res =  0.1481E+00
 MRCHDU: Convergence failed at  24  side 2    Res =  0.2090E+00
 MRCHDU: Convergence failed at  25  side 2    Res =  0.2170E+00
 MRCHDU: Convergence failed at  42  side 2    Res =  0.1237E+00
 MRCHDU: Convergence failed at  43  side 2    Res =  0.3813E+00
 MRCHDU: Convergence failed at  55  side 2    Res =  0.3619E+00
 MRCHDU: Convergence failed at  56  side 2    Res =  0.5430E+00
 MRCHDU: Convergence failed at  57  side 2    Res =  0.5952E-01
 MRCHDU: Convergence failed at  80  side 2    Res =  0.2766E+00
 MRCHDU: Convergence failed at  81  side 2    Res =  0.7311E+00
 MRCHDU: Convergence failed at  82  side 2    Res =  0.9960E-01
 MRCHDU: Convergence failed at  83  side 2    Res =  0.3946E-03
 Side 1 forced transition at x/c =  1.0000   77
 Side 2  free  transition at x/c =  0.0302   15

   3   rms: 0.8724E+00   max: -.5527E+01   D at   26  2   RLX: 0.090
       a = -4.000      CL = -1.1945
      Cm =  0.2054     CD =  0.02312   =>   CDf =  0.00453    CDp =  0.01859

 MRCHDU: Convergence failed at  57  side 2    Res =  0.1657E+00
 MRCHDU: Convergence failed at  58  side 2    Res =  0.3082E+00
 MRCHDU: Convergence failed at  82  side 2    Res =  0.5896E+00
 MRCHDU: Convergence failed at  83  side 2    Res =  0.8618E+00
 MRCHDU: Convergence failed at  84  side 2    Res =  0.2217E+00
 MRCHDU: Convergence failed at  85  side 2    Res =  0.2380E+00
 Side 1 forced transition at x/c =  1.0000   77
 Side 2  free  transition at x/c =  0.0295   15

   4   rms: 0.8164E+00   max: -.3016E+01   D at   24  2   RLX: 0.155
       a = -4.000      CL = -0.9773
      Cm =  0.0997     CD =  0.03083   =>   CDf =  0.00413    CDp =  0.02671

 MRCHDU: Convergence failed at  22  side 2    Res =  0.9900E+00
 MRCHDU: Convergence failed at  23  side 2    Res =  0.2356E+01
 Side 1 forced transition at x/c =  1.0000   77
 Side 2  free  transition at x/c =  0.0270   15

   5   rms: 0.9897E+00   max: 0.4487E+01   C at   77  1   RLX: 0.174
       a = -4.000      CL = -0.9310
      Cm =  0.0593     CD =  0.02470   =>   CDf =  0.00399    CDp =  0.02071

 Side 1 forced transition at x/c =  1.0000   77
 Side 2  free  transition at x/c =  0.0260   15
 idif Ue xi dudx           1  0.26082587      3.10117006E-03   84.105637    
 Uenew xinew           2  8.54229927E-03  1.01566315E-04

   6   rms: 0.9225E+00   max: -.3070E+01   D at   54  2   RLX: 0.163
       a = -4.000      CL = -0.8388
      Cm =  0.0320     CD =  0.02018   =>   CDf =  0.00389    CDp =  0.01629

 Side 1 forced transition at x/c =  1.0000   76
 Side 2  free  transition at x/c =  0.0263   16

   7   rms: 0.8900E+00   max: -.2471E+01   D at   59  2   RLX: 0.202
       a = -4.000      CL = -0.7913
      Cm =  0.0208     CD =  0.01800   =>   CDf =  0.00423    CDp =  0.01377

 MRCHDU: Convergence failed at  29  side 2    Res =  0.3558E+01
 MRCHDU: Convergence failed at  30  side 2    Res =  0.8899E+00
 MRCHDU: Convergence failed at  31  side 2    Res =  0.2428E+01
 MRCHDU: Convergence failed at  34  side 2    Res =  0.3854E+00
 MRCHDU: Convergence failed at  35  side 2    Res =  0.4024E+00
 MRCHDU: Convergence failed at  36  side 2    Res =  0.1380E+02
 Side 1 forced transition at x/c =  1.0000   76
 Side 2  free  transition at x/c =  0.0279   16

   8   rms: 0.1486E+01   max: -.1312E+02   C at   76  1   RLX: 0.038
       a = -4.000      CL = -0.8696
      Cm =  0.0177     CD =  0.02208   =>   CDf =  0.00643    CDp =  0.01565

 MRCHDU: Convergence failed at  36  side 2    Res =  0.4561E+00
 MRCHDU: Convergence failed at  37  side 2    Res =  0.5070E+00
 MRCHDU: Convergence failed at  38  side 2    Res =  0.7928E+00
 MRCHDU: Convergence failed at  39  side 2    Res =  0.7328E+00
 MRCHDU: Convergence failed at  40  side 2    Res =  0.6889E+00
 MRCHDU: Convergence failed at  41  side 2    Res =  0.8046E+00
 MRCHDU: Convergence failed at  42  side 2    Res =  0.8333E+00
 MRCHDU: Convergence failed at  43  side 2    Res =  0.8850E+00
 MRCHDU: Convergence failed at  44  side 2    Res =  0.9540E+00
 MRCHDU: Convergence failed at  45  side 2    Res =  0.1168E+01
 MRCHDU: Convergence failed at  46  side 2    Res =  0.1248E+01
 MRCHDU: Convergence failed at  47  side 2    Res =  0.1358E+01
 MRCHDU: Convergence failed at  48  side 2    Res =  0.1424E+01
 MRCHDU: Convergence failed at  49  side 2    Res =  0.1466E+01
 MRCHDU: Convergence failed at  50  side 2    Res =  0.1482E+01
 MRCHDU: Convergence failed at  51  side 2    Res =  0.1472E+01
 MRCHDU: Convergence failed at  52  side 2    Res =  0.1408E+01
 MRCHDU: Convergence failed at  53  side 2    Res =  0.1328E+01
 MRCHDU: Convergence failed at  54  side 2    Res =  0.3610E+01
 MRCHDU: Convergence failed at  55  side 2    Res =  0.3032E+01
 MRCHDU: Convergence failed at  56  side 2    Res =  0.2803E+01
 MRCHDU: Convergence failed at  57  side 2    Res =  0.2760E+01
 MRCHDU: Convergence failed at  58  side 2    Res =  0.2860E+01
 MRCHDU: Convergence failed at  59  side 2    Res =  0.3875E+01
 MRCHDU: Convergence failed at  60  side 2    Res =  0.2908E+01
 MRCHDU: Convergence failed at  61  side 2    Res =  0.3209E+01
 MRCHDU: Convergence failed at  62  side 2    Res =  0.3689E+01
 MRCHDU: Convergence failed at  63  side 2    Res =  0.4483E+01
 MRCHDU: Convergence failed at  64  side 2    Res =  0.6260E+01
 MRCHDU: Convergence failed at  65  side 2    Res =  0.1626E+02
 MRCHDU: Convergence failed at  66  side 2    Res =  0.2312E+02
 MRCHDU: Convergence failed at  67  side 2    Res =  0.1187E+02
 MRCHDU: Convergence failed at  68  side 2    Res =  0.8334E+01
 MRCHDU: Convergence failed at  69  side 2    Res =  0.5558E+01
 MRCHDU: Convergence failed at  70  side 2    Res =  0.3501E+01
 MRCHDU: Convergence failed at  71  side 2    Res =  0.1991E+01
 MRCHDU: Convergence failed at  72  side 2    Res =  0.2436E+01
 MRCHDU: Convergence failed at  73  side 2    Res =  0.3412E+01
 MRCHDU: Convergence failed at  74  side 2    Res =  0.5203E+01
 MRCHDU: Convergence failed at  75  side 2    Res =  0.1102E+02
 MRCHDU: Convergence failed at  76  side 2    Res =  0.2657E+02
 MRCHDU: Convergence failed at  77  side 2    Res =  0.4406E+01
 MRCHDU: Convergence failed at  78  side 2    Res =  0.3465E+01
 MRCHDU: Convergence failed at  79  side 2    Res =  0.6671E+01
 MRCHDU: Convergence failed at  80  side 2    Res =  0.4437E+01
 MRCHDU: Convergence failed at  81  side 2    Res =  0.3392E+01
 MRCHDU: Convergence failed at  82  side 2    Res =  0.2789E+01
 MRCHDU: Convergence failed at  83  side 2    Res =  0.2454E+01
 MRCHDU: Convergence failed at  84  side 2    Res =  0.2242E+01
 MRCHDU: Convergence failed at  85  side 2    Res =  0.2128E+01
 Side 1 forced transition at x/c =  1.0000   77
 Side 2  free  transition at x/c =  0.0271   15

   9   rms: 0.9445E+00   max: 0.8861E+00   D at   99  2   RLX: 0.171
       a = -4.000      CL = -1.7826
      Cm =  0.4487     CD =  0.00661   =>   CDf =  0.01626    CDp = -0.00965

 Side 1 forced transition at x/c =  1.0000   77
 Side 2  free  transition at x/c =  0.0282   15

  10   rms: 0.7987E+00   max: 0.8726E+00   D at  100  2   RLX: 0.361
       a = -4.000      CL = -1.2189
      Cm =  0.2592     CD =  0.00925   =>   CDf =  0.01272    CDp = -0.00346

 Side 1 forced transition at x/c =  1.0000   77
 Side 2  free  transition at x/c =  0.0306   15

  11   rms: 0.5676E+00   max: 0.7528E+00   D at  105  2   RLX: 0.532
       a = -4.000      CL = -0.7562
      Cm =  0.1069     CD =  0.01393   =>   CDf =  0.01028    CDp =  0.00365

 Side 1 forced transition at x/c =  1.0000   77
 Side 2  free  transition at x/c =  0.0363   16

  12   rms: 0.5878E+00   max: -.4137E+01   T at   16  2   RLX: 0.121
       a = -4.000      CL = -0.7098
      Cm =  0.0922     CD =  0.01287   =>   CDf =  0.00852    CDp =  0.00435

 Side 1 forced transition at x/c =  1.0000   77
 Side 2  free  transition at x/c =  0.0422   16

  13   rms: 0.4176E+00   max: -.1680E+01   T at   16  2   RLX: 0.298
       a = -4.000      CL = -0.6154
      Cm =  0.0611     CD =  0.01692   =>   CDf =  0.00796    CDp =  0.00896

 TRCHEK2: N2 convergence failed.
 x:  0.09940  0.11069  0.11347  N:  8.858  9.000  9.024  Nx:  15.588   dN:-0.332E+00
 TRCHEK2: N2 convergence failed.
 x:  0.09940  0.11100  0.11347  N:  8.858  9.000  9.041  Nx:  14.984   dN: 0.147E+00
 TRCHEK2: N2 convergence failed.
 x:  0.09940  0.11096  0.11347  N:  8.858  9.000  9.020  Nx:  15.383   dN:-0.371E+00
 TRCHEK2: N2 convergence failed.
 x:  0.09940  0.11099  0.11347  N:  8.858  9.000  9.041  Nx:  15.040   dN: 0.395E+00
 TRCHEK2: N2 convergence failed.
 x:  0.09940  0.11227  0.11347  N:  8.858  9.000  9.022  Nx:  14.833   dN: 0.891E-01
 TRCHEK2: N2 convergence failed.
 x:  0.09940  0.11227  0.11347  N:  8.858  9.000  9.005  Nx:  15.320   dN:-0.343E+00
 TRCHEK2: N2 convergence failed.
 x:  0.09940  0.11231  0.11347  N:  8.858  9.000  9.021  Nx:  14.881   dN: 0.124E+00
 TRCHEK2: N2 convergence failed.
 x:  0.09940  0.11277  0.11347  N:  8.858  9.000  9.000  Nx:  15.357   dN:-0.133E+00
 TRCHEK2: N2 convergence failed.
 x:  0.09940  0.11229  0.11347  N:  8.858  9.000  9.005  Nx:  15.043   dN:-0.400E+00
 TRCHEK2: N2 convergence failed.
 x:  0.09940  0.11232  0.11347  N:  8.858  9.000  9.021  Nx:  14.811   dN: 0.547E-01
 TRCHEK2: N2 convergence failed.
 x:  0.09940  0.11085  0.11347  N:  8.858  9.000  9.022  Nx:  17.331   dN:-0.144E-01
 TRCHEK2: N2 convergence failed.
 x:  0.09940  0.11228  0.11347  N:  8.858  9.000  9.022  Nx:  14.825   dN: 0.544E-01
 TRCHEK2: N2 convergence failed.
 x:  0.09940  0.11228  0.11347  N:  8.858  9.000  9.022  Nx:  14.800   dN: 0.540E-01
 TRCHEK2: N2 convergence failed.
 x:  0.09940  0.11088  0.11347  N:  8.858  9.000  9.021  Nx:  16.452   dN:-0.182E-01
 TRCHEK2: N2 convergence failed.
 x:  0.09940  0.11088  0.11347  N:  8.858  9.000  9.021  Nx:  15.866   dN:-0.169E-01
 TRCHEK2: N2 convergence failed.
 x:  0.09940  0.11089  0.11347  N:  8.858  9.000  9.021  Nx:  16.029   dN:-0.189E-01
 TRCHEK2: N2 convergence failed.
 x:  0.09940  0.11088  0.11347  N:  8.858  9.000  9.021  Nx:  15.591   dN:-0.197E-01
 TRCHEK2: N2 convergence failed.
 x:  0.09940  0.11089  0.11347  N:  8.858  9.000  9.021  Nx:  15.744   dN:-0.206E-01
 TRCHEK2: N2 convergence failed.
 x:  0.09940  0.11088  0.11347  N:  8.858  9.000  9.021  Nx:  15.732   dN:-0.173E-01
 TRCHEK2: N2 convergence failed.
 x:  0.09940  0.11089  0.11347  N:  8.858  9.000  9.021  Nx:  15.912   dN:-0.184E-01
 TRCHEK2: N2 convergence failed.
 x:  0.09940  0.11087  0.11347  N:  8.858  9.000  9.021  Nx:  15.854   dN:-0.158E-01
 TRCHEK2: N2 convergence failed.
 x:  0.09940  0.11087  0.11347  N:  8.858  9.000  9.021  Nx:  16.130   dN:-0.167E-01
 TRCHEK2: N2 convergence failed.
 x:  0.09940  0.11087  0.11347  N:  8.858  9.000  9.021  Nx:  15.981   dN:-0.147E-01
 TRCHEK2: N2 convergence failed.
 x:  0.09940  0.11088  0.11347  N:  8.858  9.000  9.021  Nx:  16.223   dN:-0.160E-01
 MRCHDU: Convergence failed at  20  side 2    Res =  0.8810E+02
 MRCHDU: Convergence failed at  21  side 2    Res =  0.4905E+02
 MRCHDU: Convergence failed at  22  side 2    Res =  0.2886E+02
 MRCHDU: Convergence failed at  23  side 2    Res =  0.3948E+02
 MRCHDU: Convergence failed at  24  side 2    Res =  0.4316E+02
 MRCHDU: Convergence failed at  25  side 2    Res =  0.7412E+02
 MRCHDU: Convergence failed at  26  side 2    Res =  0.8626E+02
 MRCHDU: Convergence failed at  27  side 2    Res =  0.2212E+03
 MRCHDU: Convergence failed at  28  side 2    Res =  0.8051E+02
 MRCHDU: Convergence failed at  29  side 2    Res =  0.7711E+02
 MRCHDU: Convergence failed at  30  side 2    Res =  0.7517E+02
 MRCHDU: Convergence failed at  31  side 2    Res =  0.7316E+02
 MRCHDU: Convergence failed at  32  side 2    Res =  0.7126E+02
 MRCHDU: Convergence failed at  33  side 2    Res =  0.7626E+02
 MRCHDU: Convergence failed at  34  side 2    Res =  0.7909E+02
 MRCHDU: Convergence failed at  35  side 2    Res =  0.8144E+02
 MRCHDU: Convergence failed at  36  side 2    Res =  0.8347E+02
 MRCHDU: Convergence failed at  37  side 2    Res =  0.8533E+02
 MRCHDU: Convergence failed at  38  side 2    Res =  0.8703E+02
 MRCHDU: Convergence failed at  39  side 2    Res =  0.8859E+02
 MRCHDU: Convergence failed at  40  side 2    Res =  0.9009E+02
 MRCHDU: Convergence failed at  41  side 2    Res =  0.9148E+02
 MRCHDU: Convergence failed at  42  side 2    Res =  0.9278E+02
 MRCHDU: Convergence failed at  43  side 2    Res =  0.9400E+02
 MRCHDU: Convergence failed at  44  side 2    Res =  0.9509E+02
 MRCHDU: Convergence failed at  45  side 2    Res =  0.9607E+02
 MRCHDU: Convergence failed at  46  side 2    Res =  0.9692E+02
 MRCHDU: Convergence failed at  47  side 2    Res =  0.9761E+02
 MRCHDU: Convergence failed at  48  side 2    Res =  0.9817E+02
 MRCHDU: Convergence failed at  49  side 2    Res =  0.9861E+02
 MRCHDU: Convergence failed at  50  side 2    Res =  0.9894E+02
 MRCHDU: Convergence failed at  51  side 2    Res =  0.9916E+02
 MRCHDU: Convergence failed at  52  side 2    Res =  0.9928E+02
 MRCHDU: Convergence failed at  53  side 2    Res =  0.9935E+02
 MRCHDU: Convergence failed at  54  side 2    Res =  0.9930E+02
 MRCHDU: Convergence failed at  55  side 2    Res =  0.9921E+02
 MRCHDU: Convergence failed at  56  side 2    Res =  0.9903E+02
 MRCHDU: Convergence failed at  57  side 2    Res =  0.9882E+02
 MRCHDU: Convergence failed at  58  side 2    Res =  0.9848E+02
 MRCHDU: Convergence failed at  59  side 2    Res =  0.9809E+02
 MRCHDU: Convergence failed at  60  side 2    Res =  0.9766E+02
 MRCHDU: Convergence failed at  61  side 2    Res =  0.9708E+02
 MRCHDU: Convergence failed at  62  side 2    Res =  0.9652E+02
 MRCHDU: Convergence failed at  63  side 2    Res =  0.9588E+02
 MRCHDU: Convergence failed at  64  side 2    Res =  0.9515E+02
 MRCHDU: Convergence failed at  65  side 2    Res =  0.9439E+02
 MRCHDU: Convergence failed at  66  side 2    Res =  0.9414E+02
 MRCHDU: Convergence failed at  67  side 2    Res =  0.9420E+02
 MRCHDU: Convergence failed at  68  side 2    Res =  0.9396E+02
 MRCHDU: Convergence failed at  69  side 2    Res =  0.9362E+02
 MRCHDU: Convergence failed at  70  side 2    Res =  0.8731E+02
 MRCHDU: Convergence failed at  71  side 2    Res =  0.8977E+02
 MRCHDU: Convergence failed at  72  side 2    Res =  0.9266E+02
 MRCHDU: Convergence failed at  73  side 2    Res =  0.9611E+02
 MRCHDU: Convergence failed at  74  side 2    Res =  0.1004E+03
 MRCHDU: Convergence failed at  75  side 2    Res =  0.1054E+03
 MRCHDU: Convergence failed at  76  side 2    Res =  0.1116E+03
 MRCHDU: Convergence failed at  77  side 2    Res =  0.1186E+03
 MRCHDU: Convergence failed at  78  side 2    Res =  0.1246E+03
 MRCHDU: Convergence failed at  79  side 2    Res =  0.1347E+03
 MRCHDU: Convergence failed at  80  side 2    Res =  0.1447E+03
 MRCHDU: Convergence failed at  81  side 2    Res =  0.1513E+03
 MRCHDU: Convergence failed at  82  side 2    Res =  0.1524E+03
 MRCHDU: Convergence failed at  83  side 2    Res =  0.1493E+03
 MRCHDU: Convergence failed at  84  side 2    Res =  0.1428E+03
 MRCHDU: Convergence failed at  85  side 2    Res =  0.1416E+03
 Side 1 forced transition at x/c =  1.0000   77
 Side 2  free  transition at x/c =  0.0931   20

  14   rms: 0.2690E+01   max: 0.1738E+02   D at   88  2   RLX: 0.086
       a = -4.000      CL = -1.7542
      Cm =  0.4193     CD =  0.00501   =>   CDf =  0.00187    CDp =  0.00314

 Side 1 forced transition at x/c =  1.0000   77
 Side 2  free  transition at x/c =  0.0947   20

  15   rms: 0.8043E+01   max: 0.1822E+03   T at   20  2   RLX: 0.008
       a = -4.000      CL = -1.3303
      Cm =  0.2692     CD =  0.07600   =>   CDf =  0.00239    CDp =  0.07361

 Side 1 forced transition at x/c =  1.0000   77
 Side 2  free  transition at x/c =  0.0839   19

  16   rms: 0.2903E+01   max: 0.5417E+02   T at   19  2   RLX: 0.023
       a = -4.000      CL = -1.4272
      Cm =  0.2923     CD =  0.07806   =>   CDf =  0.00239    CDp =  0.07566

 Side 1 forced transition at x/c =  1.0000   77
 Side 2  free  transition at x/c =  0.1055   21

  17   rms: 0.5540E+01   max: 0.1000E+03   T at   21  2   RLX: 0.015
       a = -4.000      CL = -1.6460
      Cm =  0.3403     CD =  0.07712   =>   CDf =  0.00237    CDp =  0.07476

 Side 1 forced transition at x/c =  1.0000   77
 Side 2  free  transition at x/c =  0.0990   20

  18   rms: 0.2118E+02   max: 0.2212E+03   T at   22  2   RLX: 0.003
       a = -4.000      CL = -1.7226
      Cm =  0.3586     CD =  0.08143   =>   CDf =  0.00235    CDp =  0.07908

 Side 1 forced transition at x/c =  1.0000   77
 Side 2  free  transition at x/c =  0.0940   20

  19   rms: 0.2180E+01   max: -.2958E+02   T at   20  2   RLX: 0.017
       a = -4.000      CL = -1.8726
      Cm =  0.4009     CD =  0.08248   =>   CDf =  0.00234    CDp =  0.08015

 Side 1 forced transition at x/c =  1.0000   77
 Side 2  free  transition at x/c =  0.0906   20

  20   rms: 0.1234E+01   max: -.1264E+02   C at   77  1   RLX: 0.040
       a = -4.000      CL = -1.9336
      Cm =  0.4167     CD =  0.08696   =>   CDf =  0.00237    CDp =  0.08459

 Side 1 forced transition at x/c =  1.0000   77
 Side 2  free  transition at x/c =  0.0585   17
 idif Ue xi dudx           1  0.27231809      3.38637829E-03   80.415733    
 Uenew xinew           2  3.11027579E-02  3.86774540E-04

  21   rms: 0.6345E+01   max: 0.5275E+02   T at   20  2   RLX: 0.028
       a = -4.000      CL = -1.8688
      Cm =  0.3972     CD =  0.12123   =>   CDf =  0.00236    CDp =  0.11887

 Side 1 forced transition at x/c =  1.0000   76
 Side 2  free  transition at x/c =  0.0583   18

  22   rms: 0.2759E+02   max: 0.1638E+03   T at   21  2   RLX: 0.009
       a = -4.000      CL = -1.9113
      Cm =  0.3786     CD =  0.10687   =>   CDf =  0.00245    CDp =  0.10441

 Side 1 forced transition at x/c =  1.0000   76
 Side 2  free  transition at x/c =  0.0571   18

  23   rms: 0.7053E+00   max: -.4118E+01   C at   76  1   RLX: 0.121
       a = -4.000      CL = -1.7661
      Cm =  0.3169     CD =  0.06786   =>   CDf =  0.00235    CDp =  0.06550

 Side 1 forced transition at x/c =  1.0000   76
 Side 2  free  transition at x/c =  0.0511   18

  24   rms: 0.6211E+00   max: 0.3718E+01   T at   18  2   RLX: 0.236
       a = -4.000      CL = -1.5010
      Cm =  0.2443     CD =  0.06595   =>   CDf =  0.00241    CDp =  0.06354

 Side 1 forced transition at x/c =  1.0000   76
 Side 2  free  transition at x/c =  0.0428   17

  25   rms: 0.6058E+00   max: -.1277E+01   C at  101  2   RLX: 0.391
       a = -4.000      CL = -1.1340
      Cm =  0.1552     CD =  0.06087   =>   CDf =  0.00252    CDp =  0.05835

 Side 1 forced transition at x/c =  1.0000   76
 Side 2  free  transition at x/c =  0.0414   17

  26   rms: 0.4581E+00   max: -.1076E+01   C at  104  2   RLX: 0.465
       a = -4.000      CL = -0.8035
      Cm =  0.0566     CD =  0.04751   =>   CDf =  0.00277    CDp =  0.04474

 Side 1 forced transition at x/c =  1.0000   77
 Side 2  free  transition at x/c =  0.0412   16
 idif Ue xi dudx           1  0.28620040      3.75944376E-03   76.128387    
 Uenew xinew           2  5.78453951E-02  7.59840012E-04

  27   rms: 0.9571E+00   max: 0.4096E+01   D at    2  1   RLX: 0.187
       a = -4.000      CL = -0.7246
      Cm =  0.0120     CD =  0.04647   =>   CDf =  0.00245    CDp =  0.04402

 MRCHDU: Convergence failed at  34  side 2    Res =  0.1794E+02
 MRCHDU: Convergence failed at  35  side 2    Res =  0.2439E+03
 MRCHDU: Convergence failed at  36  side 2    Res =  0.4372E+02
 MRCHDU: Convergence failed at  37  side 2    Res =  0.5988E+02
 MRCHDU: Convergence failed at  38  side 2    Res =  0.6501E+02
 MRCHDU: Convergence failed at  39  side 2    Res =  0.1280E+02
 MRCHDU: Convergence failed at  40  side 2    Res =  0.7445E+01
 MRCHDU: Convergence failed at  41  side 2    Res =  0.5093E+01
 MRCHDU: Convergence failed at  42  side 2    Res =  0.3702E+01
 MRCHDU: Convergence failed at  43  side 2    Res =  0.2879E+01
 MRCHDU: Convergence failed at  44  side 2    Res =  0.2331E+01
 MRCHDU: Convergence failed at  45  side 2    Res =  0.1995E+01
 MRCHDU: Convergence failed at  46  side 2    Res =  0.1895E+01
 MRCHDU: Convergence failed at  47  side 2    Res =  0.2178E+01
 MRCHDU: Convergence failed at  48  side 2    Res =  0.2533E+01
 MRCHDU: Convergence failed at  49  side 2    Res =  0.3083E+01
 MRCHDU: Convergence failed at  50  side 2    Res =  0.4052E+01
 MRCHDU: Convergence failed at  51  side 2    Res =  0.5887E+01
 MRCHDU: Convergence failed at  52  side 2    Res =  0.9411E+01
 MRCHDU: Convergence failed at  53  side 2    Res =  0.1550E+03
 MRCHDU: Convergence failed at  54  side 2    Res =  0.1095E+02
 MRCHDU: Convergence failed at  55  side 2    Res =  0.5114E+01
 MRCHDU: Convergence failed at  56  side 2    Res =  0.3391E+01
 MRCHDU: Convergence failed at  57  side 2    Res =  0.2535E+01
 MRCHDU: Convergence failed at  58  side 2    Res =  0.1971E+01
 MRCHDU: Convergence failed at  59  side 2    Res =  0.2190E+01
 MRCHDU: Convergence failed at  60  side 2    Res =  0.2450E+01
 MRCHDU: Convergence failed at  61  side 2    Res =  0.2835E+01
 MRCHDU: Convergence failed at  62  side 2    Res =  0.3370E+01
 MRCHDU: Convergence failed at  63  side 2    Res =  0.4686E+01
 MRCHDU: Convergence failed at  64  side 2    Res =  0.7893E+01
 MRCHDU: Convergence failed at  65  side 2    Res =  0.4798E+02
 MRCHDU: Convergence failed at  66  side 2    Res =  0.1324E+02
 MRCHDU: Convergence failed at  67  side 2    Res =  0.5564E+01
 MRCHDU: Convergence failed at  68  side 2    Res =  0.3624E+01
 MRCHDU: Convergence failed at  69  side 2    Res =  0.2712E+01
 MRCHDU: Convergence failed at  70  side 2    Res =  0.2105E+01
 MRCHDU: Convergence failed at  71  side 2    Res =  0.1809E+01
 MRCHDU: Convergence failed at  72  side 2    Res =  0.1992E+01
 MRCHDU: Convergence failed at  73  side 2    Res =  0.2351E+01
 MRCHDU: Convergence failed at  74  side 2    Res =  0.2902E+01
 MRCHDU: Convergence failed at  75  side 2    Res =  0.4385E+01
 MRCHDU: Convergence failed at  76  side 2    Res =  0.9135E+01
 MRCHDU: Convergence failed at  77  side 2    Res =  0.8813E+01
 MRCHDU: Convergence failed at  78  side 2    Res =  0.2937E+01
 MRCHDU: Convergence failed at  79  side 2    Res =  0.1895E+01
 MRCHDU: Convergence failed at  80  side 2    Res =  0.8398E+00
 MRCHDU: Convergence failed at  81  side 2    Res =  0.8644E+00
 MRCHDU: Convergence failed at  85  side 2    Res =  0.4198E-02
 Side 1 forced transition at x/c =  1.0000   76
 Side 2  free  transition at x/c =  0.0367   17

  28   rms: 0.5346E+00   max: -.3303E+01   T at   17  2   RLX: 0.151
       a = -4.000      CL = -0.9600
      Cm =  0.1219     CD =  0.04235   =>   CDf =  0.00269    CDp =  0.03966

 Side 1 forced transition at x/c =  1.0000   76
 Side 2  free  transition at x/c =  0.0378   17

  29   rms: 0.3396E+00   max: -.7036E+00   D at   87  2   RLX: 0.509
       a = -4.000      CL = -0.6931
      Cm =  0.0563     CD =  0.03585   =>   CDf =  0.00493    CDp =  0.03092

 Side 1 forced transition at x/c =  1.0000   77
 Side 2  free  transition at x/c =  0.0384   16

  30   rms: 0.2489E+00   max: 0.1020E+01   C at   77  1   RLX: 0.651
       a = -4.000      CL = -0.5491
      Cm =  0.0232     CD =  0.03457   =>   CDf =  0.00442    CDp =  0.03015

 Side 1 forced transition at x/c =  1.0000   77
 Side 2  free  transition at x/c =  0.0421   16

  31   rms: 0.1849E+00   max: 0.2467E+01   C at   77  1   RLX: 0.608
       a = -4.000      CL = -0.5382
      Cm =  0.0219     CD =  0.03620   =>   CDf =  0.00459    CDp =  0.03161

 Side 1 forced transition at x/c =  1.0000   77
 Side 2  free  transition at x/c =  0.0428   16

  32   rms: 0.1414E+00   max: -.1406E+01   T at   16  2   RLX: 0.356
       a = -4.000      CL = -0.4887
      Cm =  0.0132     CD =  0.03341   =>   CDf =  0.00483    CDp =  0.02858

 Side 1 forced transition at x/c =  1.0000   77
 Side 2  free  transition at x/c =  0.0408   16

  33   rms: 0.8955E-01   max: -.6996E+00   C at   77  1   RLX: 0.715
       a = -4.000      CL = -0.4237
      Cm = -0.0012     CD =  0.02758   =>   CDf =  0.00522    CDp =  0.02236

 Side 1 forced transition at x/c =  1.0000   77
 Side 2  free  transition at x/c =  0.0516   17

  34   rms: 0.2176E+00   max: 0.1260E+01   D at   21  2
       a = -4.000      CL = -0.3965
      Cm = -0.0079     CD =  0.02424   =>   CDf =  0.00670    CDp =  0.01754

 MRCHDU: Convergence failed at  21  side 2    Res =  0.1839E+01
 MRCHDU: Convergence failed at  22  side 2    Res =  0.3342E+01
 MRCHDU: Convergence failed at  23  side 2    Res =  0.2514E+01
 MRCHDU: Convergence failed at  24  side 2    Res =  0.2665E+01
 MRCHDU: Convergence failed at  25  side 2    Res =  0.4387E+01
 MRCHDU: Convergence failed at  26  side 2    Res =  0.9435E+01
 MRCHDU: Convergence failed at  27  side 2    Res =  0.4143E+02
 MRCHDU: Convergence failed at  28  side 2    Res =  0.3389E+02
 MRCHDU: Convergence failed at  29  side 2    Res =  0.1158E+02
 MRCHDU: Convergence failed at  30  side 2    Res =  0.9171E+01
 MRCHDU: Convergence failed at  31  side 2    Res =  0.7883E+01
 MRCHDU: Convergence failed at  32  side 2    Res =  0.7382E+01
 MRCHDU: Convergence failed at  33  side 2    Res =  0.7118E+01
 MRCHDU: Convergence failed at  34  side 2    Res =  0.6982E+01
 MRCHDU: Convergence failed at  35  side 2    Res =  0.6900E+01
 MRCHDU: Convergence failed at  36  side 2    Res =  0.6445E+01
 MRCHDU: Convergence failed at  37  side 2    Res =  0.6064E+01
 MRCHDU: Convergence failed at  38  side 2    Res =  0.6037E+01
 MRCHDU: Convergence failed at  39  side 2    Res =  0.6029E+01
 MRCHDU: Convergence failed at  40  side 2    Res =  0.5993E+01
 MRCHDU: Convergence failed at  41  side 2    Res =  0.5956E+01
 MRCHDU: Convergence failed at  42  side 2    Res =  0.5914E+01
 MRCHDU: Convergence failed at  43  side 2    Res =  0.5875E+01
 MRCHDU: Convergence failed at  44  side 2    Res =  0.5844E+01
 MRCHDU: Convergence failed at  45  side 2    Res =  0.5822E+01
 MRCHDU: Convergence failed at  46  side 2    Res =  0.5809E+01
 MRCHDU: Convergence failed at  47  side 2    Res =  0.5810E+01
 MRCHDU: Convergence failed at  48  side 2    Res =  0.5820E+01
 MRCHDU: Convergence failed at  49  side 2    Res =  0.5841E+01
 MRCHDU: Convergence failed at  50  side 2    Res =  0.5867E+01
 MRCHDU: Convergence failed at  51  side 2    Res =  0.5902E+01
 MRCHDU: Convergence failed at  52  side 2    Res =  0.5945E+01
 MRCHDU: Convergence failed at  53  side 2    Res =  0.5989E+01
 MRCHDU: Convergence failed at  54  side 2    Res =  0.6043E+01
 MRCHDU: Convergence failed at  55  side 2    Res =  0.6098E+01
 MRCHDU: Convergence failed at  56  side 2    Res =  0.6163E+01
 MRCHDU: Convergence failed at  57  side 2    Res =  0.6231E+01
 MRCHDU: Convergence failed at  58  side 2    Res =  0.6316E+01
 MRCHDU: Convergence failed at  59  side 2    Res =  0.6408E+01
 MRCHDU: Convergence failed at  60  side 2    Res =  0.6509E+01
 MRCHDU: Convergence failed at  61  side 2    Res =  0.6634E+01
 MRCHDU: Convergence failed at  62  side 2    Res =  0.6762E+01
 MRCHDU: Convergence failed at  63  side 2    Res =  0.7070E+01
 MRCHDU: Convergence failed at  64  side 2    Res =  0.7244E+01
 MRCHDU: Convergence failed at  65  side 2    Res =  0.7435E+01
 MRCHDU: Convergence failed at  66  side 2    Res =  0.7645E+01
 MRCHDU: Convergence failed at  67  side 2    Res =  0.8038E+01
 MRCHDU: Convergence failed at  68  side 2    Res =  0.8324E+01
 MRCHDU: Convergence failed at  69  side 2    Res =  0.8783E+01
 MRCHDU: Convergence failed at  70  side 2    Res =  0.9275E+01
 MRCHDU: Convergence failed at  71  side 2    Res =  0.9821E+01
 MRCHDU: Convergence failed at  72  side 2    Res =  0.1073E+02
 MRCHDU: Convergence failed at  73  side 2    Res =  0.1169E+02
 MRCHDU: Convergence failed at  74  side 2    Res =  0.1316E+02
 MRCHDU: Convergence failed at  75  side 2    Res =  0.1508E+02
 MRCHDU: Convergence failed at  76  side 2    Res =  0.1771E+02
 MRCHDU: Convergence failed at  77  side 2    Res =  0.2120E+02
 MRCHDU: Convergence failed at  78  side 2    Res =  0.2646E+02
 MRCHDU: Convergence failed at  79  side 2    Res =  0.3308E+02
 MRCHDU: Convergence failed at  80  side 2    Res =  0.3157E+02
 MRCHDU: Convergence failed at  81  side 2    Res =  0.1330E+02
 MRCHDU: Convergence failed at  82  side 2    Res =  0.3503E+02
 MRCHDU: Convergence failed at  83  side 2    Res =  0.3557E+02
 MRCHDU: Convergence failed at  84  side 2    Res =  0.2683E+02
 MRCHDU: Convergence failed at  85  side 2    Res =  0.1450E+02
 Side 1 forced transition at x/c =  1.0000   77
 Side 2  free  transition at x/c =  0.0512   17

  35   rms: 0.3814E+00   max: -.1633E+01   C at   77  1   RLX: 0.306
       a = -4.000      CL = -0.8050
      Cm =  0.1447     CD =  0.01944   =>   CDf =  0.00240    CDp =  0.01704

 Side 1 forced transition at x/c =  1.0000   77
 Side 2  free  transition at x/c =  0.0515   17

  36   rms: 0.3421E+00   max: 0.5596E+00   D at   88  2
       a = -4.000      CL = -0.4094
      Cm = -0.0072     CD =  0.02017   =>   CDf =  0.00883    CDp =  0.01133

 Side 1 forced transition at x/c =  1.0000   77
 Side 2  free  transition at x/c =  0.0499   17

  37   rms: 0.3646E-01   max: -.1530E+00   D at   26  2
       a = -4.000      CL = -0.3999
      Cm = -0.0068     CD =  0.02491   =>   CDf =  0.00532    CDp =  0.01959

 Side 1 forced transition at x/c =  1.0000   77
 Side 2  free  transition at x/c =  0.0507   17

  38   rms: 0.4667E-02   max: -.2669E-01   D at   26  2
       a = -4.000      CL = -0.4001
      Cm = -0.0067     CD =  0.02494   =>   CDf =  0.00547    CDp =  0.01947

 Side 1 forced transition at x/c =  1.0000   77
 Side 2  free  transition at x/c =  0.0508   17

  39   rms: 0.3996E-04   max: -.4227E-03   D at   26  2
       a = -4.000      CL = -0.4001
      Cm = -0.0067     CD =  0.02494   =>   CDf =  0.00550    CDp =  0.01945
 plradd ia,ip,cpol            1           0  1.06527621E-03

 Point added to stored polar  1
 Point written to save file  oa206_Re300k.base.pol                           
 Dump file unspecified or not available
 Calculating wake trajectory ...
 Calculating source influence matrix ...

 Solving BL system ...

 Side 1 forced transition at x/c =  1.0000   77
 Side 2  free  transition at x/c =  0.0507   17

   1   rms: 0.1143E+00   max: -.1001E+01   T at   17  2   RLX: 0.500
       a = -3.500      CL = -0.3724
      Cm = -0.0069     CD =  0.02308   =>   CDf =  0.00553    CDp =  0.01755

 Side 1 forced transition at x/c =  1.0000   78
 Side 2  free  transition at x/c =  0.0555   16

   2   rms: 0.2003E+00   max: -.3149E+01   T at   16  2   RLX: 0.159
       a = -3.500      CL = -0.3668
      Cm = -0.0067     CD =  0.02643   =>   CDf =  0.00545    CDp =  0.02099

 Side 1 forced transition at x/c =  1.0000   78
 Side 2  free  transition at x/c =  0.0574   16

   3   rms: 0.1007E+00   max: -.4935E+00   T at   16  2
       a = -3.500      CL = -0.3376
      Cm = -0.0059     CD =  0.02472   =>   CDf =  0.00539    CDp =  0.01933

 Side 1 forced transition at x/c =  1.0000   78
 Side 2  free  transition at x/c =  0.0552   16

   4   rms: 0.2064E+00   max: 0.1055E+01   D at   17  2   RLX: 0.865
       a = -3.500      CL = -0.3405
      Cm = -0.0065     CD =  0.02344   =>   CDf =  0.00616    CDp =  0.01728

 Side 1 forced transition at x/c =  1.0000   78
 Side 2  free  transition at x/c =  0.0637   17

   5   rms: 0.1590E+00   max: 0.1014E+01   D at   20  2
       a = -3.500      CL = -0.3434
      Cm = -0.0072     CD =  0.02052   =>   CDf =  0.00682    CDp =  0.01370

 MRCHDU: Convergence failed at  20  side 2    Res =  0.1737E+01
 MRCHDU: Convergence failed at  21  side 2    Res =  0.2922E+01
 MRCHDU: Convergence failed at  22  side 2    Res =  0.2041E+01
 MRCHDU: Convergence failed at  23  side 2    Res =  0.3872E+01
 MRCHDU: Convergence failed at  24  side 2    Res =  0.1118E+02
 MRCHDU: Convergence failed at  25  side 2    Res =  0.2915E+02
 MRCHDU: Convergence failed at  26  side 2    Res =  0.9293E+01
 MRCHDU: Convergence failed at  27  side 2    Res =  0.6394E+01
 MRCHDU: Convergence failed at  28  side 2    Res =  0.5335E+01
 MRCHDU: Convergence failed at  29  side 2    Res =  0.5020E+01
 MRCHDU: Convergence failed at  30  side 2    Res =  0.4823E+01
 MRCHDU: Convergence failed at  31  side 2    Res =  0.4799E+01
 MRCHDU: Convergence failed at  32  side 2    Res =  0.4838E+01
 MRCHDU: Convergence failed at  33  side 2    Res =  0.4900E+01
 MRCHDU: Convergence failed at  34  side 2    Res =  0.4630E+01
 MRCHDU: Convergence failed at  35  side 2    Res =  0.4592E+01
 MRCHDU: Convergence failed at  36  side 2    Res =  0.4640E+01
 MRCHDU: Convergence failed at  37  side 2    Res =  0.4682E+01
 MRCHDU: Convergence failed at  38  side 2    Res =  0.4718E+01
 MRCHDU: Convergence failed at  39  side 2    Res =  0.3259E+01
 MRCHDU: Convergence failed at  40  side 2    Res =  0.3395E+01
 MRCHDU: Convergence failed at  41  side 2    Res =  0.3526E+01
 MRCHDU: Convergence failed at  42  side 2    Res =  0.3653E+01
 MRCHDU: Convergence failed at  43  side 2    Res =  0.3773E+01
 MRCHDU: Convergence failed at  44  side 2    Res =  0.3887E+01
 MRCHDU: Convergence failed at  45  side 2    Res =  0.3994E+01
 MRCHDU: Convergence failed at  46  side 2    Res =  0.4094E+01
 MRCHDU: Convergence failed at  47  side 2    Res =  0.4185E+01
 MRCHDU: Convergence failed at  48  side 2    Res =  0.4270E+01
 MRCHDU: Convergence failed at  49  side 2    Res =  0.4347E+01
 MRCHDU: Convergence failed at  50  side 2    Res =  0.4416E+01
 MRCHDU: Convergence failed at  51  side 2    Res =  0.4478E+01
 MRCHDU: Convergence failed at  52  side 2    Res =  0.4534E+01
 MRCHDU: Convergence failed at  53  side 2    Res =  0.4582E+01
 MRCHDU: Convergence failed at  54  side 2    Res =  0.4624E+01
 MRCHDU: Convergence failed at  55  side 2    Res =  0.4659E+01
 MRCHDU: Convergence failed at  56  side 2    Res =  0.4498E+01
 MRCHDU: Convergence failed at  57  side 2    Res =  0.4516E+01
 MRCHDU: Convergence failed at  58  side 2    Res =  0.6231E+01
 MRCHDU: Convergence failed at  59  side 2    Res =  0.6343E+01
 MRCHDU: Convergence failed at  60  side 2    Res =  0.6485E+01
 MRCHDU: Convergence failed at  61  side 2    Res =  0.6627E+01
 MRCHDU: Convergence failed at  62  side 2    Res =  0.6786E+01
 MRCHDU: Convergence failed at  63  side 2    Res =  0.6972E+01
 MRCHDU: Convergence failed at  64  side 2    Res =  0.7174E+01
 MRCHDU: Convergence failed at  65  side 2    Res =  0.7397E+01
 MRCHDU: Convergence failed at  66  side 2    Res =  0.7654E+01
 MRCHDU: Convergence failed at  67  side 2    Res =  0.7942E+01
 MRCHDU: Convergence failed at  68  side 2    Res =  0.8298E+01
 MRCHDU: Convergence failed at  69  side 2    Res =  0.8912E+01
 MRCHDU: Convergence failed at  70  side 2    Res =  0.9908E+01
 MRCHDU: Convergence failed at  71  side 2    Res =  0.1072E+02
 MRCHDU: Convergence failed at  72  side 2    Res =  0.1180E+02
 MRCHDU: Convergence failed at  73  side 2    Res =  0.1333E+02
 MRCHDU: Convergence failed at  74  side 2    Res =  0.1570E+02
 MRCHDU: Convergence failed at  75  side 2    Res =  0.1914E+02
 MRCHDU: Convergence failed at  76  side 2    Res =  0.2299E+02
 MRCHDU: Convergence failed at  77  side 2    Res =  0.3027E+02
 MRCHDU: Convergence failed at  78  side 2    Res =  0.4138E+02
 MRCHDU: Convergence failed at  79  side 2    Res =  0.5391E+02
 MRCHDU: Convergence failed at  80  side 2    Res =  0.6692E+02
 MRCHDU: Convergence failed at  81  side 2    Res =  0.6728E+02
 MRCHDU: Convergence failed at  82  side 2    Res =  0.4548E+02
 MRCHDU: Convergence failed at  83  side 2    Res =  0.2943E+02
 MRCHDU: Convergence failed at  84  side 2    Res =  0.2078E+02
 Side 1 forced transition at x/c =  1.0000   78
 Side 2  free  transition at x/c =  0.0661   17

   6   rms: 0.3616E+00   max: -.1684E+01   C at   78  1   RLX: 0.297
       a = -3.500      CL = -0.7251
      Cm =  0.1322     CD =  0.01566   =>   CDf =  0.00239    CDp =  0.01327

 Side 1 forced transition at x/c =  1.0000   78
 Side 2  free  transition at x/c =  0.0653   17

   7   rms: 0.3159E+00   max: 0.4925E+00   T at   87  2
       a = -3.500      CL = -0.3480
      Cm = -0.0077     CD =  0.01746   =>   CDf =  0.00890    CDp =  0.00856

 Side 1 forced transition at x/c =  1.0000   78
 Side 2  free  transition at x/c =  0.0637   17

   8   rms: 0.2772E-01   max: -.1749E+00   D at   24  2
       a = -3.500      CL = -0.3433
      Cm = -0.0072     CD =  0.02102   =>   CDf =  0.00587    CDp =  0.01515

 Side 1 forced transition at x/c =  1.0000   78
 Side 2  free  transition at x/c =  0.0640   17

   9   rms: 0.1931E-02   max: -.2378E-01   D at   24  2
       a = -3.500      CL = -0.3435
      Cm = -0.0071     CD =  0.02106   =>   CDf =  0.00600    CDp =  0.01506

 Side 1 forced transition at x/c =  1.0000   78
 Side 2  free  transition at x/c =  0.0639   17

  10   rms: 0.2654E-04   max: -.4547E-03   D at   24  2
       a = -3.500      CL = -0.3435
      Cm = -0.0071     CD =  0.02106   =>   CDf =  0.00601    CDp =  0.01505
 plradd ia,ip,cpol            2           0  1.06527621E-03

 Point added to stored polar  1
 Point written to save file  oa206_Re300k.base.pol                           
 Dump file unspecified or not available
 Calculating wake trajectory ...
 Calculating source influence matrix ...

 Solving BL system ...

 Side 1 forced transition at x/c =  1.0000   78
 Side 2  free  transition at x/c =  0.0639   17

   1   rms: 0.1228E+00   max: -.1167E+01   T at   17  2   RLX: 0.429
       a = -3.000      CL = -0.3191
      Cm = -0.0074     CD =  0.01965   =>   CDf =  0.00601    CDp =  0.01363

 Side 1 forced transition at x/c =  1.0000   78
 Side 2  free  transition at x/c =  0.0685   17

   2   rms: 0.1247E+00   max: -.2430E+01   T at   17  2   RLX: 0.206
       a = -3.000      CL = -0.3125
      Cm = -0.0073     CD =  0.02190   =>   CDf =  0.00592    CDp =  0.01599

 TRCHEK2: N2 convergence failed.
 x:  0.09718  0.11119  0.11124  N:  8.840  9.000  9.000  Nx:  16.747   dN:-0.345E+00
 TRCHEK2: N2 convergence failed.
 x:  0.09718  0.10806  0.11124  N:  8.840  9.000  9.033  Nx:  21.411   dN:-0.159E+00
 TRCHEK2: N2 convergence failed.
 x:  0.09718  0.11048  0.11124  N:  8.840  9.000  9.000  Nx:  14.229   dN:-0.205E-01
 TRCHEK2: N2 convergence failed.
 x:  0.09718  0.11124  0.11124  N:  8.840  9.000  9.004  Nx:  11.632   dN: 0.370E-02
 TRCHEK2: N2 convergence failed.
 x:  0.09718  0.11063  0.11124  N:  8.840  9.000  9.009  Nx:  12.039   dN: 0.210E-02
 TRCHEK2: N2 convergence failed.
 x:  0.09718  0.11064  0.11124  N:  8.840  9.000  9.010  Nx:  12.077   dN: 0.270E-02
 TRCHEK2: N2 convergence failed.
 x:  0.09718  0.11072  0.11124  N:  8.840  9.000  9.010  Nx:  12.114   dN: 0.421E-02
 TRCHEK2: N2 convergence failed.
 x:  0.09718  0.11086  0.11124  N:  8.840  9.000  9.011  Nx:  12.148   dN: 0.646E-02
 TRCHEK2: N2 convergence failed.
 x:  0.09718  0.11094  0.11124  N:  8.840  9.000  9.011  Nx:  12.184   dN: 0.792E-02
 TRCHEK2: N2 convergence failed.
 x:  0.09718  0.11108  0.11124  N:  8.840  9.000  9.010  Nx:  12.221   dN: 0.100E-01
 TRCHEK2: N2 convergence failed.
 x:  0.09718  0.11111  0.11124  N:  8.840  9.000  9.010  Nx:  12.262   dN: 0.108E-01
 TRCHEK2: N2 convergence failed.
 x:  0.09718  0.11048  0.11124  N:  8.840  9.000  9.000  Nx: 113.257   dN:-0.868E-02
 MRCHDU: Convergence failed at  19  side 2    Res =  0.2951E+01
 MRCHDU: Convergence failed at  20  side 2    Res =  0.3042E+02
 MRCHDU: Convergence failed at  21  side 2    Res =  0.3002E+02
 MRCHDU: Convergence failed at  22  side 2    Res =  0.2123E+03
 MRCHDU: Convergence failed at  23  side 2    Res =  0.5104E+02
 MRCHDU: Convergence failed at  24  side 2    Res =  0.3201E+02
 MRCHDU: Convergence failed at  25  side 2    Res =  0.2558E+02
 MRCHDU: Convergence failed at  26  side 2    Res =  0.3071E+02
 MRCHDU: Convergence failed at  27  side 2    Res =  0.7595E+02
 MRCHDU: Convergence failed at  28  side 2    Res =  0.9086E+02
 MRCHDU: Convergence failed at  29  side 2    Res =  0.5988E+02
 MRCHDU: Convergence failed at  30  side 2    Res =  0.1024E+03
 MRCHDU: Convergence failed at  31  side 2    Res =  0.8722E+02
 MRCHDU: Convergence failed at  32  side 2    Res =  0.8370E+02
 MRCHDU: Convergence failed at  33  side 2    Res =  0.8162E+02
 MRCHDU: Convergence failed at  34  side 2    Res =  0.8049E+02
 MRCHDU: Convergence failed at  35  side 2    Res =  0.8011E+02
 MRCHDU: Convergence failed at  36  side 2    Res =  0.8012E+02
 MRCHDU: Convergence failed at  37  side 2    Res =  0.8041E+02
 MRCHDU: Convergence failed at  38  side 2    Res =  0.8026E+02
 MRCHDU: Convergence failed at  39  side 2    Res =  0.7909E+02
 MRCHDU: Convergence failed at  40  side 2    Res =  0.7801E+02
 MRCHDU: Convergence failed at  41  side 2    Res =  0.7708E+02
 MRCHDU: Convergence failed at  42  side 2    Res =  0.7635E+02
 MRCHDU: Convergence failed at  43  side 2    Res =  0.7633E+02
 MRCHDU: Convergence failed at  44  side 2    Res =  0.8358E+02
 MRCHDU: Convergence failed at  45  side 2    Res =  0.8520E+02
 MRCHDU: Convergence failed at  46  side 2    Res =  0.8669E+02
 MRCHDU: Convergence failed at  47  side 2    Res =  0.8808E+02
 MRCHDU: Convergence failed at  48  side 2    Res =  0.8937E+02
 MRCHDU: Convergence failed at  49  side 2    Res =  0.9057E+02
 MRCHDU: Convergence failed at  50  side 2    Res =  0.9168E+02
 MRCHDU: Convergence failed at  51  side 2    Res =  0.9269E+02
 MRCHDU: Convergence failed at  52  side 2    Res =  0.9364E+02
 MRCHDU: Convergence failed at  53  side 2    Res =  0.9450E+02
 MRCHDU: Convergence failed at  54  side 2    Res =  0.9528E+02
 MRCHDU: Convergence failed at  55  side 2    Res =  0.9598E+02
 MRCHDU: Convergence failed at  56  side 2    Res =  0.9660E+02
 MRCHDU: Convergence failed at  57  side 2    Res =  0.9711E+02
 MRCHDU: Convergence failed at  58  side 2    Res =  0.9753E+02
 MRCHDU: Convergence failed at  59  side 2    Res =  0.9789E+02
 MRCHDU: Convergence failed at  60  side 2    Res =  0.9808E+02
 MRCHDU: Convergence failed at  61  side 2    Res =  0.9823E+02
 MRCHDU: Convergence failed at  62  side 2    Res =  0.9829E+02
 MRCHDU: Convergence failed at  63  side 2    Res =  0.9822E+02
 MRCHDU: Convergence failed at  64  side 2    Res =  0.9807E+02
 MRCHDU: Convergence failed at  65  side 2    Res =  0.9842E+02
 MRCHDU: Convergence failed at  66  side 2    Res =  0.9888E+02
 MRCHDU: Convergence failed at  67  side 2    Res =  0.9864E+02
 MRCHDU: Convergence failed at  68  side 2    Res =  0.9309E+02
 MRCHDU: Convergence failed at  69  side 2    Res =  0.9554E+02
 MRCHDU: Convergence failed at  70  side 2    Res =  0.9851E+02
 MRCHDU: Convergence failed at  71  side 2    Res =  0.1021E+03
 MRCHDU: Convergence failed at  72  side 2    Res =  0.1063E+03
 MRCHDU: Convergence failed at  73  side 2    Res =  0.1117E+03
 MRCHDU: Convergence failed at  74  side 2    Res =  0.1181E+03
 MRCHDU: Convergence failed at  75  side 2    Res =  0.1259E+03
 MRCHDU: Convergence failed at  76  side 2    Res =  0.1347E+03
 MRCHDU: Convergence failed at  77  side 2    Res =  0.1483E+03
 MRCHDU: Convergence failed at  78  side 2    Res =  0.1637E+03
 MRCHDU: Convergence failed at  79  side 2    Res =  0.1706E+03
 MRCHDU: Convergence failed at  80  side 2    Res =  0.1755E+03
 MRCHDU: Convergence failed at  81  side 2    Res =  0.1766E+03
 MRCHDU: Convergence failed at  82  side 2    Res =  0.1760E+03
 MRCHDU: Convergence failed at  83  side 2    Res =  0.1741E+03
 MRCHDU: Convergence failed at  84  side 2    Res =  0.1760E+03
 Side 1 forced transition at x/c =  1.0000   78
 Side 2  free  transition at x/c =  0.0961   19

   3   rms: 0.2102E+01   max: 0.1429E+02   D at   88  2   RLX: 0.105
       a = -3.000      CL = -1.1187
      Cm =  0.2668     CD =  0.00552   =>   CDf =  0.00202    CDp =  0.00350

 Side 1 forced transition at x/c =  1.0000   78
 Side 2  free  transition at x/c =  0.0970   19

   4   rms: 0.1002E+01   max: -.1079E+02   C at   78  1   RLX: 0.046
       a = -3.000      CL = -0.8937
      Cm =  0.1848     CD =  0.08146   =>   CDf =  0.00245    CDp =  0.07902

 Side 1 forced transition at x/c =  1.0000   78
 Side 2  free  transition at x/c =  0.0722   17

   5   rms: 0.1176E+02   max: 0.1154E+03   T at   18  2   RLX: 0.013
       a = -3.000      CL = -0.8779
      Cm =  0.1778     CD =  0.09542   =>   CDf =  0.00253    CDp =  0.09289

 Side 1 forced transition at x/c =  1.0000   78
 Side 2  free  transition at x/c =  0.0707   17

   6   rms: 0.6841E+00   max: -.7724E+01   C at   78  1   RLX: 0.065
       a = -3.000      CL = -0.9479
      Cm =  0.1887     CD =  0.08019   =>   CDf =  0.00250    CDp =  0.07769

 Side 1 forced transition at x/c =  1.0000   78
 Side 2  free  transition at x/c =  0.0694   17

   7   rms: 0.5618E+00   max: -.4433E+01   C at   78  1   RLX: 0.113
       a = -3.000      CL = -0.9161
      Cm =  0.1765     CD =  0.07990   =>   CDf =  0.00254    CDp =  0.07736

 Side 1 forced transition at x/c =  1.0000   78
 Side 2  free  transition at x/c =  0.0607   17

   8   rms: 0.5630E+00   max: -.2344E+01   C at   78  1   RLX: 0.213
       a = -3.000      CL = -0.8568
      Cm =  0.1577     CD =  0.07260   =>   CDf =  0.00261    CDp =  0.07000

 Side 1 forced transition at x/c =  1.0000   78
 Side 2  free  transition at x/c =  0.0585   16

   9   rms: 0.2528E+01   max: -.1179E+02   T at   17  2   RLX: 0.042
       a = -3.000      CL = -0.8688
      Cm =  0.1732     CD =  0.13515   =>   CDf =  0.00271    CDp =  0.13244

 Side 1 forced transition at x/c =  1.0000   78
 Side 2  free  transition at x/c =  0.0581   16

  10   rms: 0.8400E+01   max: 0.8129E+02   T at   17  2   RLX: 0.018
       a = -3.000      CL = -0.8864
      Cm =  0.1677     CD =  0.14091   =>   CDf =  0.00276    CDp =  0.13815

 Side 1 forced transition at x/c =  1.0000   78
 Side 2  free  transition at x/c =  0.0569   16

  11   rms: 0.5525E+00   max: -.2092E+01   C at  106  2   RLX: 0.239
       a = -3.000      CL = -0.7822
      Cm =  0.1294     CD =  0.07659   =>   CDf =  0.00273    CDp =  0.07385

 Side 1 forced transition at x/c =  1.0000   78
 Side 2  free  transition at x/c =  0.0574   16

  12   rms: 0.5290E+00   max: -.1936E+01   C at   99  2   RLX: 0.258
       a = -3.000      CL = -0.6610
      Cm =  0.0903     CD =  0.07636   =>   CDf =  0.00278    CDp =  0.07358

 Side 1 forced transition at x/c =  1.0000   78
 Side 2  free  transition at x/c =  0.0578   16

  13   rms: 0.4826E+00   max: -.1629E+01   C at  102  2   RLX: 0.307
       a = -3.000      CL = -0.5781
      Cm =  0.0565     CD =  0.06882   =>   CDf =  0.00278    CDp =  0.06604

 Side 1 forced transition at x/c =  1.0000   78
 Side 2  free  transition at x/c =  0.0579   16
 idif Ue xi dudx           1  0.29233268      2.55823135E-03   114.27140    
 Uenew xinew           2  1.94933861E-02  1.70588493E-04

  14   rms: 0.5080E+00   max: -.1796E+01   D at  103  2   RLX: 0.278
       a = -3.000      CL = -0.5198
      Cm =  0.0245     CD =  0.06212   =>   CDf =  0.00265    CDp =  0.05947

 Side 1 forced transition at x/c =  1.0000   77
 Side 2  free  transition at x/c =  0.0567   17

  15   rms: 0.7405E+00   max: 0.5049E+01   T at    2  2   RLX: 0.184
       a = -3.000      CL = -0.4886
      Cm = -0.0054     CD =  0.05753   =>   CDf =  0.00266    CDp =  0.05487

 Side 1 forced transition at x/c =  1.0000   77
 Side 2  free  transition at x/c =  0.0494   17

  16   rms: 0.4534E+01   max: 0.1975E+02   T at   17  2   RLX: 0.035
       a = -3.000      CL = -0.5687
      Cm = -0.0081     CD =  0.04596   =>   CDf =  0.00264    CDp =  0.04332

 MRCHDU: Convergence failed at  25  side 2    Res =  0.1102E+01
 MRCHDU: Convergence failed at  26  side 2    Res =  0.1419E+01
 MRCHDU: Convergence failed at  27  side 2    Res =  0.1798E+01
 MRCHDU: Convergence failed at  28  side 2    Res =  0.1804E+01
 MRCHDU: Convergence failed at  29  side 2    Res =  0.2056E+01
 MRCHDU: Convergence failed at  30  side 2    Res =  0.2049E+01
 MRCHDU: Convergence failed at  31  side 2    Res =  0.2440E+01
 MRCHDU: Convergence failed at  32  side 2    Res =  0.2756E+01
 MRCHDU: Convergence failed at  33  side 2    Res =  0.4156E+01
 MRCHDU: Convergence failed at  34  side 2    Res =  0.4945E+01
 MRCHDU: Convergence failed at  35  side 2    Res =  0.6572E+01
 MRCHDU: Convergence failed at  36  side 2    Res =  0.7951E+02
 MRCHDU: Convergence failed at  37  side 2    Res =  0.5970E+02
 MRCHDU: Convergence failed at  38  side 2    Res =  0.2177E+02
 MRCHDU: Convergence failed at  39  side 2    Res =  0.3135E+01
 MRCHDU: Convergence failed at  40  side 2    Res =  0.6329E+01
 MRCHDU: Convergence failed at  41  side 2    Res =  0.4241E+01
 MRCHDU: Convergence failed at  42  side 2    Res =  0.1102E+02
 MRCHDU: Convergence failed at  43  side 2    Res =  0.7935E+01
 MRCHDU: Convergence failed at  44  side 2    Res =  0.1116E+02
 MRCHDU: Convergence failed at  45  side 2    Res =  0.1935E+02
 MRCHDU: Convergence failed at  46  side 2    Res =  0.4348E+02
 MRCHDU: Convergence failed at  47  side 2    Res =  0.6031E+01
 MRCHDU: Convergence failed at  48  side 2    Res =  0.5060E+01
 MRCHDU: Convergence failed at  49  side 2    Res =  0.1028E+02
 MRCHDU: Convergence failed at  50  side 2    Res =  0.1185E+03
 MRCHDU: Convergence failed at  51  side 2    Res =  0.6189E+02
 MRCHDU: Convergence failed at  52  side 2    Res =  0.5291E+01
 MRCHDU: Convergence failed at  53  side 2    Res =  0.4551E+01
 MRCHDU: Convergence failed at  54  side 2    Res =  0.1012E+02
 MRCHDU: Convergence failed at  55  side 2    Res =  0.1660E+02
 MRCHDU: Convergence failed at  56  side 2    Res =  0.2611E+02
 MRCHDU: Convergence failed at  57  side 2    Res =  0.1134E+03
 MRCHDU: Convergence failed at  58  side 2    Res =  0.7427E+02
 MRCHDU: Convergence failed at  59  side 2    Res =  0.3927E+01
 MRCHDU: Convergence failed at  60  side 2    Res =  0.4617E+01
 MRCHDU: Convergence failed at  61  side 2    Res =  0.5230E+01
 MRCHDU: Convergence failed at  62  side 2    Res =  0.5615E+01
 MRCHDU: Convergence failed at  63  side 2    Res =  0.6429E+01
 MRCHDU: Convergence failed at  64  side 2    Res =  0.7797E+01
 MRCHDU: Convergence failed at  65  side 2    Res =  0.1039E+02
 MRCHDU: Convergence failed at  66  side 2    Res =  0.1798E+02
 MRCHDU: Convergence failed at  67  side 2    Res =  0.3932E+02
 MRCHDU: Convergence failed at  68  side 2    Res =  0.8443E+02
 MRCHDU: Convergence failed at  69  side 2    Res =  0.1195E+02
 MRCHDU: Convergence failed at  70  side 2    Res =  0.5338E+01
 MRCHDU: Convergence failed at  71  side 2    Res =  0.3594E+01
 MRCHDU: Convergence failed at  72  side 2    Res =  0.3591E+01
 MRCHDU: Convergence failed at  73  side 2    Res =  0.4123E+01
 MRCHDU: Convergence failed at  74  side 2    Res =  0.4909E+01
 MRCHDU: Convergence failed at  75  side 2    Res =  0.5454E+01
 MRCHDU: Convergence failed at  76  side 2    Res =  0.9156E+01
 MRCHDU: Convergence failed at  77  side 2    Res =  0.3071E+02
 MRCHDU: Convergence failed at  78  side 2    Res =  0.1779E+02
 MRCHDU: Convergence failed at  79  side 2    Res =  0.6985E+01
 MRCHDU: Convergence failed at  80  side 2    Res =  0.3976E+01
 MRCHDU: Convergence failed at  81  side 2    Res =  0.3016E+01
 MRCHDU: Convergence failed at  82  side 2    Res =  0.2564E+01
 MRCHDU: Convergence failed at  83  side 2    Res =  0.2905E+01
 MRCHDU: Convergence failed at  84  side 2    Res =  0.3302E+01
 MRCHDU: Convergence failed at  85  side 2    Res =  0.3733E+01
 Side 1 forced transition at x/c =  1.0000   77
 Side 2  free  transition at x/c =  0.0450   16

  17   rms: 0.7179E+00   max: -.1883E+01   T at   17  2   RLX: 0.265
       a = -3.000      CL = -1.0438
      Cm =  0.1612     CD =  0.08292   =>   CDf =  0.00273    CDp =  0.08018

 Side 1 forced transition at x/c =  1.0000   77
 Side 2  free  transition at x/c =  0.0445   16

  18   rms: 0.9130E+00   max: -.5153E+01   T at   17  2   RLX: 0.097
       a = -3.000      CL = -0.9696
      Cm =  0.1385     CD =  0.03557   =>   CDf =  0.00574    CDp =  0.02983

 Side 1 forced transition at x/c =  1.0000   77
 Side 2  free  transition at x/c =  0.0437   16

  19   rms: 0.1930E+01   max: -.2798E+02   T at   17  2   RLX: 0.018
       a = -3.000      CL = -0.9627
      Cm =  0.1349     CD =  0.03628   =>   CDf =  0.00522    CDp =  0.03106

 Side 1 forced transition at x/c =  1.0000   77
 Side 2  free  transition at x/c =  0.0426   16

  20   rms: 0.5911E+00   max: 0.7816E+01   T at   17  2   RLX: 0.093
       a = -3.000      CL = -0.8970
      Cm =  0.1202     CD =  0.03811   =>   CDf =  0.00492    CDp =  0.03319

 Side 1 forced transition at x/c =  1.0000   77
 Side 2  free  transition at x/c =  0.0407   16

  21   rms: 0.4320E+00   max: -.6287E+00   D at  102  2   RLX: 0.461
       a = -3.000      CL = -0.5877
      Cm =  0.0573     CD =  0.03083   =>   CDf =  0.00505    CDp =  0.02578

 Side 1 forced transition at x/c =  1.0000   78
 Side 2  free  transition at x/c =  0.0394   15

  22   rms: 0.3317E+00   max: -.8911E+00   D at   32  2   RLX: 0.561
       a = -3.000      CL = -0.4024
      Cm =  0.0196     CD =  0.02568   =>   CDf =  0.00507    CDp =  0.02061

 Side 1 forced transition at x/c =  1.0000   78
 Side 2  free  transition at x/c =  0.0596   17

  23   rms: 0.5200E+00   max: -.3236E+01   T at   17  2   RLX: 0.155
       a = -3.000      CL = -0.3790
      Cm =  0.0154     CD =  0.01697   =>   CDf =  0.00757    CDp =  0.00940

 Side 1 forced transition at x/c =  1.0000   78
 Side 2  free  transition at x/c =  0.0617   17

  24   rms: 0.1072E+00   max: -.8442E+00   T at   17  2   RLX: 0.592
       a = -3.000      CL = -0.3244
      Cm =  0.0015     CD =  0.01830   =>   CDf =  0.00667    CDp =  0.01164

 Side 1 forced transition at x/c =  1.0000   78
 Side 2  free  transition at x/c =  0.0650   17

  25   rms: 0.7126E-01   max: -.1183E+01   T at   17  2   RLX: 0.423
       a = -3.000      CL = -0.3083
      Cm = -0.0025     CD =  0.01962   =>   CDf =  0.00623    CDp =  0.01339

 Side 1 forced transition at x/c =  1.0000   78
 Side 2  free  transition at x/c =  0.0782   18

  26   rms: 0.6036E-01   max: 0.4468E+00   D at   21  2
       a = -3.000      CL = -0.2863
      Cm = -0.0077     CD =  0.01778   =>   CDf =  0.00669    CDp =  0.01108

 Side 1 forced transition at x/c =  1.0000   78
 Side 2  free  transition at x/c =  0.0814   18

  27   rms: 0.8833E-01   max: -.1746E+01   T at   18  2   RLX: 0.286
       a = -3.000      CL = -0.2877
      Cm = -0.0079     CD =  0.01933   =>   CDf =  0.00623    CDp =  0.01310

 MRCHDU: Convergence failed at  26  side 2    Res =  0.5166E+01
 TRCHEK2: N2 convergence failed.
 x:  0.22352  0.23764  0.23764  N:  8.710  9.000  9.008  Nx:  21.081   dN: 0.770E-02
 MRCHDU: Convergence failed at  29  side 2    Res =  0.6303E+01
 TRCHEK2: N2 convergence failed.
 x:  0.25178  0.26591  0.26591  N:  8.834  9.000  9.060  Nx:  15.803   dN: 0.595E-01
 MRCHDU: Convergence failed at  31  side 2    Res =  0.6183E+02
 MRCHDU: Convergence failed at  32  side 2    Res =  0.2885E+03
 MRCHDU: Convergence failed at  33  side 2    Res =  0.6160E+02
 MRCHDU: Convergence failed at  34  side 2    Res =  0.2006E+03
 MRCHDU: Convergence failed at  35  side 2    Res =  0.2059E+03
 MRCHDU: Convergence failed at  36  side 2    Res =  0.1044E+04
 MRCHDU: Convergence failed at  37  side 2    Res =  0.2278E+04
 MRCHDU: Convergence failed at  38  side 2    Res =  0.2128E+03
 MRCHDU: Convergence failed at  39  side 2    Res =  0.9794E+03
 MRCHDU: Convergence failed at  40  side 2    Res =  0.3322E+03
 MRCHDU: Convergence failed at  41  side 2    Res =  0.2302E+03
 MRCHDU: Convergence failed at  42  side 2    Res =  0.2245E+03
 MRCHDU: Convergence failed at  43  side 2    Res =  0.7640E+02
 MRCHDU: Convergence failed at  44  side 2    Res =  0.2215E+03
 MRCHDU: Convergence failed at  45  side 2    Res =  0.2244E+03
 MRCHDU: Convergence failed at  46  side 2    Res =  0.7406E+02
 MRCHDU: Convergence failed at  47  side 2    Res =  0.7456E+02
 MRCHDU: Convergence failed at  48  side 2    Res =  0.2267E+03
 MRCHDU: Convergence failed at  49  side 2    Res =  0.6074E+02
 MRCHDU: Convergence failed at  50  side 2    Res =  0.4921E+03
 MRCHDU: Convergence failed at  51  side 2    Res =  0.1450E+03
 MRCHDU: Convergence failed at  52  side 2    Res =  0.6230E+02
 MRCHDU: Convergence failed at  53  side 2    Res =  0.2371E+03
 MRCHDU: Convergence failed at  54  side 2    Res =  0.7963E+02
 MRCHDU: Convergence failed at  55  side 2    Res =  0.7496E+02
 MRCHDU: Convergence failed at  56  side 2    Res =  0.7247E+02
 MRCHDU: Convergence failed at  57  side 2    Res =  0.7296E+02
 MRCHDU: Convergence failed at  58  side 2    Res =  0.7537E+02
 MRCHDU: Convergence failed at  59  side 2    Res =  0.7925E+02
 MRCHDU: Convergence failed at  60  side 2    Res =  0.2340E+03
 MRCHDU: Convergence failed at  61  side 2    Res =  0.6544E+02
 MRCHDU: Convergence failed at  62  side 2    Res =  0.7257E+02
 MRCHDU: Convergence failed at  63  side 2    Res =  0.9385E+02
 MRCHDU: Convergence failed at  64  side 2    Res =  0.1628E+03
 MRCHDU: Convergence failed at  65  side 2    Res =  0.7092E+02
 MRCHDU: Convergence failed at  66  side 2    Res =  0.9487E+02
 MRCHDU: Convergence failed at  67  side 2    Res =  0.7486E+02
 MRCHDU: Convergence failed at  68  side 2    Res =  0.8761E+02
 MRCHDU: Convergence failed at  69  side 2    Res =  0.1534E+03
 MRCHDU: Convergence failed at  70  side 2    Res =  0.9084E+02
 MRCHDU: Convergence failed at  71  side 2    Res =  0.2929E+03
 MRCHDU: Convergence failed at  72  side 2    Res =  0.3420E+03
 MRCHDU: Convergence failed at  73  side 2    Res =  0.4126E+03
 MRCHDU: Convergence failed at  74  side 2    Res =  0.8200E+02
 MRCHDU: Convergence failed at  75  side 2    Res =  0.8672E+02
 MRCHDU: Convergence failed at  76  side 2    Res =  0.9151E+02
 MRCHDU: Convergence failed at  77  side 2    Res =  0.9645E+02
 MRCHDU: Convergence failed at  78  side 2    Res =  0.1013E+03
 MRCHDU: Convergence failed at  79  side 2    Res =  0.1208E+04
 MRCHDU: Convergence failed at  80  side 2    Res =  0.2015E+04
 MRCHDU: Convergence failed at  81  side 2    Res =  0.5497E+04
 MRCHDU: Convergence failed at  82  side 2    Res =  0.2018E+03
 MRCHDU: Convergence failed at  83  side 2    Res =  0.1047E+03
 MRCHDU: Convergence failed at  84  side 2    Res =  0.1018E+03
 Side 1 forced transition at x/c =  1.0000   78
 Side 2  free  transition at x/c =  0.2551   30

  28   rms: 0.2142E+01   max: 0.3370E+02   T at   30  2   RLX: 0.019
       a = -3.000      CL = -1.0521
      Cm =  0.2496     CD =  0.00471   =>   CDf =  0.00202    CDp =  0.00269

 Side 1 forced transition at x/c =  1.0000   78
 Side 2  free  transition at x/c =  0.2518   30

  29   rms: 0.2870E+02   max: 0.6237E+03   T at   30  2   RLX: 0.002
       a = -3.000      CL = -0.8850
      Cm =  0.1719     CD =  0.05973   =>   CDf =  0.00229    CDp =  0.05744

 Side 1 forced transition at x/c =  1.0000   78
 Side 2  free  transition at x/c =  0.1837   25

  30   rms: 0.2152E+02   max: -.2706E+03   T at   26  2   RLX: 0.002
       a = -3.000      CL = -0.9008
      Cm =  0.1860     CD =  0.07010   =>   CDf =  0.00232    CDp =  0.06778

 Side 1 forced transition at x/c =  1.0000   78
 Side 2  free  transition at x/c =  0.1444   23

  31   rms: 0.2487E+01   max: 0.3489E+02   T at   23  2   RLX: 0.043
       a = -3.000      CL = -0.8869
      Cm =  0.1709     CD =  0.06601   =>   CDf =  0.00236    CDp =  0.06365

 Side 1 forced transition at x/c =  1.0000   78
 Side 2  free  transition at x/c =  0.0660   17

  32   rms: 0.1249E+01   max: 0.1513E+02   T at   17  2   RLX: 0.040
       a = -3.000      CL = -1.0027
      Cm =  0.2087     CD =  0.07741   =>   CDf =  0.00244    CDp =  0.07497

 Side 1 forced transition at x/c =  1.0000   78
 Side 2  free  transition at x/c =  0.0600   17

  33   rms: 0.1121E+01   max: 0.9103E+01   T at   17  2   RLX: 0.063
       a = -3.000      CL = -0.9987
      Cm =  0.2030     CD =  0.08302   =>   CDf =  0.00249    CDp =  0.08053

 Side 1 forced transition at x/c =  1.0000   78
 Side 2  free  transition at x/c =  0.0585   16
 idif Ue xi dudx           1  0.28935480      2.52461433E-03   114.61346    
 Uenew xinew           2  1.56987756E-02  1.36971474E-04

  34   rms: 0.1140E+02   max: 0.6862E+02   T at   31  2   RLX: 0.022
       a = -3.000      CL = -1.0016
      Cm =  0.1955     CD =  0.12436   =>   CDf =  0.00249    CDp =  0.12187

 Side 1 forced transition at x/c =  1.0000   77
 Side 2  free  transition at x/c =  0.0578   17

  35   rms: 0.5693E+00   max: -.3443E+01   C at   77  1   RLX: 0.145
       a = -3.000      CL = -1.0025
      Cm =  0.1813     CD =  0.07109   =>   CDf =  0.00250    CDp =  0.06860

 Side 1 forced transition at x/c =  1.0000   77
 Side 2  free  transition at x/c =  0.0576   17

  36   rms: 0.4892E+00   max: -.1766E+01   C at  105  2   RLX: 0.283
       a = -3.000      CL = -0.8352
      Cm =  0.1317     CD =  0.06495   =>   CDf =  0.00266    CDp =  0.06230

 Side 1 forced transition at x/c =  1.0000   78
 Side 2  free  transition at x/c =  0.0577   16

  37   rms: 0.4674E+00   max: -.2050E+01   T at    2  1   RLX: 0.244
       a = -3.000      CL = -0.7136
      Cm =  0.0931     CD =  0.07041   =>   CDf =  0.00266    CDp =  0.06776

 Side 1 forced transition at x/c =  1.0000   78
 Side 2  free  transition at x/c =  0.0579   16

  38   rms: 0.4483E+00   max: -.1354E+01   C at  102  2   RLX: 0.369
       a = -3.000      CL = -0.5853
      Cm =  0.0498     CD =  0.05417   =>   CDf =  0.00266    CDp =  0.05151

 Side 1 forced transition at x/c =  1.0000   78
 Side 2  free  transition at x/c =  0.0582   16
 idif Ue xi dudx           1  0.29960960      2.68208981E-03   111.70752    
 Uenew xinew           2  3.28919366E-02  2.94446945E-04

  39   rms: 0.4692E+00   max: -.1548E+01   D at  101  2   RLX: 0.323
       a = -3.000      CL = -0.5266
      Cm =  0.0238     CD =  0.05146   =>   CDf =  0.00256    CDp =  0.04890

 Side 1 forced transition at x/c =  1.0000   77
 Side 2  free  transition at x/c =  0.0574   17

  40   rms: 0.5303E+00   max: -.2039E+01   D at  100  2   RLX: 0.245
       a = -3.000      CL = -0.4719
      Cm =  0.0007     CD =  0.04233   =>   CDf =  0.00264    CDp =  0.03969

 Side 1 forced transition at x/c =  1.0000   77
 Side 2  free  transition at x/c =  0.0576   17

  41   rms: 0.5143E+00   max: -.2579E+01   T at   17  2   RLX: 0.194
       a = -3.000      CL = -0.4226
      Cm = -0.0093     CD =  0.03914   =>   CDf =  0.00268    CDp =  0.03646

 Side 1 forced transition at x/c =  1.0000   77
 Side 2  free  transition at x/c =  0.0516   17

  42   rms: 0.1032E+01   max: -.4668E+01   D at   87  2   RLX: 0.107
       a = -3.000      CL = -0.4168
      Cm = -0.0292     CD =  0.02957   =>   CDf =  0.00279    CDp =  0.02678

 MRCHDU: Convergence failed at  87  side 2    Res =  0.2848E-01
 Side 1 forced transition at x/c =  1.0000   77
 Side 2  free  transition at x/c =  0.0515   17

  43   rms: 0.4253E+01   max: -.2613E+02   D at   87  2   RLX: 0.019
       a = -3.000      CL = -0.4451
      Cm = -0.0313     CD =  0.02764   =>   CDf =  0.00291    CDp =  0.02473

 MRCHDU: Convergence failed at  87  side 2    Res =  0.2776E+00
 Side 1 forced transition at x/c =  1.0000   77
 Side 2  free  transition at x/c =  0.0497   17

  44   rms: 0.1658E+01   max: -.7726E+01   D at   88  2   RLX: 0.065
       a = -3.000      CL = -0.5082
      Cm = -0.0294     CD =  0.03841   =>   CDf =  0.00289    CDp =  0.03552

 MRCHDU: Convergence failed at  52  side 2    Res =  0.1218E+01
 MRCHDU: Convergence failed at  53  side 2    Res =  0.1242E+01
 MRCHDU: Convergence failed at  54  side 2    Res =  0.1266E+01
 MRCHDU: Convergence failed at  55  side 2    Res =  0.1280E+01
 MRCHDU: Convergence failed at  56  side 2    Res =  0.1322E+01
 MRCHDU: Convergence failed at  57  side 2    Res =  0.1354E+01
 MRCHDU: Convergence failed at  58  side 2    Res =  0.1486E+01
 MRCHDU: Convergence failed at  59  side 2    Res =  0.1847E+01
 MRCHDU: Convergence failed at  60  side 2    Res =  0.2152E+01
 MRCHDU: Convergence failed at  61  side 2    Res =  0.2631E+01
 MRCHDU: Convergence failed at  62  side 2    Res =  0.4193E+01
 MRCHDU: Convergence failed at  63  side 2    Res =  0.1118E+02
 MRCHDU: Convergence failed at  64  side 2    Res =  0.1422E+01
 MRCHDU: Convergence failed at  65  side 2    Res =  0.3540E+01
 MRCHDU: Convergence failed at  66  side 2    Res =  0.8967E+01
 MRCHDU: Convergence failed at  67  side 2    Res =  0.1137E+03
 MRCHDU: Convergence failed at  68  side 2    Res =  0.1355E+01
 MRCHDU: Convergence failed at  69  side 2    Res =  0.2081E+01
 MRCHDU: Convergence failed at  70  side 2    Res =  0.2571E+01
 MRCHDU: Convergence failed at  71  side 2    Res =  0.3244E+01
 MRCHDU: Convergence failed at  72  side 2    Res =  0.5108E+01
 MRCHDU: Convergence failed at  73  side 2    Res =  0.2265E+02
 MRCHDU: Convergence failed at  74  side 2    Res =  0.3791E+01
 MRCHDU: Convergence failed at  75  side 2    Res =  0.1704E+01
 MRCHDU: Convergence failed at  76  side 2    Res =  0.1130E+01
 MRCHDU: Convergence failed at  77  side 2    Res =  0.9408E+00
 MRCHDU: Convergence failed at  79  side 2    Res =  0.2899E+00
 MRCHDU: Convergence failed at  80  side 2    Res =  0.2250E+00
 MRCHDU: Convergence failed at  82  side 2    Res =  0.1856E-02
 Side 1 forced transition at x/c =  1.0000   77
 Side 2  free  transition at x/c =  0.0446   16

  45   rms: 0.1056E+01   max: -.3831E+01   D at   88  2   RLX: 0.131
       a = -3.000      CL = -0.6475
      Cm =  0.0193     CD =  0.04934   =>   CDf =  0.00278    CDp =  0.04656

 Side 1 forced transition at x/c =  1.0000   77
 Side 2  free  transition at x/c =  0.0448   16

  46   rms: 0.8058E+00   max: -.3303E+01   D at   88  2   RLX: 0.151
       a = -3.000      CL = -0.6357
      Cm =  0.0049     CD =  0.05400   =>   CDf =  0.00338    CDp =  0.05062

 MRCHDU: Convergence failed at  88  side 2    Res =  0.1332E+00
 Side 1 forced transition at x/c =  1.0000   77
 Side 2  free  transition at x/c =  0.0448   16

  47   rms: 0.4153E+00   max: 0.1517E+01   C at   77  1   RLX: 0.350
       a = -3.000      CL = -0.6180
      Cm =  0.0117     CD =  0.08477   =>   CDf =  0.00414    CDp =  0.08063

 Side 1 forced transition at x/c =  1.0000   77
 Side 2  free  transition at x/c =  0.0449   16

  48   rms: 0.3816E+00   max: 0.3756E+01   C at   77  1   RLX: 0.399
       a = -3.000      CL = -0.6086
      Cm =  0.0268     CD =  0.07112   =>   CDf =  0.00560    CDp =  0.06552

 Side 1 forced transition at x/c =  1.0000   77
 Side 2  free  transition at x/c =  0.0450   16

  49   rms: 0.4137E+00   max: 0.5794E+01   C at   77  1   RLX: 0.259
       a = -3.000      CL = -0.6197
      Cm =  0.0360     CD =  0.05166   =>   CDf =  0.00632    CDp =  0.04534

 Side 1 forced transition at x/c =  1.0000   77
 Side 2  free  transition at x/c =  0.0450   16

  50   rms: 0.2888E+00   max: 0.2334E+01   C at   77  1   RLX: 0.476
       a = -3.000      CL = -0.6245
      Cm =  0.0470     CD =  0.04024   =>   CDf =  0.00608    CDp =  0.03417

 MRCHDU: Convergence failed at  78  side 2    Res =  0.2303E+00
 Side 1 forced transition at x/c =  1.0000   77
 Side 2  free  transition at x/c =  0.0450   16

  51   rms: 0.1596E+00   max: -.9308E+00   D at   85  2   RLX: 0.537
       a = -3.000      CL = -0.5766
      Cm =  0.0468     CD =  0.03369   =>   CDf =  0.00590    CDp =  0.02779

 Side 1  free  transition at x/c =  0.9959   77
 Side 2  free  transition at x/c =  0.0445   16

  52   rms: 0.2260E+00   max: 0.8826E+00   D at   18  2   RLX: 0.593
       a = -3.000      CL = -0.5197
      Cm =  0.0370     CD =  0.02391   =>   CDf =  0.00629    CDp =  0.01762

 Side 1  free  transition at x/c =  0.9944   76
 Side 2  free  transition at x/c =  0.0448   16

  53   rms: 0.1341E+00   max: -.1002E+01   T at   76  1   RLX: 0.499
       a = -3.000      CL = -0.4605
      Cm =  0.0268     CD =  0.02354   =>   CDf =  0.00601    CDp =  0.01753

 Side 1 forced transition at x/c =  1.0000   78
 Side 2  free  transition at x/c =  0.0449   15

  54   rms: 0.6666E+00   max: -.1106E+02   D at    2  1   RLX: 0.045
       a = -3.000      CL = -0.4529
      Cm =  0.0257     CD =  0.02265   =>   CDf =  0.00615    CDp =  0.01650

 Side 1 forced transition at x/c =  1.0000   78
 Side 2  free  transition at x/c =  0.0449   15

  55   rms: 0.1874E+00   max: -.7873E+00   D at   78  1   RLX: 0.635
       a = -3.000      CL = -0.3434
      Cm =  0.0060     CD =  0.01967   =>   CDf =  0.00618    CDp =  0.01349

 Side 1 forced transition at x/c =  1.0000   78
 Side 2  free  transition at x/c =  0.0451   15

  56   rms: 0.1063E+00   max: -.9065E+00   C at   78  1   RLX: 0.552
       a = -3.000      CL = -0.2951
      Cm = -0.0032     CD =  0.01919   =>   CDf =  0.00674    CDp =  0.01245

 Side 1 forced transition at x/c =  1.0000   78
 Side 2  free  transition at x/c =  0.0427   15

  57   rms: 0.9237E-01   max: -.8286E+00   C at   78  1   RLX: 0.603
       a = -3.000      CL = -0.2822
      Cm = -0.0058     CD =  0.01680   =>   CDf =  0.00668    CDp =  0.01012

 Side 1 forced transition at x/c =  1.0000   78
 Side 2  free  transition at x/c =  0.0386   15

  58   rms: 0.1088E+00   max: 0.1351E+01   T at   15  2   RLX: 0.767
       a = -3.000      CL = -0.2784
      Cm = -0.0052     CD =  0.01564   =>   CDf =  0.00663    CDp =  0.00900

 Side 1 forced transition at x/c =  1.0000   78
 Side 2  free  transition at x/c =  0.0341   15

  59   rms: 0.2871E-01   max: -.3800E+00   D at   15  2
       a = -3.000      CL = -0.2779
      Cm = -0.0049     CD =  0.01538   =>   CDf =  0.00707    CDp =  0.00830

 Side 1 forced transition at x/c =  1.0000   78
 Side 2  free  transition at x/c =  0.0332   15

  60   rms: 0.1987E-01   max: 0.1559E+00   D at   15  2
       a = -3.000      CL = -0.2785
      Cm = -0.0050     CD =  0.01524   =>   CDf =  0.00703    CDp =  0.00821

 Side 1 forced transition at x/c =  1.0000   78
 Side 2  free  transition at x/c =  0.0335   15

  61   rms: 0.4649E-02   max: 0.2512E-01   D at   15  2
       a = -3.000      CL = -0.2786
      Cm = -0.0050     CD =  0.01519   =>   CDf =  0.00705    CDp =  0.00814

 Side 1 forced transition at x/c =  1.0000   78
 Side 2  free  transition at x/c =  0.0335   15

  62   rms: 0.3805E-04   max: 0.2704E-03   D at   15  2
[...]
 Side 1  free  transition at x/c =  0.0288   14
 Side 2 forced transition at x/c =  1.0000   77

 114   rms: 0.1339E+03   max: -.2670E+04   C at   99  2   RLX: 0.000
       a =  8.000      CL =  0.5974
      Cm = -0.0672     CD =*********   =>   CDf =  0.00329    CDp =*********

 MRCHDU: Convergence failed at  94  side 2    Res =  0.3977E-03
 MRCHDU: Convergence failed at  95  side 2    Res =  0.3602E-01
 MRCHDU: Convergence failed at  96  side 2    Res =  0.1070E-02
 MRCHDU: Convergence failed at  97  side 2    Res =  0.9808E-03
 Side 1  free  transition at x/c =  0.0288   14
 Side 2 forced transition at x/c =  1.0000   77

 115   rms: 0.1600E+02   max: 0.2614E+03   T at   99  2   RLX: 0.006
       a =  8.000      CL =  0.5926
      Cm = -0.0663     CD =*********   =>   CDf =  0.00329    CDp =*********

 MRCHDU: Convergence failed at  94  side 2    Res =  0.1002E-02
 MRCHDU: Convergence failed at  95  side 2    Res =  0.1713E+00
 MRCHDU: Convergence failed at  96  side 2    Res =  0.6914E-02
 MRCHDU: Convergence failed at  97  side 2    Res =  0.6307E-02
 Side 1  free  transition at x/c =  0.0288   14
 Side 2 forced transition at x/c =  1.0000   77

 116   rms: 0.6847E+01   max: -.1063E+03   T at   99  2   RLX: 0.005
       a =  8.000      CL =  0.5923
      Cm = -0.0661     CD =*********   =>   CDf =  0.00329    CDp =*********

 MRCHDU: Convergence failed at  94  side 2    Res =  0.1359E-02
 MRCHDU: Convergence failed at  95  side 2    Res =  0.3267E-01
 MRCHDU: Convergence failed at  96  side 2    Res =  0.2137E-02
 MRCHDU: Convergence failed at  97  side 2    Res =  0.2072E-02
 Side 1  free  transition at x/c =  0.0288   14
 Side 2 forced transition at x/c =  1.0000   77

 117   rms: 0.4987E+03   max: 0.9355E+04   T at   99  2   RLX: 0.000
       a =  8.000      CL =  0.5870
      Cm = -0.0652     CD =*********   =>   CDf =  0.00329    CDp =*********

 MRCHDU: Convergence failed at  94  side 2    Res =  0.1557E-02
 MRCHDU: Convergence failed at  95  side 2    Res =  0.3447E-01
 MRCHDU: Convergence failed at  96  side 2    Res =  0.2409E-02
 MRCHDU: Convergence failed at  97  side 2    Res =  0.2362E-02
 Side 1  free  transition at x/c =  0.0289   14
 Side 2 forced transition at x/c =  1.0000   77

 118   rms: 0.1174E+02   max: 0.1960E+03   T at   96  2   RLX: 0.008
       a =  8.000      CL =  0.5811
      Cm = -0.0642     CD = 50.76315   =>   CDf =  0.00329    CDp = 50.75986

 MRCHDU: Convergence failed at  94  side 2    Res =  0.2321E-02
 MRCHDU: Convergence failed at  95  side 2    Res =  0.1561E+00
 MRCHDU: Convergence failed at  96  side 2    Res =  0.2172E-01
 MRCHDU: Convergence failed at  97  side 2    Res =  0.1492E+00
 MRCHDU: Convergence failed at  98  side 2    Res =  0.4574E+00
 Side 1  free  transition at x/c =  0.0289   14
 Side 2 forced transition at x/c =  1.0000   77

 119   rms: 0.9108E+03   max: -.2466E+05   C at   99  2   RLX: 0.000
       a =  8.000      CL =  0.5812
      Cm = -0.0641     CD = 30.25723   =>   CDf =  0.00328    CDp = 30.25395

 MRCHDU: Convergence failed at  94  side 2    Res =  0.2311E-02
 MRCHDU: Convergence failed at  95  side 2    Res =  0.4073E-01
 MRCHDU: Convergence failed at  96  side 2    Res =  0.1277E-01
 MRCHDU: Convergence failed at  97  side 2    Res =  0.6833E-02
 MRCHDU: Convergence failed at  98  side 2    Res =  0.6037E-02
 MRCHDU: Convergence failed at  99  side 2    Res =  0.1891E+00
 Side 1  free  transition at x/c =  0.0289   14
 Side 2 forced transition at x/c =  1.0000   77

 120   rms: 0.1995E+03   max: -.4157E+04   T at   99  2   RLX: 0.000
       a =  8.000      CL =  0.5823
      Cm = -0.0643     CD =*********   =>   CDf =  0.00328    CDp =*********

 MRCHDU: Convergence failed at  94  side 2    Res =  0.2267E-02
 MRCHDU: Convergence failed at  95  side 2    Res =  0.3958E-01
 MRCHDU: Convergence failed at  96  side 2    Res =  0.1136E-01
 MRCHDU: Convergence failed at  97  side 2    Res =  0.5339E-02
 MRCHDU: Convergence failed at  98  side 2    Res =  0.3504E-02
 MRCHDU: Convergence failed at  99  side 2    Res =  0.1516E-02
 Side 1  free  transition at x/c =  0.0289   14
 Side 2 forced transition at x/c =  1.0000   77

 121   rms: 0.3859E+04   max: 0.7948E+05   T at   99  2   RLX: 0.000
       a =  8.000      CL =  0.5811
      Cm = -0.0641     CD =*********   =>   CDf =  0.00328    CDp =*********

 MRCHDU: Convergence failed at  94  side 2    Res =  0.2325E-02
 MRCHDU: Convergence failed at  95  side 2    Res =  0.4575E-01
 MRCHDU: Convergence failed at  96  side 2    Res =  0.1913E-01
 MRCHDU: Convergence failed at  97  side 2    Res =  0.1413E-01
 MRCHDU: Convergence failed at  98  side 2    Res =  0.2373E-01
 MRCHDU: Convergence failed at  99  side 2    Res =  0.1776E-01
 Side 1  free  transition at x/c =  0.0289   14
 Side 2 forced transition at x/c =  1.0000   77

 122   rms: 0.1142E+03   max: -.2183E+04   T at   99  2   RLX: 0.000
       a =  8.000      CL =  0.5834
      Cm = -0.0644     CD =*********   =>   CDf =  0.00328    CDp =*********

 MRCHDU: Convergence failed at  94  side 2    Res =  0.2233E-02
 MRCHDU: Convergence failed at  95  side 2    Res =  0.4591E-01
 MRCHDU: Convergence failed at  96  side 2    Res =  0.1892E-01
 MRCHDU: Convergence failed at  97  side 2    Res =  0.1355E-01
 MRCHDU: Convergence failed at  98  side 2    Res =  0.1710E-01
 MRCHDU: Convergence failed at  99  side 2    Res =  0.3584E-02
 Side 1  free  transition at x/c =  0.0289   14
 Side 2 forced transition at x/c =  1.0000   77

 123   rms: 0.2575E+03   max: -.6059E+04   T at   99  2   RLX: 0.000
       a =  8.000      CL =  0.5842
      Cm = -0.0646     CD =*********   =>   CDf =  0.00328    CDp =*********

 MRCHDU: Convergence failed at  94  side 2    Res =  0.2205E-02
 MRCHDU: Convergence failed at  95  side 2    Res =  0.4576E-01
 MRCHDU: Convergence failed at  96  side 2    Res =  0.1835E-01
 MRCHDU: Convergence failed at  97  side 2    Res =  0.1233E-01
 MRCHDU: Convergence failed at  98  side 2    Res =  0.1100E-01
 MRCHDU: Convergence failed at  99  side 2    Res =  0.1066E-02
 Side 1  free  transition at x/c =  0.0289   14
 Side 2 forced transition at x/c =  1.0000   77

 124   rms: 0.5677E+03   max: -.1339E+05   T at   99  2   RLX: 0.000
       a =  8.000      CL =  0.5842
      Cm = -0.0646     CD =+Infinity   =>   CDf =  0.00328    CDp =+Infinity

 MRCHDU: Convergence failed at  94  side 2    Res =  0.2207E-02
 MRCHDU: Convergence failed at  95  side 2    Res =  0.4534E-01
 MRCHDU: Convergence failed at  96  side 2    Res =  0.1741E-01
 MRCHDU: Convergence failed at  97  side 2    Res =  0.1064E-01
 MRCHDU: Convergence failed at  98  side 2    Res =  0.6838E-02
 MRCHDU: Convergence failed at  99  side 2    Res =  0.2678E-03
 Side 1  free  transition at x/c =  0.0289   14
 Side 2 forced transition at x/c =  1.0000   77

 125   rms: 0.5350E+03   max: -.1164E+05   T at   99  2   RLX: 0.000
       a =  8.000      CL =  0.5840
      Cm = -0.0645     CD =+Infinity   =>   CDf =  0.00328    CDp =+Infinity

 MRCHDU: Convergence failed at  94  side 2    Res =  0.2221E-02
 MRCHDU: Convergence failed at  95  side 2    Res =  0.4453E-01
 MRCHDU: Convergence failed at  96  side 2    Res =  0.1586E-01
 MRCHDU: Convergence failed at  97  side 2    Res =  0.8407E-02
 MRCHDU: Convergence failed at  98  side 2    Res =  0.3665E-02
 Side 1  free  transition at x/c =  0.0289   14
 Side 2 forced transition at x/c =  1.0000   77

 126   rms: 0.3298E+03   max: -.5991E+04   T at   99  2   RLX: 0.000
       a =  8.000      CL =  0.5836
      Cm = -0.0645     CD =+Infinity   =>   CDf =  0.00328    CDp =+Infinity

 MRCHDU: Convergence failed at  94  side 2    Res =  0.2240E-02
 MRCHDU: Convergence failed at  95  side 2    Res =  0.4293E-01
 MRCHDU: Convergence failed at  96  side 2    Res =  0.1338E-01
 MRCHDU: Convergence failed at  97  side 2    Res =  0.5675E-02
 MRCHDU: Convergence failed at  98  side 2    Res =  0.1294E-02
 Side 1  free  transition at x/c =  0.0289   14
 Side 2 forced transition at x/c =  1.0000   77

 127   rms: 0.2936E+03   max: -.5460E+04   T at   98  2   RLX: 0.000
       a =  8.000      CL =  0.5834
      Cm = -0.0644     CD =+Infinity   =>   CDf =  0.00328    CDp =+Infinity

 MRCHDU: Convergence failed at  94  side 2    Res =  0.2259E-02
 MRCHDU: Convergence failed at  95  side 2    Res =  0.4039E-01
 MRCHDU: Convergence failed at  96  side 2    Res =  0.1051E-01
 MRCHDU: Convergence failed at  97  side 2    Res =  0.3354E-02
 MRCHDU: Convergence failed at  98  side 2    Res =  0.2153E-03
 Side 1  free  transition at x/c =  0.0289   14
 Side 2 forced transition at x/c =  1.0000   77

 128   rms: 0.8374E+03   max: 0.1467E+05   T at   98  2   RLX: 0.000
       a =  8.000      CL =  0.5841
      Cm = -0.0645     CD =+Infinity   =>   CDf =  0.00328    CDp =+Infinity

 MRCHDU: Convergence failed at  94  side 2    Res =  0.2236E-02
 MRCHDU: Convergence failed at  95  side 2    Res =  0.5725E-01
 MRCHDU: Convergence failed at  96  side 2    Res =  0.3738E-01
 MRCHDU: Convergence failed at  97  side 2    Res =  0.2334E-01
 MRCHDU: Convergence failed at  98  side 2    Res =  0.2468E-02
 Side 1  free  transition at x/c =  0.0289   14
 Side 2 forced transition at x/c =  1.0000   77

 129   rms: 0.4876E+04   max: 0.8993E+05   T at   98  2   RLX: 0.000
       a =  8.000      CL =  0.5847
      Cm = -0.0646     CD =+Infinity   =>   CDf =  0.00328    CDp =+Infinity

 MRCHDU: Convergence failed at  94  side 2    Res =  0.2214E-02
 MRCHDU: Convergence failed at  95  side 2    Res =  0.5745E-01
 MRCHDU: Convergence failed at  96  side 2    Res =  0.4693E-01
 MRCHDU: Convergence failed at  97  side 2    Res =  0.4545E+00
 MRCHDU: Convergence failed at  98  side 2    Res =  0.2196E-01
 MRCHDU: Convergence failed at  99  side 2    Res =  0.2466E-03
 Side 1  free  transition at x/c =  0.0289   14
 Side 2 forced transition at x/c =  1.0000   77

 130   rms: 0.1854E+04   max: 0.4282E+05   T at   99  2   RLX: 0.000
       a =  8.000      CL =  0.5853
      Cm = -0.0647     CD =+Infinity   =>   CDf =  0.00328    CDp =+Infinity

 MRCHDU: Convergence failed at  94  side 2    Res =  0.2194E-02
 MRCHDU: Convergence failed at  95  side 2    Res =  0.5753E-01
 MRCHDU: Convergence failed at  96  side 2    Res =  0.4675E-01
 MRCHDU: Convergence failed at  97  side 2    Res =  0.3992E-01
 MRCHDU: Convergence failed at  98  side 2    Res =  0.3851E+00
 MRCHDU: Convergence failed at  99  side 2    Res =  0.1233E-02
 Side 1  free  transition at x/c =  0.0289   14
 Side 2 forced transition at x/c =  1.0000   77

 131   rms: 0.3007E+05   max: 0.7368E+06   T at   99  2   RLX: 0.000
       a =  8.000      CL =  0.5854
      Cm = -0.0647     CD =*********   =>   CDf =  0.00328    CDp =*********

 MRCHDU: Convergence failed at  94  side 2    Res =  0.2192E-02
 MRCHDU: Convergence failed at  95  side 2    Res =  0.5755E-01
 MRCHDU: Convergence failed at  96  side 2    Res =  0.4661E-01
 MRCHDU: Convergence failed at  97  side 2    Res =  0.3374E-01
 MRCHDU: Convergence failed at  98  side 2    Res =  0.1448E+00
 MRCHDU: Convergence failed at  99  side 2    Res =  0.5709E-02
 Side 1  free  transition at x/c =  0.0289   14
 Side 2 forced transition at x/c =  1.0000   77

 132   rms: 0.3676E+03   max: -.8715E+04   T at   99  2   RLX: 0.000
       a =  8.000      CL =  0.5865
      Cm = -0.0649     CD =*********   =>   CDf =  0.00328    CDp =*********

 MRCHDU: Convergence failed at  94  side 2    Res =  0.2154E-02
 MRCHDU: Convergence failed at  95  side 2    Res =  0.5771E-01
 MRCHDU: Convergence failed at  96  side 2    Res =  0.4674E-01
 MRCHDU: Convergence failed at  97  side 2    Res =  0.3414E-01
 MRCHDU: Convergence failed at  98  side 2    Res =  0.2174E-01
 MRCHDU: Convergence failed at  99  side 2    Res =  0.1296E-02
 Side 1  free  transition at x/c =  0.0289   14
 Side 2 forced transition at x/c =  1.0000   77

 133   rms: 0.3458E+04   max: -.8380E+05   T at   99  2   RLX: 0.000
       a =  8.000      CL =  0.5866
      Cm = -0.0649     CD =+Infinity   =>   CDf =  0.00329    CDp =+Infinity

 MRCHDU: Convergence failed at  94  side 2    Res =  0.2149E-02
 MRCHDU: Convergence failed at  95  side 2    Res =  0.5774E-01
 MRCHDU: Convergence failed at  96  side 2    Res =  0.4657E-01
 MRCHDU: Convergence failed at  97  side 2    Res =  0.3168E-01
 MRCHDU: Convergence failed at  98  side 2    Res =  0.1374E-01
 MRCHDU: Convergence failed at  99  side 2    Res =  0.3892E-03
 Side 1  free  transition at x/c =  0.0289   14
 Side 2 forced transition at x/c =  1.0000   77

 134   rms: 0.1769E+04   max: 0.4147E+05   T at   99  2   RLX: 0.000
       a =  8.000      CL =  0.5872
      Cm = -0.0650     CD =*********   =>   CDf =  0.00329    CDp =*********

 MRCHDU: Convergence failed at  94  side 2    Res =  0.2130E-02
 MRCHDU: Convergence failed at  95  side 2    Res =  0.5778E-01
 MRCHDU: Convergence failed at  96  side 2    Res =  0.4813E-01
 MRCHDU: Convergence failed at  97  side 2    Res =  0.5445E-01
 MRCHDU: Convergence failed at  98  side 2    Res =  0.3992E+00
 MRCHDU: Convergence failed at  99  side 2    Res =  0.2541E-02
 Side 1  free  transition at x/c =  0.0289   14
 Side 2 forced transition at x/c =  1.0000   77

 135   rms: 0.9185E+03   max: -.2240E+05   T at   99  2   RLX: 0.000
       a =  8.000      CL =  0.5876
      Cm = -0.0651     CD =+Infinity   =>   CDf =  0.00329    CDp =+Infinity

 MRCHDU: Convergence failed at  94  side 2    Res =  0.2116E-02
 MRCHDU: Convergence failed at  95  side 2    Res =  0.5785E-01
 MRCHDU: Convergence failed at  96  side 2    Res =  0.4792E-01
 MRCHDU: Convergence failed at  97  side 2    Res =  0.6255E-01
 MRCHDU: Convergence failed at  98  side 2    Res =  0.6847E-01
 MRCHDU: Convergence failed at  99  side 2    Res =  0.5757E-03
 Side 1  free  transition at x/c =  0.0289   14
 Side 2 forced transition at x/c =  1.0000   77

 136   rms: 0.2185E+04   max: 0.5306E+05   T at   99  2   RLX: 0.000
       a =  8.000      CL =  0.5882
      Cm = -0.0651     CD =*********   =>   CDf =  0.00329    CDp =*********

 MRCHDU: Convergence failed at  94  side 2    Res =  0.2099E-02
 MRCHDU: Convergence failed at  95  side 2    Res =  0.5791E-01
 MRCHDU: Convergence failed at  96  side 2    Res =  0.4849E-01
 MRCHDU: Convergence failed at  97  side 2    Res =  0.5248E-01
 MRCHDU: Convergence failed at  98  side 2    Res =  0.2612E+00
 MRCHDU: Convergence failed at  99  side 2    Res =  0.3736E-02
 Side 1  free  transition at x/c =  0.0289   14
 Side 2 forced transition at x/c =  1.0000   77

 137   rms: 0.5859E+03   max: -.1415E+05   T at   99  2   RLX: 0.000
       a =  8.000      CL =  0.5889
      Cm = -0.0652     CD =+Infinity   =>   CDf =  0.00329    CDp =+Infinity

 MRCHDU: Convergence failed at  94  side 2    Res =  0.2074E-02
 MRCHDU: Convergence failed at  95  side 2    Res =  0.5802E-01
 MRCHDU: Convergence failed at  96  side 2    Res =  0.4837E-01
 MRCHDU: Convergence failed at  97  side 2    Res =  0.5935E-01
 MRCHDU: Convergence failed at  98  side 2    Res =  0.5887E-01
 MRCHDU: Convergence failed at  99  side 2    Res =  0.8400E-03
 Side 1  free  transition at x/c =  0.0289   14
 Side 2 forced transition at x/c =  1.0000   77

 138   rms: 0.4586E+04   max: 0.1117E+06   T at   99  2   RLX: 0.000
       a =  8.000      CL =  0.5891
      Cm = -0.0653     CD =*********   =>   CDf =  0.00329    CDp =*********

 MRCHDU: Convergence failed at  94  side 2    Res =  0.2068E-02
 MRCHDU: Convergence failed at  95  side 2    Res =  0.5804E-01
 MRCHDU: Convergence failed at  96  side 2    Res =  0.4873E-01
 MRCHDU: Convergence failed at  97  side 2    Res =  0.5201E-01
 MRCHDU: Convergence failed at  98  side 2    Res =  0.2457E+00
 MRCHDU: Convergence failed at  99  side 2    Res =  0.5645E-02
 Side 1  free  transition at x/c =  0.0289   14
 Side 2 forced transition at x/c =  1.0000   77

 139   rms: 0.4536E+03   max: -.1073E+05   T at   99  2   RLX: 0.000
       a =  8.000      CL =  0.5903
      Cm = -0.0654     CD =*********   =>   CDf =  0.00329    CDp =*********

 MRCHDU: Convergence failed at  94  side 2    Res =  0.2031E-02
 MRCHDU: Convergence failed at  95  side 2    Res =  0.5821E-01
 MRCHDU: Convergence failed at  96  side 2    Res =  0.4867E-01
 MRCHDU: Convergence failed at  97  side 2    Res =  0.5845E-01
 MRCHDU: Convergence failed at  98  side 2    Res =  0.5692E-01
 MRCHDU: Convergence failed at  99  side 2    Res =  0.1214E-02
 Side 1  free  transition at x/c =  0.0289   14
 Side 2 forced transition at x/c =  1.0000   77

 140   rms: 0.6410E+04   max: -.1560E+06   T at   99  2   RLX: 0.000
       a =  8.000      CL =  0.5904
      Cm = -0.0655     CD =+Infinity   =>   CDf =  0.00329    CDp =+Infinity

 MRCHDU: Convergence failed at  94  side 2    Res =  0.2027E-02
 MRCHDU: Convergence failed at  95  side 2    Res =  0.5823E-01
 MRCHDU: Convergence failed at  96  side 2    Res =  0.4858E-01
 MRCHDU: Convergence failed at  97  side 2    Res =  0.6096E-01
 MRCHDU: Convergence failed at  98  side 2    Res =  0.3308E-01
 MRCHDU: Convergence failed at  99  side 2    Res =  0.3916E-03
 Side 1  free  transition at x/c =  0.0289   14
 Side 2 forced transition at x/c =  1.0000   77

 141   rms: 0.2749E+04   max: 0.6615E+05   T at   99  2   RLX: 0.000
       a =  8.000      CL =  0.5910
      Cm = -0.0656     CD =*********   =>   CDf =  0.00329    CDp =*********

 MRCHDU: Convergence failed at  94  side 2    Res =  0.2007E-02
 MRCHDU: Convergence failed at  95  side 2    Res =  0.5833E-01
 MRCHDU: Convergence failed at  96  side 2    Res =  0.4850E-01
 MRCHDU: Convergence failed at  97  side 2    Res =  0.6434E-01
 MRCHDU: Convergence failed at  98  side 2    Res =  0.7342E+00
 MRCHDU: Convergence failed at  99  side 2    Res =  0.2440E-02
 Side 1  free  transition at x/c =  0.0289   14
 Side 2 forced transition at x/c =  1.0000   77

 142   rms: 0.1959E+04   max: -.4763E+05   T at   99  2   RLX: 0.000
       a =  8.000      CL =  0.5914
      Cm = -0.0656     CD =+Infinity   =>   CDf =  0.00329    CDp =+Infinity

 MRCHDU: Convergence failed at  94  side 2    Res =  0.1995E-02
 MRCHDU: Convergence failed at  95  side 2    Res =  0.5841E-01
 MRCHDU: Convergence failed at  96  side 2    Res =  0.4801E-01
 MRCHDU: Convergence failed at  97  side 2    Res =  0.7755E-01
 MRCHDU: Convergence failed at  98  side 2    Res =  0.1449E+00
 MRCHDU: Convergence failed at  99  side 2    Res =  0.7918E-03
 Side 1  free  transition at x/c =  0.0289   14
 Side 2 forced transition at x/c =  1.0000   77

 143   rms: 0.1513E+04   max: 0.3654E+05   T at   99  2   RLX: 0.000
       a =  8.000      CL =  0.5919
      Cm = -0.0657     CD =*********   =>   CDf =  0.00329    CDp =*********

 MRCHDU: Convergence failed at  94  side 2    Res =  0.1980E-02
 MRCHDU: Convergence failed at  95  side 2    Res =  0.5837E-01
 MRCHDU: Convergence failed at  96  side 2    Res =  0.5122E-01
 MRCHDU: Convergence failed at  97  side 2    Res =  0.4089E-01
 MRCHDU: Convergence failed at  98  side 2    Res =  0.8739E+00
 MRCHDU: Convergence failed at  99  side 2    Res =  0.3545E-02
 Side 1  free  transition at x/c =  0.0289   14
 Side 2 forced transition at x/c =  1.0000   77

 144   rms: 0.8287E+03   max: -.2010E+05   T at   99  2   RLX: 0.000
       a =  8.000      CL =  0.5926
      Cm = -0.0658     CD =+Infinity   =>   CDf =  0.00329    CDp =+Infinity

 MRCHDU: Convergence failed at  94  side 2    Res =  0.1959E-02
 MRCHDU: Convergence failed at  95  side 2    Res =  0.5847E-01
 MRCHDU: Convergence failed at  96  side 2    Res =  0.5131E-01
 MRCHDU: Convergence failed at  97  side 2    Res =  0.4256E-01
 MRCHDU: Convergence failed at  98  side 2    Res =  0.2670E-01
 MRCHDU: Convergence failed at  99  side 2    Res =  0.8381E-03
 Side 1  free  transition at x/c =  0.0289   14
 Side 2 forced transition at x/c =  1.0000   77

 145   rms: 0.1541E+05   max: 0.3744E+06   T at   99  2   RLX: 0.000
       a =  8.000      CL =  0.5928

[TIMEOUT]
