  
       XFOIL         Version 6.99
  
 Calculated polar for: OAF095 AIRFOIL                                  
  
 1 1 Reynolds number fixed          Mach number fixed         
  
 xtrf =   1.000 (top)        1.000 (bottom)  
 Mach =   0.000     Re =     0.400 e 6     Ncrit =   9.000
  
   alpha    CL        CD       CDp       CM     Top_Xtr  Bot_Xtr
  ------ -------- --------- --------- -------- -------- --------
  -4.000   0.0716   0.00962   0.00360  -0.1290   0.9104   0.1699
  -3.500   0.1273   0.00938   0.00335  -0.1285   0.8953   0.1983
  -3.000   0.1841   0.00918   0.00315  -0.1284   0.8805   0.2275
  -2.500   0.2412   0.00900   0.00299  -0.1283   0.8656   0.2579
  -2.000   0.2989   0.00884   0.00287  -0.1283   0.8508   0.2900
  -1.500   0.3566   0.00872   0.00280  -0.1283   0.8355   0.3236
  -1.000   0.4143   0.00864   0.00277  -0.1283   0.8197   0.3582
  -0.500   0.4722   0.00861   0.00279  -0.1284   0.8039   0.3930
   0.000   0.5299   0.00859   0.00281  -0.1283   0.7869   0.4274
   0.500   0.5877   0.00857   0.00285  -0.1283   0.7676   0.4621
   1.000   0.6456   0.00856   0.00295  -0.1284   0.7483   0.4994
   1.500   0.7028   0.00855   0.00301  -0.1282   0.7242   0.5461
   2.000   0.7602   0.00846   0.00315  -0.1282   0.6967   0.6225
   2.500   0.8063   0.00779   0.00319  -0.1253   0.6675   1.0000
   3.000   0.8631   0.00807   0.00333  -0.1252   0.6321   1.0000
   3.500   0.9196   0.00839   0.00355  -0.1250   0.5907   1.0000
   4.000   0.9748   0.00887   0.00383  -0.1246   0.5358   1.0000
   4.500   1.0276   0.00971   0.00429  -0.1240   0.4463   1.0000
   5.000   1.0739   0.01160   0.00527  -0.1230   0.2694   1.0000
   5.500   1.1194   0.01356   0.00650  -0.1219   0.1403   1.0000
   6.000   1.1661   0.01517   0.00772  -0.1207   0.0796   1.0000
   6.500   1.2134   0.01652   0.00898  -0.1193   0.0582   1.0000
   7.000   1.2592   0.01791   0.01039  -0.1177   0.0475   1.0000
   7.500   1.3021   0.01951   0.01204  -0.1157   0.0405   1.0000
   8.000   1.3397   0.02156   0.01412  -0.1129   0.0353   1.0000
   8.500   1.3805   0.02308   0.01579  -0.1105   0.0323   1.0000
   9.000   1.4159   0.02497   0.01772  -0.1076   0.0293   1.0000
   9.500   1.4459   0.02756   0.02049  -0.1038   0.0273   1.0000
  10.000   1.4764   0.02968   0.02280  -0.1001   0.0255   1.0000
  10.000   1.4764   0.02968   0.02280  -0.1001   0.0255   1.0000
  10.250   1.4890   0.03071   0.02389  -0.0980   0.0247   1.0000
  10.500   1.4994   0.03183   0.02504  -0.0957   0.0239   1.0000
  10.750   1.5090   0.03367   0.02694  -0.0934   0.0231   1.0000
  11.000   1.5189   0.03568   0.02911  -0.0912   0.0225   1.0000
  11.250   1.5281   0.03707   0.03066  -0.0889   0.0221   1.0000
  11.500   1.5363   0.03869   0.03244  -0.0867   0.0216   1.0000
  11.750   1.5434   0.04048   0.03439  -0.0846   0.0211   1.0000
  12.000   1.5492   0.04238   0.03645  -0.0825   0.0206   1.0000
  12.250   1.5539   0.04436   0.03857  -0.0805   0.0202   1.0000
  12.500   1.5568   0.04643   0.04080  -0.0786   0.0198   1.0000
  12.750   1.5593   0.04853   0.04301  -0.0769   0.0194   1.0000
  13.000   1.5612   0.05071   0.04528  -0.0754   0.0191   1.0000
  13.250   1.5618   0.05328   0.04794  -0.0739   0.0187   1.0000
  13.500   1.5572   0.05684   0.05164  -0.0724   0.0184   1.0000
  13.750   1.5420   0.06185   0.05693  -0.0709   0.0181   1.0000
  14.000   1.5319   0.06560   0.06091  -0.0703   0.0180   1.0000
  14.250   1.5196   0.06994   0.06548  -0.0701   0.0179   1.0000
  14.500   1.5049   0.07488   0.07065  -0.0705   0.0178   1.0000
  14.750   1.4876   0.08045   0.07645  -0.0715   0.0177   1.0000
  15.000   1.4684   0.08665   0.08289  -0.0733   0.0176   1.0000
  15.250   1.4473   0.09366   0.09013  -0.0759   0.0176   1.0000
  15.500   1.4246   0.10148   0.09817  -0.0795   0.0176   1.0000
  15.750   1.4005   0.11024   0.10714  -0.0842   0.0176   1.0000
  16.000   1.3747   0.12003   0.11714  -0.0900   0.0177   1.0000
