  
       XFOIL         Version 6.99
  
 Calculated polar for: OAF128 AIRFOIL                                  
  
 1 1 Reynolds number fixed          Mach number fixed         
  
 xtrf =   1.000 (top)        1.000 (bottom)  
 Mach =   0.000     Re =     0.150 e 6     Ncrit =   9.000
  
   alpha    CL        CD       CDp       CM     Top_Xtr  Bot_Xtr
  ------ -------- --------- --------- -------- -------- --------
  -4.000  -0.3209   0.01409   0.00682  -0.0331   1.0000   0.3432
  -3.500  -0.2577   0.01363   0.00654  -0.0349   1.0000   0.3796
  -3.000  -0.1824   0.01344   0.00649  -0.0392   0.9567   0.4188
  -2.500  -0.1296   0.01366   0.00667  -0.0371   0.8816   0.4517
  -2.000  -0.0821   0.01375   0.00664  -0.0339   0.8236   0.4840
  -1.500  -0.0301   0.01380   0.00657  -0.0319   0.7744   0.5196
  -1.000   0.0248   0.01372   0.00646  -0.0307   0.7306   0.5519
  -0.500   0.0809   0.01366   0.00633  -0.0299   0.6897   0.5860
   0.000   0.1378   0.01360   0.00624  -0.0292   0.6519   0.6241
   0.500   0.1948   0.01360   0.00628  -0.0287   0.6202   0.6723
   1.000   0.2494   0.01357   0.00639  -0.0274   0.5911   0.7311
   1.500   0.2995   0.01350   0.00655  -0.0250   0.5641   0.8108
   2.000   0.3393   0.01307   0.00629  -0.0198   0.5389   0.9405
   2.500   0.4073   0.01336   0.00631  -0.0224   0.5120   1.0000
   3.000   0.4702   0.01380   0.00661  -0.0237   0.4835   1.0000
   3.500   0.5310   0.01420   0.00681  -0.0244   0.4524   1.0000
   4.000   0.5908   0.01458   0.00699  -0.0250   0.4200   1.0000
   4.500   0.6506   0.01500   0.00733  -0.0255   0.3882   1.0000
   5.000   0.7098   0.01548   0.00775  -0.0260   0.3562   1.0000
   5.500   0.7682   0.01601   0.00821  -0.0264   0.3234   1.0000
   6.000   0.8259   0.01663   0.00875  -0.0268   0.2873   1.0000
   6.500   0.8823   0.01749   0.00946  -0.0271   0.2446   1.0000
   7.000   0.9364   0.01892   0.01061  -0.0274   0.1991   1.0000
   7.500   0.9897   0.02049   0.01206  -0.0275   0.1663   1.0000
   8.000   1.0419   0.02213   0.01364  -0.0274   0.1458   1.0000
   8.500   1.0926   0.02400   0.01547  -0.0270   0.1318   1.0000
   9.000   1.1420   0.02612   0.01762  -0.0265   0.1210   1.0000
   9.500   1.1902   0.02852   0.02004  -0.0260   0.1125   1.0000
  10.000   1.2376   0.03084   0.02238  -0.0253   0.1050   1.0000
  10.000   1.2376   0.03084   0.02238  -0.0253   0.1050   1.0000
  10.250   1.2598   0.03247   0.02411  -0.0249   0.1018   1.0000
  10.500   1.2809   0.03378   0.02565  -0.0244   0.0986   1.0000
  10.750   1.3025   0.03507   0.02702  -0.0239   0.0956   1.0000
  11.000   1.3256   0.03678   0.02860  -0.0237   0.0929   1.0000
  11.250   1.3420   0.03864   0.03077  -0.0229   0.0906   1.0000
  11.500   1.3578   0.04039   0.03279  -0.0221   0.0881   1.0000
  11.750   1.3742   0.04202   0.03458  -0.0214   0.0858   1.0000
  12.000   1.3936   0.04358   0.03611  -0.0209   0.0836   1.0000
  12.250   1.4072   0.04625   0.03890  -0.0203   0.0817   1.0000
  12.500   1.4084   0.04877   0.04185  -0.0187   0.0803   1.0000
  12.750   1.4077   0.05146   0.04486  -0.0172   0.0788   1.0000
  13.000   1.4064   0.05400   0.04763  -0.0158   0.0774   1.0000
  13.250   1.4083   0.05612   0.04986  -0.0144   0.0760   1.0000
  13.500   1.4093   0.05836   0.05216  -0.0133   0.0748   1.0000
  13.750   1.4248   0.06131   0.05502  -0.0130   0.0732   1.0000
  14.000   1.3975   0.06555   0.05959  -0.0125   0.0729   1.0000
  14.250   1.3678   0.07110   0.06545  -0.0142   0.0728   1.0000
  14.500   1.3344   0.07809   0.07273  -0.0176   0.0728   1.0000
  14.750   1.2962   0.08674   0.08166  -0.0227   0.0728   1.0000
  15.000   1.2523   0.09732   0.09249  -0.0294   0.0731   1.0000
  15.500   0.6463   0.17867   0.17471  -0.0670   0.1092   1.0000
  15.750   0.6532   0.18102   0.17708  -0.0674   0.1063   1.0000
  16.000   0.6685   0.18366   0.17973  -0.0667   0.1045   1.0000
