
 ===================================================
  XFOIL Version 6.99
  Copyright (C) 2000   Mark Drela, Harold Youngren

  This software comes with ABSOLUTELY NO WARRANTY,
    subject to the GNU General Public License.

  Caveat computor
 ===================================================

 File  xfoil.def  not found

   QUIT    Exit program

  .OPER    Direct operating point(s)
  .MDES    Complex mapping design routine
  .QDES    Surface speed design routine
  .GDES    Geometry design routine

   SAVE f  Write airfoil to labeled coordinate file
   PSAV f  Write airfoil to plain coordinate file
   ISAV f  Write airfoil to ISES coordinate file
   MSAV f  Write airfoil to MSES coordinate file
   REVE    Reverse written-airfoil node ordering

   LOAD f  Read buffer airfoil from coordinate file
   NACA i  Set NACA 4,5-digit airfoil and buffer airfoil
   INTE    Set buffer airfoil by interpolating two airfoils
   NORM    Buffer airfoil normalization toggle
   XYCM rr Change CM reference location, currently  0.25000 0.00000

   BEND    Display structural properties of current airfoil

   PCOP    Set current-airfoil panel nodes directly from buffer airfoil points
   PANE    Set current-airfoil panel nodes ( 160 ) based on curvature
  .PPAR    Show/change paneling

  .PLOP    Plotting options

   WDEF f  Write  current-settings file
   RDEF f  Reread current-settings file
   NAME s  Specify new airfoil name
   NINC    Increment name version number

   Z       Zoom    | (available in all menus)
   U       Unzoom  | 

 XFOIL   c>  
 Labeled airfoil file.  Name:  P-51D ROOT (BL17.5) AIRFOIL                     

 Number of input coordinate points:  41
 Counterclockwise ordering
 Max thickness =     0.165152  at x =   0.389
 Max camber    =     0.012444  at x =   0.683

  LE  x,y  =  -0.00001   0.00063  |   Chord =   1.00001
  TE  x,y  =   1.00000   0.00000  |

 Current airfoil nodes set from buffer airfoil nodes (  41 )

 WARNING: Poor input coordinate distribution
          Excessive panel angle   42.9  at i =  21
          Repaneling with PANE and/or PPAR suggested
           (doing GDES,CADD before repaneling _may_
            improve excessively coarse LE spacing

 XFOIL   c>  
 XFOIL   c>  
 Sharp trailing edge

 Paneling parameters used...
   Number of panel nodes       160
   Panel bunching parameter    1.000
   TE/LE panel density ratio   0.150
   Refined-area/LE panel density ratio    0.200
   Top    side refined area x/c limits  1.000 1.000
   Bottom side refined area x/c limits  1.000 1.000

 XFOIL   c>  
.OPERi   c>  
 Xtr/c     =  1.0000    top    side
 Xtr/c     =  1.0000    bottom side
 Ncrit     =    9.00   ( 0.070 % turb. level )
 Vacc      =  0.0100

 Klag  =  5.6000     Uxwt  =    1.00
 A     =  6.7000     B     =  0.7500       KCt = 0.01485
 CtiniK=  1.8000     CtiniX=  3.3000

..VPAR   c>  
..VPAR   c>  
.OPERi   c>  
 M  =    0.0000
 Re =    500000

.OPERv   c>  
.OPERv   c>  
.OPERv   c>  
 Polar  1 newly created for accumulation
 Airfoil archived with polar: P-51D ROOT (BL17.5) AIRFOIL                     

Enter  polar save filename  OR  <return> for no file   s>  
 New polar save file available

Enter  polar dump filename  OR  <return> for no file   s>  
 Polar dump file will NOT be written

 Polar accumulation enabled

.OPERva   c>   Calculating unit vorticity distributions ...
 Calculating wake trajectory ...
 Calculating source influence matrix ...

 Solving BL system ...

 Initializing BL ...
    side            1  ...
 MRCHUE: Inverse mode at  43     Hk =   4.474
 MRCHUE: Inverse mode at  44     Hk =   5.351
 MRCHUE: Inverse mode at  45     Hk =   6.212
 MRCHUE: Inverse mode at  46     Hk =   7.063
 MRCHUE: Inverse mode at  47     Hk =   7.905
 MRCHUE: Inverse mode at  48     Hk =   8.737
 MRCHUE: Inverse mode at  49     Hk =   9.281
 MRCHUE: Inverse mode at  50     Hk =   5.376
 MRCHUE: Inverse mode at  51     Hk =   3.607
 MRCHUE: Inverse mode at  52     Hk =   2.500
    side            2  ...
 MRCHUE: Inverse mode at  26     Hk =   4.303
 MRCHUE: Inverse mode at  27     Hk =   5.481
 MRCHUE: Inverse mode at  28     Hk =   6.735
 MRCHUE: Inverse mode at  29     Hk =   8.053
 MRCHUE: Inverse mode at  30     Hk =   9.398
 MRCHUE: Inverse mode at  31     Hk =   5.724
 MRCHUE: Inverse mode at  32     Hk =   2.500
 MRCHUE: Inverse mode at  87     Hk =   2.500

 Side 1  free  transition at x/c =  0.5965   49
 Side 2  free  transition at x/c =  0.0894   31

   1   rms: 0.2564E+00   max: -.1986E+01   T at   49  1   RLX: 0.252
       a = -4.000      CL = -0.3106
      Cm = -0.0290     CD =  0.01276   =>   CDf =  0.00794    CDp =  0.00482

 MRCHDU: Convergence failed at  51  side 1    Res =  0.3564E+01
 MRCHDU: Convergence failed at  52  side 1    Res =  0.1354E+02
 Side 1  free  transition at x/c =  0.6145   50
 Side 2  free  transition at x/c =  0.0961   31

   2   rms: 0.1638E+00   max: -.2086E+01   T at   31  2   RLX: 0.240
       a = -4.000      CL = -0.2880
      Cm = -0.0358     CD =  0.01144   =>   CDf =  0.00779    CDp =  0.00366

 Side 1  free  transition at x/c =  0.6237   51
 Side 2  free  transition at x/c =  0.1074   32

   3   rms: 0.1915E+00   max: -.2233E+01   T at   32  2   RLX: 0.224
       a = -4.000      CL = -0.2856
      Cm = -0.0354     CD =  0.01091   =>   CDf =  0.00786    CDp =  0.00306

 Side 1  free  transition at x/c =  0.6305   51
 Side 2  free  transition at x/c =  0.1270   34

   4   rms: 0.3609E+00   max: -.5525E+01   C at   34  2   RLX: 0.091
       a = -4.000      CL = -0.2849
      Cm = -0.0350     CD =  0.01067   =>   CDf =  0.00771    CDp =  0.00296

 Side 1  free  transition at x/c =  0.6328   52
 Side 2  free  transition at x/c =  0.1404   35

   5   rms: 0.3557E+00   max: -.5311E+01   C at   35  2   RLX: 0.094
       a = -4.000      CL = -0.2851
      Cm = -0.0347     CD =  0.01047   =>   CDf =  0.00762    CDp =  0.00286

 Side 1  free  transition at x/c =  0.6368   52
 Side 2  free  transition at x/c =  0.1605   36

   6   rms: 0.5758E+00   max: -.1199E+02   C at   36  2   RLX: 0.042
       a = -4.000      CL = -0.2843
      Cm = -0.0346     CD =  0.01034   =>   CDf =  0.00742    CDp =  0.00293

 Side 1  free  transition at x/c =  0.6382   52
 Side 2  free  transition at x/c =  0.1690   36

   7   rms: 0.1272E+01   max: -.2844E+02   C at   36  2   RLX: 0.018
       a = -4.000      CL = -0.2849
      Cm = -0.0347     CD =  0.01023   =>   CDf =  0.00729    CDp =  0.00295

 Side 1  free  transition at x/c =  0.6387   52
 Side 2  free  transition at x/c =  0.1683   36

   8   rms: 0.1888E+00   max: -.2673E+01   C at   36  2   RLX: 0.187
       a = -4.000      CL = -0.2809
      Cm = -0.0352     CD =  0.01016   =>   CDf =  0.00732    CDp =  0.00284

 Side 1  free  transition at x/c =  0.6449   52
 Side 2  free  transition at x/c =  0.1922   38

   9   rms: 0.3512E+00   max: -.6742E+01   C at   38  2   RLX: 0.074
       a = -4.000      CL = -0.2797
      Cm = -0.0351     CD =  0.01001   =>   CDf =  0.00715    CDp =  0.00286

 Side 1  free  transition at x/c =  0.6471   52
 Side 2  free  transition at x/c =  0.2019   38

  10   rms: 0.2755E+00   max: -.5890E+01   C at   38  2   RLX: 0.085
       a = -4.000      CL = -0.2781
      Cm = -0.0353     CD =  0.00997   =>   CDf =  0.00705    CDp =  0.00292

 Side 1  free  transition at x/c =  0.6495   52
 Side 2  free  transition at x/c =  0.2075   39

  11   rms: 0.3043E+00   max: -.5715E+01   C at   39  2   RLX: 0.087
       a = -4.000      CL = -0.2786
      Cm = -0.0353     CD =  0.00988   =>   CDf =  0.00704    CDp =  0.00284

 Side 1  free  transition at x/c =  0.6487   52
 Side 2  free  transition at x/c =  0.2204   40

  12   rms: 0.3840E+00   max: -.7725E+01   C at   40  2   RLX: 0.065
       a = -4.000      CL = -0.2788
      Cm = -0.0350     CD =  0.00994   =>   CDf =  0.00707    CDp =  0.00287

 Side 1  free  transition at x/c =  0.6502   53
 Side 2  free  transition at x/c =  0.2818   43

  13   rms: 0.5310E+00   max: -.1140E+02   C at   43  2   RLX: 0.044
       a = -4.000      CL = -0.2800
      Cm = -0.0350     CD =  0.00954   =>   CDf =  0.00677    CDp =  0.00277

 Side 1  free  transition at x/c =  0.6516   53
 Side 2  free  transition at x/c =  0.3337   46

  14   rms: 0.2140E+00   max: -.4205E+01   C at   46  2   RLX: 0.119
       a = -4.000      CL = -0.2816
      Cm = -0.0352     CD =  0.00916   =>   CDf =  0.00655    CDp =  0.00261

 Side 1  free  transition at x/c =  0.6554   53
 Side 2  free  transition at x/c =  0.3922   50

  15   rms: 0.5199E+00   max: -.1073E+02   C at   50  2   RLX: 0.047
       a = -4.000      CL = -0.2843
      Cm = -0.0350     CD =  0.00868   =>   CDf =  0.00621    CDp =  0.00248

 Side 1  free  transition at x/c =  0.6566   53
 Side 2  free  transition at x/c =  0.4028   51

  16   rms: 0.5736E+00   max: -.1171E+02   C at   51  2   RLX: 0.043
       a = -4.000      CL = -0.2855
      Cm = -0.0350     CD =  0.00856   =>   CDf =  0.00611    CDp =  0.00245

 Side 1  free  transition at x/c =  0.6577   53
 Side 2  free  transition at x/c =  0.4178   51

  17   rms: 0.6489E+00   max: -.1306E+02   C at   51  2   RLX: 0.038
       a = -4.000      CL = -0.2861
      Cm = -0.0350     CD =  0.00850   =>   CDf =  0.00602    CDp =  0.00247

 Side 1  free  transition at x/c =  0.6586   53
 Side 2  free  transition at x/c =  0.4331   52

  18   rms: 0.5138E+00   max: -.1036E+02   C at   52  2   RLX: 0.048
       a = -4.000      CL = -0.2870
      Cm = -0.0349     CD =  0.00841   =>   CDf =  0.00594    CDp =  0.00247

 Side 1  free  transition at x/c =  0.6598   53
 Side 2  free  transition at x/c =  0.4513   54

  19   rms: 0.3911E+00   max: -.7633E+01   C at   54  2   RLX: 0.066
       a = -4.000      CL = -0.2885
      Cm = -0.0348     CD =  0.00829   =>   CDf =  0.00584    CDp =  0.00245

 Side 1  free  transition at x/c =  0.6613   53
 Side 2  free  transition at x/c =  0.4638   54

  20   rms: 0.2423E+00   max: -.4747E+01   C at   54  2   RLX: 0.105
       a = -4.000      CL = -0.2885
      Cm = -0.0350     CD =  0.00825   =>   CDf =  0.00576    CDp =  0.00249

 Side 1  free  transition at x/c =  0.6637   53
 Side 2  free  transition at x/c =  0.4823   55

  21   rms: 0.8651E-01   max: -.1165E+01   C at   53  1   RLX: 0.429
       a = -4.000      CL = -0.2881
      Cm = -0.0358     CD =  0.00817   =>   CDf =  0.00566    CDp =  0.00251

 Side 1  free  transition at x/c =  0.6680   54
 Side 2  free  transition at x/c =  0.5350   59

  22   rms: 0.4869E-01   max: -.5280E+00   C at   54  1   RLX: 0.947
       a = -4.000      CL = -0.2896
      Cm = -0.0362     CD =  0.00805   =>   CDf =  0.00551    CDp =  0.00254

 Side 1  free  transition at x/c =  0.6978   55
 Side 2  free  transition at x/c =  0.5270   58

  23   rms: 0.2027E-01   max: -.3068E+00   C at   55  1
       a = -4.000      CL = -0.2884
      Cm = -0.0366     CD =  0.00812   =>   CDf =  0.00538    CDp =  0.00274

 Side 1  free  transition at x/c =  0.6987   55
 Side 2  free  transition at x/c =  0.5266   58

  24   rms: 0.3813E-02   max: 0.7488E-01   C at   55  1
       a = -4.000      CL = -0.2884
      Cm = -0.0366     CD =  0.00814   =>   CDf =  0.00529    CDp =  0.00285

 Side 1  free  transition at x/c =  0.6967   55
 Side 2  free  transition at x/c =  0.5261   58

  25   rms: 0.4516E-04   max: -.6942E-03   C at   55  1
       a = -4.000      CL = -0.2884
      Cm = -0.0366     CD =  0.00814   =>   CDf =  0.00531    CDp =  0.00283
 plradd ia,ip,cpol            1           0  1.68904569E-02

 Point added to stored polar  1
 Point written to save file  p51droot_Re500k.base.pol                        
 Dump file unspecified or not available
 Calculating wake trajectory ...
 Calculating source influence matrix ...

 Solving BL system ...

 Side 1  free  transition at x/c =  0.6967   55
 Side 2  free  transition at x/c =  0.5261   58

   1   rms: 0.1310E+00   max: 0.1385E+01   C at   55  1   RLX: 0.507
       a = -3.500      CL = -0.2618
      Cm = -0.0362     CD =  0.00828   =>   CDf =  0.00535    CDp =  0.00293

 Side 1  free  transition at x/c =  0.6749   55
 Side 2  free  transition at x/c =  0.5466   58

   2   rms: 0.4684E-01   max: 0.3124E+00   C at   55  1
       a = -3.500      CL = -0.2345
      Cm = -0.0361     CD =  0.00844   =>   CDf =  0.00544    CDp =  0.00301

 Side 1  free  transition at x/c =  0.6618   54
 Side 2  free  transition at x/c =  0.5634   59

   3   rms: 0.6848E-02   max: 0.9400E-01   D at   60  2
       a = -3.500      CL = -0.2350
      Cm = -0.0360     CD =  0.00842   =>   CDf =  0.00554    CDp =  0.00288

 Side 1  free  transition at x/c =  0.6621   54
 Side 2  free  transition at x/c =  0.5596   59

   4   rms: 0.8016E-03   max: -.9215E-02   D at   60  2
       a = -3.500      CL = -0.2350
      Cm = -0.0360     CD =  0.00843   =>   CDf =  0.00553    CDp =  0.00289

 Side 1  free  transition at x/c =  0.6621   54
 Side 2  free  transition at x/c =  0.5598   59

   5   rms: 0.3966E-05   max: -.6607E-04   D at   61  2
       a = -3.500      CL = -0.2350
      Cm = -0.0360     CD =  0.00843   =>   CDf =  0.00553    CDp =  0.00289
 plradd ia,ip,cpol            2           0  1.68904569E-02

 Point added to stored polar  1
 Point written to save file  p51droot_Re500k.base.pol                        
 Dump file unspecified or not available
 Calculating wake trajectory ...
 Calculating source influence matrix ...

 Solving BL system ...

 Side 1  free  transition at x/c =  0.6621   54
 Side 2  free  transition at x/c =  0.5598   59

   1   rms: 0.8611E-01   max: 0.5388E+00   C at   54  1
       a = -3.000      CL = -0.1793
      Cm = -0.0359     CD =  0.00869   =>   CDf =  0.00557    CDp =  0.00312

 Side 1  free  transition at x/c =  0.6409   54
 Side 2  free  transition at x/c =  0.5832   60

   2   rms: 0.1379E-01   max: 0.1537E+00   D at   60  2
       a = -3.000      CL = -0.1797
      Cm = -0.0358     CD =  0.00869   =>   CDf =  0.00571    CDp =  0.00298

 Side 1  free  transition at x/c =  0.6421   54
 Side 2  free  transition at x/c =  0.5819   60

   3   rms: 0.1302E-02   max: -.1615E-01   D at   61  2
       a = -3.000      CL = -0.1796
      Cm = -0.0358     CD =  0.00871   =>   CDf =  0.00572    CDp =  0.00299

 Side 1  free  transition at x/c =  0.6419   54
 Side 2  free  transition at x/c =  0.5816   60

   4   rms: 0.2899E-04   max: -.5274E-03   D at   61  2
       a = -3.000      CL = -0.1796
      Cm = -0.0358     CD =  0.00871   =>   CDf =  0.00573    CDp =  0.00298
 plradd ia,ip,cpol            3           0  2.03576051E-02

 Point added to stored polar  1
 Point written to save file  p51droot_Re500k.base.pol                        
 Dump file unspecified or not available
 Calculating wake trajectory ...
 Calculating source influence matrix ...

 Solving BL system ...

 Side 1  free  transition at x/c =  0.6419   54
 Side 2  free  transition at x/c =  0.5816   60

   1   rms: 0.8795E-01   max: 0.4513E+00   D at   60  2
       a = -2.500      CL = -0.1247
      Cm = -0.0354     CD =  0.00875   =>   CDf =  0.00576    CDp =  0.00299

 Side 1  free  transition at x/c =  0.6274   54
 Side 2  free  transition at x/c =  0.5937   59

   2   rms: 0.3456E-01   max: -.3020E+00   D at   59  2
       a = -2.500      CL = -0.1236
      Cm = -0.0357     CD =  0.00899   =>   CDf =  0.00590    CDp =  0.00309

 Side 1  free  transition at x/c =  0.6278   54
 Side 2  free  transition at x/c =  0.5983   59

   3   rms: 0.3991E-02   max: 0.5185E-01   D at   60  2
       a = -2.500      CL = -0.1238
      Cm = -0.0356     CD =  0.00898   =>   CDf =  0.00586    CDp =  0.00312

 Side 1  free  transition at x/c =  0.6276   54
 Side 2  free  transition at x/c =  0.5975   59

   4   rms: 0.5932E-04   max: 0.6177E-03   D at   61  2
       a = -2.500      CL = -0.1238
      Cm = -0.0356     CD =  0.00898   =>   CDf =  0.00585    CDp =  0.00312
 plradd ia,ip,cpol            4           0  2.03576051E-02

 Point added to stored polar  1
 Point written to save file  p51droot_Re500k.base.pol                        
 Dump file unspecified or not available
 Calculating wake trajectory ...
 Calculating source influence matrix ...

 Solving BL system ...

 Side 1  free  transition at x/c =  0.6276   54
 Side 2  free  transition at x/c =  0.5975   59

   1   rms: 0.8167E-01   max: 0.4358E+00   C at   59  2
       a = -2.000      CL = -0.0671
      Cm = -0.0358     CD =  0.00927   =>   CDf =  0.00585    CDp =  0.00341

 MRCHDU: Convergence failed at  61  side 2    Res =  0.1513E+02
 MRCHDU: Convergence failed at  62  side 2    Res =  0.1290E+01
 MRCHDU: Convergence failed at  63  side 2    Res =  0.1915E+01
 MRCHDU: Convergence failed at  64  side 2    Res =  0.2790E+01
 MRCHDU: Convergence failed at  65  side 2    Res =  0.3824E+01
 MRCHDU: Convergence failed at  66  side 2    Res =  0.4901E+01
 MRCHDU: Convergence failed at  67  side 2    Res =  0.5967E+01
 MRCHDU: Convergence failed at  68  side 2    Res =  0.6780E+01
 MRCHDU: Convergence failed at  69  side 2    Res =  0.7359E+01
 MRCHDU: Convergence failed at  70  side 2    Res =  0.7795E+01
 MRCHDU: Convergence failed at  71  side 2    Res =  0.8186E+01
 MRCHDU: Convergence failed at  72  side 2    Res =  0.8718E+01
 MRCHDU: Convergence failed at  73  side 2    Res =  0.9287E+01
 MRCHDU: Convergence failed at  74  side 2    Res =  0.9919E+01
 MRCHDU: Convergence failed at  75  side 2    Res =  0.1031E+02
 MRCHDU: Convergence failed at  76  side 2    Res =  0.1059E+02
 MRCHDU: Convergence failed at  77  side 2    Res =  0.1058E+02
 MRCHDU: Convergence failed at  78  side 2    Res =  0.1055E+02
 MRCHDU: Convergence failed at  79  side 2    Res =  0.1053E+02
 MRCHDU: Convergence failed at  80  side 2    Res =  0.1039E+02
 MRCHDU: Convergence failed at  81  side 2    Res =  0.1001E+02
 MRCHDU: Convergence failed at  82  side 2    Res =  0.9195E+01
 MRCHDU: Convergence failed at  83  side 2    Res =  0.7954E+01
 MRCHDU: Convergence failed at  84  side 2    Res =  0.8135E+01
 Side 1  free  transition at x/c =  0.6152   54
 Side 2  free  transition at x/c =  0.6124   60

   2   rms: 0.2986E+00   max: 0.1410E+01   D at   84  2
       a = -2.000      CL = -0.0119
      Cm = -0.0447     CD =  0.00699   =>   CDf =  0.00486    CDp =  0.00213

 Side 1  free  transition at x/c =  0.6157   55
 Side 2  free  transition at x/c =  0.6115   59
 idif Ue xi dudx           1  0.12432520      2.06172466E-03   60.301556    
 Uenew xinew           2  1.21485745E-03  2.01463699E-05

   3   rms: 0.5069E-01   max: -.3026E+00   D at   62  2
       a = -2.000      CL = -0.0686
      Cm = -0.0354     CD =  0.00913   =>   CDf =  0.00598    CDp =  0.00315

 Side 1  free  transition at x/c =  0.6163   54
 Side 2  free  transition at x/c =  0.6099   60

   4   rms: 0.5274E-02   max: -.6378E-01   T at    2  2
       a = -2.000      CL = -0.0675
      Cm = -0.0356     CD =  0.00918   =>   CDf =  0.00593    CDp =  0.00325

 Side 1  free  transition at x/c =  0.6162   54
 Side 2  free  transition at x/c =  0.6091   60

   5   rms: 0.5714E-03   max: -.6271E-02   D at    4  2
       a = -2.000      CL = -0.0675
      Cm = -0.0356     CD =  0.00918   =>   CDf =  0.00593    CDp =  0.00324

 Side 1  free  transition at x/c =  0.6162   54
 Side 2  free  transition at x/c =  0.6091   60

   6   rms: 0.9895E-05   max: -.1319E-03   D at    4  2
       a = -2.000      CL = -0.0675
      Cm = -0.0356     CD =  0.00918   =>   CDf =  0.00593    CDp =  0.00324
 plradd ia,ip,cpol            5           0  2.85430029E-02

 Point added to stored polar  1
 Point written to save file  p51droot_Re500k.base.pol                        
 Dump file unspecified or not available
 Calculating wake trajectory ...
 Calculating source influence matrix ...

 Solving BL system ...

 Side 1  free  transition at x/c =  0.6162   54
 Side 2  free  transition at x/c =  0.6091   60

   1   rms: 0.9199E-01   max: 0.6934E+00   D at    3  2
       a = -1.500      CL = -0.0115
      Cm = -0.0355     CD =  0.00955   =>   CDf =  0.00595    CDp =  0.00360

 Side 1  free  transition at x/c =  0.6072   54
 Side 2  free  transition at x/c =  0.6198   60

   2   rms: 0.1844E-01   max: -.1595E+00   D at   54  1
       a = -1.500      CL = -0.0108
      Cm = -0.0357     CD =  0.00932   =>   CDf =  0.00603    CDp =  0.00329

 Side 1  free  transition at x/c =  0.6070   54
 Side 2  free  transition at x/c =  0.6211   60

   3   rms: 0.9904E-03   max: -.1055E-01   D at   55  1
       a = -1.500      CL = -0.0107
      Cm = -0.0357     CD =  0.00934   =>   CDf =  0.00598    CDp =  0.00336

 Side 1  free  transition at x/c =  0.6067   54
 Side 2  free  transition at x/c =  0.6211   60

   4   rms: 0.6124E-05   max: -.1208E-03   D at   55  1
       a = -1.500      CL = -0.0107
      Cm = -0.0357     CD =  0.00934   =>   CDf =  0.00598    CDp =  0.00336
 plradd ia,ip,cpol            6           0  2.85430029E-02

 Point added to stored polar  1
 Point written to save file  p51droot_Re500k.base.pol                        
 Dump file unspecified or not available
 Calculating wake trajectory ...
 Calculating source influence matrix ...

 Solving BL system ...

 Side 1  free  transition at x/c =  0.6067   54
 Side 2  free  transition at x/c =  0.6211   60

   1   rms: 0.7722E-01   max: -.2734E+00   T at   60  2
       a = -1.000      CL =  0.0463
      Cm = -0.0358     CD =  0.00947   =>   CDf =  0.00598    CDp =  0.00349

 Side 1  free  transition at x/c =  0.5980   55
 Side 2  free  transition at x/c =  0.6261   59

   2   rms: 0.2629E-01   max: -.2350E+00   D at   59  2
       a = -1.000      CL =  0.0463
      Cm = -0.0359     CD =  0.00952   =>   CDf =  0.00610    CDp =  0.00341

 Side 1  free  transition at x/c =  0.5982   55
 Side 2  free  transition at x/c =  0.6289   59

   3   rms: 0.1920E-02   max: 0.2466E-01   D at   60  2
       a = -1.000      CL =  0.0462
      Cm = -0.0359     CD =  0.00951   =>   CDf =  0.00610    CDp =  0.00341

 Side 1  free  transition at x/c =  0.5982   55
 Side 2  free  transition at x/c =  0.6286   59

   4   rms: 0.1791E-04   max: 0.2435E-03   D at   60  2
       a = -1.000      CL =  0.0462
      Cm = -0.0359     CD =  0.00951   =>   CDf =  0.00609    CDp =  0.00341
 plradd ia,ip,cpol            7           0  0.36488712    

 Point added to stored polar  1
 Point written to save file  p51droot_Re500k.base.pol                        
 Dump file unspecified or not available
 Calculating wake trajectory ...
 Calculating source influence matrix ...

 Solving BL system ...

 Side 1  free  transition at x/c =  0.5982   55
 Side 2  free  transition at x/c =  0.6286   59

   1   rms: 0.7714E-01   max: -.2453E+00   T at   59  2
       a = -0.500      CL =  0.1032
      Cm = -0.0362     CD =  0.00980   =>   CDf =  0.00609    CDp =  0.00371

 Side 1  free  transition at x/c =  0.5911   55
 Side 2  free  transition at x/c =  0.6388   59

   2   rms: 0.1949E-01   max: 0.2335E+00   D at   59  2
       a = -0.500      CL =  0.1032
      Cm = -0.0361     CD =  0.00959   =>   CDf =  0.00614    CDp =  0.00345

 Side 1  free  transition at x/c =  0.5913   55
 Side 2  free  transition at x/c =  0.6377   59

   3   rms: 0.8028E-03   max: -.5945E-02   D at   56  1
       a = -0.500      CL =  0.1033
      Cm = -0.0362     CD =  0.00959   =>   CDf =  0.00611    CDp =  0.00349

 Side 1  free  transition at x/c =  0.5911   55
 Side 2  free  transition at x/c =  0.6376   59

   4   rms: 0.3552E-05   max: -.3511E-04   D at   61  2
       a = -0.500      CL =  0.1033
      Cm = -0.0362     CD =  0.00959   =>   CDf =  0.00611    CDp =  0.00348
 plradd ia,ip,cpol            8           0  0.36488712    

 Point added to stored polar  1
 Point written to save file  p51droot_Re500k.base.pol                        
 Dump file unspecified or not available
 Calculating wake trajectory ...
 Calculating source influence matrix ...

 Solving BL system ...

 Side 1  free  transition at x/c =  0.5911   55
 Side 2  free  transition at x/c =  0.6376   59

   1   rms: 0.8002E-01   max: -.3899E+00   T at   59  2
       a =  0.000      CL =  0.1600
      Cm = -0.0362     CD =  0.00971   =>   CDf =  0.00609    CDp =  0.00362

 Side 1  free  transition at x/c =  0.5819   56
 Side 2  free  transition at x/c =  0.6441   58

   2   rms: 0.4049E-01   max: -.3429E+00   D at   58  2
       a =  0.000      CL =  0.1601
      Cm = -0.0363     CD =  0.00980   =>   CDf =  0.00616    CDp =  0.00364

 Side 1  free  transition at x/c =  0.5831   56
 Side 2  free  transition at x/c =  0.6478   58

   3   rms: 0.3077E-02   max: 0.4139E-01   D at   59  2
       a =  0.000      CL =  0.1601
      Cm = -0.0363     CD =  0.00977   =>   CDf =  0.00615    CDp =  0.00362

 Side 1  free  transition at x/c =  0.5830   56
 Side 2  free  transition at x/c =  0.6473   58

   4   rms: 0.1213E-03   max: 0.1505E-02   D at   59  2
       a =  0.000      CL =  0.1601
      Cm = -0.0363     CD =  0.00977   =>   CDf =  0.00615    CDp =  0.00362

 Side 1  free  transition at x/c =  0.5830   56
 Side 2  free  transition at x/c =  0.6473   58

   5   rms: 0.4418E-06   max: 0.2861E-05   D at   59  2
       a =  0.000      CL =  0.1601
      Cm = -0.0363     CD =  0.00977   =>   CDf =  0.00615    CDp =  0.00362
 plradd ia,ip,cpol            9           0  0.36488712    

 Point added to stored polar  1
 Point written to save file  p51droot_Re500k.base.pol                        
 Dump file unspecified or not available
 Calculating wake trajectory ...
 Calculating source influence matrix ...

 Solving BL system ...

 Side 1  free  transition at x/c =  0.5830   56
 Side 2  free  transition at x/c =  0.6473   58

   1   rms: 0.7592E-01   max: -.2241E+00   T at   58  2
       a =  0.500      CL =  0.2172
      Cm = -0.0366     CD =  0.00997   =>   CDf =  0.00612    CDp =  0.00385

 Side 1  free  transition at x/c =  0.5775   56
 Side 2  free  transition at x/c =  0.6527   58

   2   rms: 0.6074E-02   max: -.5086E-01   C at   56  1
       a =  0.500      CL =  0.2174
      Cm = -0.0367     CD =  0.00983   =>   CDf =  0.00623    CDp =  0.00360

 Side 1  free  transition at x/c =  0.5766   56
 Side 2  free  transition at x/c =  0.6530   58

   3   rms: 0.4392E-03   max: 0.4988E-02   D at   58  2
       a =  0.500      CL =  0.2174
      Cm = -0.0367     CD =  0.00984   =>   CDf =  0.00620    CDp =  0.00364

 Side 1  free  transition at x/c =  0.5765   56
 Side 2  free  transition at x/c =  0.6530   58

   4   rms: 0.2100E-05   max: -.2156E-04   D at    4  1
       a =  0.500      CL =  0.2174
      Cm = -0.0367     CD =  0.00984   =>   CDf =  0.00620    CDp =  0.00364
 plradd ia,ip,cpol           10           0  0.36488712    

 Point added to stored polar  1
 Point written to save file  p51droot_Re500k.base.pol                        
 Dump file unspecified or not available
 Calculating wake trajectory ...
 Calculating source influence matrix ...

 Solving BL system ...

 Side 1  free  transition at x/c =  0.5765   56
 Side 2  free  transition at x/c =  0.6530   58

   1   rms: 0.7544E-01   max: -.2367E+00   T at   58  2
       a =  1.000      CL =  0.2745
      Cm = -0.0370     CD =  0.00976   =>   CDf =  0.00620    CDp =  0.00356

 Side 1  free  transition at x/c =  0.5677   56
 Side 2  free  transition at x/c =  0.6569   58

   2   rms: 0.1533E-01   max: -.1352E+00   D at   58  2
       a =  1.000      CL =  0.2745
      Cm = -0.0370     CD =  0.00983   =>   CDf =  0.00620    CDp =  0.00364

 Side 1  free  transition at x/c =  0.5689   56
 Side 2  free  transition at x/c =  0.6575   58

   3   rms: 0.3086E-03   max: -.2278E-02   D at   57  1
       a =  1.000      CL =  0.2745
      Cm = -0.0370     CD =  0.00983   =>   CDf =  0.00618    CDp =  0.00366

 Side 1  free  transition at x/c =  0.5688   56
 Side 2  free  transition at x/c =  0.6575   58

   4   rms: 0.1482E-05   max: -.8613E-05   T at   56  1
       a =  1.000      CL =  0.2745
      Cm = -0.0370     CD =  0.00983   =>   CDf =  0.00618    CDp =  0.00366
 plradd ia,ip,cpol           11           0  0.34950852    

 Point added to stored polar  1
 Point written to save file  p51droot_Re500k.base.pol                        
 Dump file unspecified or not available
 Calculating wake trajectory ...
 Calculating source influence matrix ...

 Solving BL system ...

 Side 1  free  transition at x/c =  0.5688   56
 Side 2  free  transition at x/c =  0.6575   58

   1   rms: 0.7481E-01   max: -.1481E+00   T at   58  2
       a =  1.500      CL =  0.3317
      Cm = -0.0373     CD =  0.00988   =>   CDf =  0.00613    CDp =  0.00374

 Side 1  free  transition at x/c =  0.5607   56
 Side 2  free  transition at x/c =  0.6615   57

   2   rms: 0.7362E-02   max: -.5410E-01   D at   56  1
       a =  1.500      CL =  0.3316
      Cm = -0.0374     CD =  0.00995   =>   CDf =  0.00626    CDp =  0.00370

 Side 1  free  transition at x/c =  0.5611   56
 Side 2  free  transition at x/c =  0.6617   57

   3   rms: 0.1459E-03   max: 0.1087E-02   D at    4  2
       a =  1.500      CL =  0.3317
      Cm = -0.0374     CD =  0.00995   =>   CDf =  0.00624    CDp =  0.00371

 Side 1  free  transition at x/c =  0.5611   56
 Side 2  free  transition at x/c =  0.6617   57

   4   rms: 0.7119E-06   max: 0.3470E-05   D at   57  2
       a =  1.500      CL =  0.3317
      Cm = -0.0374     CD =  0.00995   =>   CDf =  0.00624    CDp =  0.00371
 plradd ia,ip,cpol           12           0  0.34950852    

 Point added to stored polar  1
 Point written to save file  p51droot_Re500k.base.pol                        
 Dump file unspecified or not available
 Calculating wake trajectory ...
 Calculating source influence matrix ...

 Solving BL system ...

 Side 1  free  transition at x/c =  0.5611   56
 Side 2  free  transition at x/c =  0.6617   57

   1   rms: 0.7488E-01   max: -.1406E+00   T at   57  2
       a =  2.000      CL =  0.3885
      Cm = -0.0377     CD =  0.00990   =>   CDf =  0.00619    CDp =  0.00371

 Side 1  free  transition at x/c =  0.5535   57
 Side 2  free  transition at x/c =  0.6664   56

   2   rms: 0.2849E-02   max: -.2923E-01   D at    3  1
       a =  2.000      CL =  0.3887
      Cm = -0.0377     CD =  0.00998   =>   CDf =  0.00622    CDp =  0.00376

 Side 1  free  transition at x/c =  0.5537   57
 Side 2  free  transition at x/c =  0.6664   56

   3   rms: 0.2763E-03   max: -.2668E-02   D at    4  1
       a =  2.000      CL =  0.3887
      Cm = -0.0377     CD =  0.00998   =>   CDf =  0.00622    CDp =  0.00376

 Side 1  free  transition at x/c =  0.5537   57
 Side 2  free  transition at x/c =  0.6664   56

   4   rms: 0.7328E-06   max: -.7588E-05   T at   56  2
       a =  2.000      CL =  0.3887
      Cm = -0.0377     CD =  0.00998   =>   CDf =  0.00622    CDp =  0.00376
 plradd ia,ip,cpol           13           0  8.78886580E-02

 Point added to stored polar  1
 Point written to save file  p51droot_Re500k.base.pol                        
 Dump file unspecified or not available
 Calculating wake trajectory ...
 Calculating source influence matrix ...

 Solving BL system ...

 Side 1  free  transition at x/c =  0.5537   57
 Side 2  free  transition at x/c =  0.6664   56

   1   rms: 0.7461E-01   max: -.1547E+00   T at   56  2
       a =  2.500      CL =  0.4460
      Cm = -0.0381     CD =  0.01007   =>   CDf =  0.00616    CDp =  0.00391

 Side 1  free  transition at x/c =  0.5480   58
 Side 2  free  transition at x/c =  0.6706   56

   2   rms: 0.5047E-02   max: 0.9731E-01   D at   56  2
       a =  2.500      CL =  0.4459
      Cm = -0.0381     CD =  0.01002   =>   CDf =  0.00623    CDp =  0.00379

 Side 1  free  transition at x/c =  0.5480   58
 Side 2  free  transition at x/c =  0.6704   56

   3   rms: 0.1159E-02   max: 0.1453E-01   D at   56  2
       a =  2.500      CL =  0.4458
      Cm = -0.0381     CD =  0.01002   =>   CDf =  0.00622    CDp =  0.00380

 Side 1  free  transition at x/c =  0.5480   58
 Side 2  free  transition at x/c =  0.6704   56

   4   rms: 0.3318E-05   max: 0.3905E-04   D at   56  2
       a =  2.500      CL =  0.4458
      Cm = -0.0381     CD =  0.01002   =>   CDf =  0.00622    CDp =  0.00380
 plradd ia,ip,cpol           14           0  8.78886580E-02

 Point added to stored polar  1
 Point written to save file  p51droot_Re500k.base.pol                        
 Dump file unspecified or not available
 Calculating wake trajectory ...
 Calculating source influence matrix ...

 Solving BL system ...

 Side 1  free  transition at x/c =  0.5480   58
 Side 2  free  transition at x/c =  0.6704   56

   1   rms: 0.7521E-01   max: -.1828E+00   T at   56  2
       a =  3.000      CL =  0.5030
      Cm = -0.0385     CD =  0.01010   =>   CDf =  0.00622    CDp =  0.00389

 Side 1  free  transition at x/c =  0.5395   57
 Side 2  free  transition at x/c =  0.6747   56

   2   rms: 0.1469E-01   max: -.1685E+00   D at   57  1
       a =  3.000      CL =  0.5023
      Cm = -0.0383     CD =  0.01008   =>   CDf =  0.00619    CDp =  0.00388

 Side 1  free  transition at x/c =  0.5406   57
 Side 2  free  transition at x/c =  0.6746   56

   3   rms: 0.5870E-03   max: 0.5663E-02   D at   57  1
       a =  3.000      CL =  0.5024
      Cm = -0.0384     CD =  0.01008   =>   CDf =  0.00616    CDp =  0.00392

 Side 1  free  transition at x/c =  0.5404   57
 Side 2  free  transition at x/c =  0.6746   56

   4   rms: 0.4163E-05   max: -.2589E-04   D at    4  2
       a =  3.000      CL =  0.5024
      Cm = -0.0384     CD =  0.01008   =>   CDf =  0.00616    CDp =  0.00392
 plradd ia,ip,cpol           15           0  8.78886580E-02

 Point added to stored polar  1
 Point written to save file  p51droot_Re500k.base.pol                        
 Dump file unspecified or not available
 Calculating wake trajectory ...
 Calculating source influence matrix ...

 Solving BL system ...

 Side 1  free  transition at x/c =  0.5404   57
 Side 2  free  transition at x/c =  0.6746   56

   1   rms: 0.7448E-01   max: -.1520E+00   T at   56  2
       a =  3.500      CL =  0.5584
      Cm = -0.0385     CD =  0.01006   =>   CDf =  0.00608    CDp =  0.00398

 Side 1  free  transition at x/c =  0.5321   58
 Side 2  free  transition at x/c =  0.6797   55

   2   rms: 0.5431E-02   max: -.5451E-01   D at    3  1
       a =  3.500      CL =  0.5586
      Cm = -0.0385     CD =  0.01012   =>   CDf =  0.00612    CDp =  0.00400

 Side 1  free  transition at x/c =  0.5326   58
 Side 2  free  transition at x/c =  0.6797   55

   3   rms: 0.3065E-03   max: 0.3061E-02   D at    4  2
       a =  3.500      CL =  0.5587
      Cm = -0.0385     CD =  0.01012   =>   CDf =  0.00611    CDp =  0.00402

 Side 1  free  transition at x/c =  0.5325   58
 Side 2  free  transition at x/c =  0.6797   55

   4   rms: 0.4403E-06   max: 0.3558E-05   D at    6  2
       a =  3.500      CL =  0.5587
      Cm = -0.0385     CD =  0.01012   =>   CDf =  0.00611    CDp =  0.00402
 plradd ia,ip,cpol           16           0  7.69226626E-02

 Point added to stored polar  1
 Point written to save file  p51droot_Re500k.base.pol                        
 Dump file unspecified or not available
 Calculating wake trajectory ...
 Calculating source influence matrix ...

 Solving BL system ...

 Side 1  free  transition at x/c =  0.5325   58
 Side 2  free  transition at x/c =  0.6797   55

   1   rms: 0.7485E-01   max: -.1452E+00   T at   55  2
       a =  4.000      CL =  0.6149
      Cm = -0.0387     CD =  0.01021   =>   CDf =  0.00601    CDp =  0.00419

 Side 1  free  transition at x/c =  0.5235   58
 Side 2  free  transition at x/c =  0.6841   54

   2   rms: 0.1042E-01   max: -.1089E+00   D at   58  1
       a =  4.000      CL =  0.6146
      Cm = -0.0387     CD =  0.01024   =>   CDf =  0.00613    CDp =  0.00411

 Side 1  free  transition at x/c =  0.5239   58
 Side 2  free  transition at x/c =  0.6844   54

   3   rms: 0.3527E-03   max: 0.2760E-02   D at   58  1
       a =  4.000      CL =  0.6147
      Cm = -0.0387     CD =  0.01024   =>   CDf =  0.00610    CDp =  0.00414

 Side 1  free  transition at x/c =  0.5238   58
 Side 2  free  transition at x/c =  0.6844   54

   4   rms: 0.1751E-05   max: -.7048E-05   D at   88  1
       a =  4.000      CL =  0.6147
      Cm = -0.0387     CD =  0.01024   =>   CDf =  0.00610    CDp =  0.00414
 plradd ia,ip,cpol           17           0  1.83050074E-02

 Point added to stored polar  1
 Point written to save file  p51droot_Re500k.base.pol                        
 Dump file unspecified or not available
 Calculating wake trajectory ...
 Calculating source influence matrix ...

 Solving BL system ...

 Side 1  free  transition at x/c =  0.5238   58
 Side 2  free  transition at x/c =  0.6844   54

   1   rms: 0.7432E-01   max: -.1473E+00   T at   54  2
       a =  4.500      CL =  0.6704
      Cm = -0.0388     CD =  0.01027   =>   CDf =  0.00599    CDp =  0.00428

 Side 1  free  transition at x/c =  0.5133   59
 Side 2  free  transition at x/c =  0.6899   54

   2   rms: 0.1238E-01   max: 0.1746E+00   D at   54  2
       a =  4.500      CL =  0.6698
      Cm = -0.0387     CD =  0.01021   =>   CDf =  0.00602    CDp =  0.00419

 Side 1  free  transition at x/c =  0.5148   59
 Side 2  free  transition at x/c =  0.6893   54

   3   rms: 0.1564E-02   max: 0.1919E-01   D at   54  2
       a =  4.500      CL =  0.6700
      Cm = -0.0387     CD =  0.01021   =>   CDf =  0.00598    CDp =  0.00424

 Side 1  free  transition at x/c =  0.5147   59
 Side 2  free  transition at x/c =  0.6892   54

   4   rms: 0.9692E-05   max: 0.1357E-03   D at   54  2
       a =  4.500      CL =  0.6700
      Cm = -0.0387     CD =  0.01021   =>   CDf =  0.00598    CDp =  0.00423
 plradd ia,ip,cpol           18           0  1.50227686E-02

 Point added to stored polar  1
 Point written to save file  p51droot_Re500k.base.pol                        
 Dump file unspecified or not available
 Calculating wake trajectory ...
 Calculating source influence matrix ...

 Solving BL system ...

 Side 1  free  transition at x/c =  0.5147   59
 Side 2  free  transition at x/c =  0.6892   54

   1   rms: 0.7592E-01   max: -.1795E+00   T at   54  2
       a =  5.000      CL =  0.7248
      Cm = -0.0386     CD =  0.01027   =>   CDf =  0.00598    CDp =  0.00429

 Side 1  free  transition at x/c =  0.4984   58
 Side 2  free  transition at x/c =  0.6943   54

   2   rms: 0.2480E-01   max: -.3028E+00   D at   58  1
       a =  5.000      CL =  0.7234
      Cm = -0.0383     CD =  0.01021   =>   CDf =  0.00596    CDp =  0.00425

 Side 1  free  transition at x/c =  0.5015   58
 Side 2  free  transition at x/c =  0.6946   54

   3   rms: 0.2417E-02   max: 0.2745E-01   C at   58  1
       a =  5.000      CL =  0.7238
      Cm = -0.0384     CD =  0.01022   =>   CDf =  0.00588    CDp =  0.00435

 Side 1  free  transition at x/c =  0.5007   58
 Side 2  free  transition at x/c =  0.6946   54

   4   rms: 0.4969E-04   max: -.6915E-03   D at   60  1
       a =  5.000      CL =  0.7238
      Cm = -0.0384     CD =  0.01022   =>   CDf =  0.00589    CDp =  0.00434
 plradd ia,ip,cpol           19           0  1.50227686E-02

 Point added to stored polar  1
 Point written to save file  p51droot_Re500k.base.pol                        
 Dump file unspecified or not available
 Calculating wake trajectory ...
 Calculating source influence matrix ...

 Solving BL system ...

 Side 1  free  transition at x/c =  0.5007   58
 Side 2  free  transition at x/c =  0.6946   54

   1   rms: 0.7963E-01   max: 0.3455E+00   T at   58  1
       a =  5.500      CL =  0.7764
      Cm = -0.0378     CD =  0.01017   =>   CDf =  0.00577    CDp =  0.00440

 Side 1  free  transition at x/c =  0.4763   58
 Side 2  free  transition at x/c =  0.7006   53

   2   rms: 0.3141E-01   max: -.4200E+00   D at   58  1
       a =  5.500      CL =  0.7749
      Cm = -0.0375     CD =  0.01020   =>   CDf =  0.00592    CDp =  0.00428

 Side 1  free  transition at x/c =  0.4814   58
 Side 2  free  transition at x/c =  0.7007   53

   3   rms: 0.8302E-02   max: 0.1141E+00   C at   58  1
       a =  5.500      CL =  0.7755
      Cm = -0.0377     CD =  0.01024   =>   CDf =  0.00582    CDp =  0.00442

 Side 1  free  transition at x/c =  0.4788   58
 Side 2  free  transition at x/c =  0.7007   53

   4   rms: 0.6177E-03   max: -.9842E-02   D at   59  1
       a =  5.500      CL =  0.7756
      Cm = -0.0377     CD =  0.01025   =>   CDf =  0.00587    CDp =  0.00439

 Side 1  free  transition at x/c =  0.4787   58
 Side 2  free  transition at x/c =  0.7007   53

   5   rms: 0.4957E-05   max: -.7321E-04   D at   59  1
       a =  5.500      CL =  0.7756
      Cm = -0.0377     CD =  0.01025   =>   CDf =  0.00587    CDp =  0.00439
 plradd ia,ip,cpol           20           0  1.50227686E-02

 Point added to stored polar  1
 Point written to save file  p51droot_Re500k.base.pol                        
 Dump file unspecified or not available
 Calculating wake trajectory ...
 Calculating source influence matrix ...

 Solving BL system ...

 Side 1  free  transition at x/c =  0.4787   58
 Side 2  free  transition at x/c =  0.7007   53

   1   rms: 0.8854E-01   max: -.5794E+00   D at   58  1   RLX: 0.863
       a =  6.000      CL =  0.8179
      Cm = -0.0367     CD =  0.01043   =>   CDf =  0.00587    CDp =  0.00456

 Side 1  free  transition at x/c =  0.4510   56
 Side 2  free  transition at x/c =  0.7061   54

   2   rms: 0.2216E-01   max: -.2492E+00   D at   58  1
       a =  6.000      CL =  0.8253
      Cm = -0.0367     CD =  0.01029   =>   CDf =  0.00569    CDp =  0.00460

 Side 1  free  transition at x/c =  0.4432   56
 Side 2  free  transition at x/c =  0.7072   53

   3   rms: 0.2107E-02   max: 0.2383E-01   D at   58  1
       a =  6.000      CL =  0.8247
      Cm = -0.0365     CD =  0.01032   =>   CDf =  0.00583    CDp =  0.00449

 Side 1  free  transition at x/c =  0.4453   57
 Side 2  free  transition at x/c =  0.7071   53

   4   rms: 0.6272E-02   max: 0.1009E+00   C at   57  1
       a =  6.000      CL =  0.8249
      Cm = -0.0366     CD =  0.01031   =>   CDf =  0.00579    CDp =  0.00451

 Side 1  free  transition at x/c =  0.4438   57
 Side 2  free  transition at x/c =  0.7071   53

   5   rms: 0.2897E-03   max: -.4200E-02   D at   58  1
       a =  6.000      CL =  0.8248
      Cm = -0.0366     CD =  0.01031   =>   CDf =  0.00583    CDp =  0.00449

 Side 1  free  transition at x/c =  0.4437   57
 Side 2  free  transition at x/c =  0.7071   53

   6   rms: 0.1838E-05   max: -.1978E-04   D at   58  1
       a =  6.000      CL =  0.8248
      Cm = -0.0366     CD =  0.01031   =>   CDf =  0.00583    CDp =  0.00449
 plradd ia,ip,cpol           21           0  1.21463090E-02

 Point added to stored polar  1
 Point written to save file  p51droot_Re500k.base.pol                        
 Dump file unspecified or not available
 Calculating wake trajectory ...
 Calculating source influence matrix ...

 Solving BL system ...

 Side 1  free  transition at x/c =  0.4437   57
 Side 2  free  transition at x/c =  0.7071   53

   1   rms: 0.9782E-01   max: 0.7670E+00   C at   57  1   RLX: 0.696
       a =  6.500      CL =  0.8543
      Cm = -0.0350     CD =  0.01059   =>   CDf =  0.00583    CDp =  0.00476

 Side 1  free  transition at x/c =  0.3721   52
 Side 2  free  transition at x/c =  0.7116   53

   2   rms: 0.8477E-01   max: 0.1680E+01   C at   52  1   RLX: 0.893
       a =  6.500      CL =  0.8572
      Cm = -0.0331     CD =  0.01115   =>   CDf =  0.00604    CDp =  0.00511

 Side 1  free  transition at x/c =  0.2983   47
 Side 2  free  transition at x/c =  0.7138   53

   3   rms: 0.1793E-01   max: -.3385E+00   C at   47  1
       a =  6.500      CL =  0.8535
      Cm = -0.0323     CD =  0.01145   =>   CDf =  0.00646    CDp =  0.00499

 Side 1  free  transition at x/c =  0.3041   48
 Side 2  free  transition at x/c =  0.7141   53

   4   rms: 0.5328E-02   max: -.1052E+00   C at   48  1
       a =  6.500      CL =  0.8539
      Cm = -0.0323     CD =  0.01143   =>   CDf =  0.00642    CDp =  0.00501

 Side 1  free  transition at x/c =  0.3050   48
 Side 2  free  transition at x/c =  0.7141   53

   5   rms: 0.3219E-03   max: -.6574E-02   C at   48  1
       a =  6.500      CL =  0.8539
      Cm = -0.0323     CD =  0.01143   =>   CDf =  0.00641    CDp =  0.00503

 Side 1  free  transition at x/c =  0.3051   48
 Side 2  free  transition at x/c =  0.7141   53

   6   rms: 0.4232E-05   max: 0.7714E-04   C at   48  1
       a =  6.500      CL =  0.8539
      Cm = -0.0323     CD =  0.01143   =>   CDf =  0.00641    CDp =  0.00503
 plradd ia,ip,cpol           22           0  1.21463090E-02

 Point added to stored polar  1
 Point written to save file  p51droot_Re500k.base.pol                        
 Dump file unspecified or not available
 Calculating wake trajectory ...
 Calculating source influence matrix ...

 Solving BL system ...

 Side 1  free  transition at x/c =  0.3051   48
 Side 2  free  transition at x/c =  0.7141   53

   1   rms: 0.3122E+00   max: 0.6316E+01   C at   48  1   RLX: 0.238
       a =  7.000      CL =  0.8563
      Cm = -0.0307     CD =  0.01204   =>   CDf =  0.00641    CDp =  0.00563

 Side 1  free  transition at x/c =  0.2815   46
 Side 2  free  transition at x/c =  0.7159   53

   2   rms: 0.1384E+00   max: 0.2730E+01   C at   46  1   RLX: 0.549
       a =  7.000      CL =  0.8707
      Cm = -0.0294     CD =  0.01246   =>   CDf =  0.00655    CDp =  0.00591

 Side 1  free  transition at x/c =  0.2525   45
 Side 2  free  transition at x/c =  0.7189   53

   3   rms: 0.3522E-01   max: 0.3192E+00   C at   45  1
       a =  7.000      CL =  0.8821
      Cm = -0.0282     CD =  0.01287   =>   CDf =  0.00656    CDp =  0.00631

 Side 1  free  transition at x/c =  0.2357   45
 Side 2  free  transition at x/c =  0.7213   53

   4   rms: 0.8802E-02   max: -.1126E+00   D at   52  2
       a =  7.000      CL =  0.8833
      Cm = -0.0284     CD =  0.01272   =>   CDf =  0.00678    CDp =  0.00595

 Side 1  free  transition at x/c =  0.2367   45
 Side 2  free  transition at x/c =  0.7222   53

   5   rms: 0.1293E-02   max: 0.1232E-01   C at   53  2
       a =  7.000      CL =  0.8833
      Cm = -0.0284     CD =  0.01273   =>   CDf =  0.00672    CDp =  0.00600

 Side 1  free  transition at x/c =  0.2366   45
 Side 2  free  transition at x/c =  0.7219   53

   6   rms: 0.1180E-04   max: -.2275E-03   D at   54  2
       a =  7.000      CL =  0.8833
      Cm = -0.0284     CD =  0.01273   =>   CDf =  0.00673    CDp =  0.00600
 plradd ia,ip,cpol           23           0  1.21463090E-02

 Point added to stored polar  1
 Point written to save file  p51droot_Re500k.base.pol                        
 Dump file unspecified or not available
 Calculating wake trajectory ...
 Calculating source influence matrix ...

 Solving BL system ...

 Side 1  free  transition at x/c =  0.2366   45
 Side 2  free  transition at x/c =  0.7219   53

   1   rms: 0.1131E+00   max: 0.1284E+01   C at   45  1   RLX: 0.638
       a =  7.500      CL =  0.9011
      Cm = -0.0257     CD =  0.01353   =>   CDf =  0.00673    CDp =  0.00680

 Side 1  free  transition at x/c =  0.2007   42
 Side 2  free  transition at x/c =  0.7277   53

   2   rms: 0.3464E-01   max: 0.3249E+00   C at   42  1
       a =  7.500      CL =  0.9174
      Cm = -0.0251     CD =  0.01359   =>   CDf =  0.00684    CDp =  0.00675

 Side 1  free  transition at x/c =  0.1803   41
 Side 2  free  transition at x/c =  0.7314   53

   3   rms: 0.8052E-02   max: -.1616E+00   C at   41  1
       a =  7.500      CL =  0.9148
      Cm = -0.0247     CD =  0.01367   =>   CDf =  0.00693    CDp =  0.00673

 Side 1  free  transition at x/c =  0.1836   41
 Side 2  free  transition at x/c =  0.7316   53

   4   rms: 0.2356E-03   max: -.3839E-02   C at   41  1
       a =  7.500      CL =  0.9147
      Cm = -0.0247     CD =  0.01367   =>   CDf =  0.00690    CDp =  0.00676

 Side 1  free  transition at x/c =  0.1837   41
 Side 2  free  transition at x/c =  0.7316   53

   5   rms: 0.1969E-05   max: 0.2294E-04   C at   41  1
       a =  7.500      CL =  0.9147
      Cm = -0.0247     CD =  0.01367   =>   CDf =  0.00690    CDp =  0.00677
 plradd ia,ip,cpol           24           0  9.65736900E-03

 Point added to stored polar  1
 Point written to save file  p51droot_Re500k.base.pol                        
 Dump file unspecified or not available
 Calculating wake trajectory ...
 Calculating source influence matrix ...

 Solving BL system ...

 Side 1  free  transition at x/c =  0.1837   41
 Side 2  free  transition at x/c =  0.7316   53

   1   rms: 0.1026E+00   max: 0.1703E+01   C at   41  1   RLX: 0.881
       a =  8.000      CL =  0.9414
      Cm = -0.0212     CD =  0.01445   =>   CDf =  0.00690    CDp =  0.00754

 Side 1  free  transition at x/c =  0.1575   40
 Side 2  free  transition at x/c =  0.7402   54

   2   rms: 0.1695E-01   max: -.1565E+00   C at   54  2
       a =  8.000      CL =  0.9392
      Cm = -0.0197     CD =  0.01448   =>   CDf =  0.00687    CDp =  0.00761

 Side 1  free  transition at x/c =  0.1579   41
 Side 2  free  transition at x/c =  0.7442   53

   3   rms: 0.1772E-02   max: -.1855E-01   T at    2  1
       a =  8.000      CL =  0.9393
      Cm = -0.0197     CD =  0.01452   =>   CDf =  0.00695    CDp =  0.00757

 Side 1  free  transition at x/c =  0.1576   41
 Side 2  free  transition at x/c =  0.7438   53

   4   rms: 0.4115E-03   max: -.5209E-02   D at    4  1
       a =  8.000      CL =  0.9393
      Cm = -0.0197     CD =  0.01452   =>   CDf =  0.00696    CDp =  0.00756

 Side 1  free  transition at x/c =  0.1576   41
 Side 2  free  transition at x/c =  0.7438   53

   5   rms: 0.3094E-05   max: 0.3555E-04   D at    4  1
       a =  8.000      CL =  0.9393
      Cm = -0.0197     CD =  0.01452   =>   CDf =  0.00696    CDp =  0.00756
 plradd ia,ip,cpol           25           0  9.65736900E-03

 Point added to stored polar  1
 Point written to save file  p51droot_Re500k.base.pol                        
 Dump file unspecified or not available
 Calculating wake trajectory ...
 Calculating source influence matrix ...

 Solving BL system ...

 Side 1  free  transition at x/c =  0.1576   41
 Side 2  free  transition at x/c =  0.7438   53

   1   rms: 0.7968E-01   max: -.4108E+00   D at   41  1
       a =  8.500      CL =  0.9613
      Cm = -0.0145     CD =  0.01557   =>   CDf =  0.00696    CDp =  0.00861

 Side 1  free  transition at x/c =  0.1405   39
 Side 2  free  transition at x/c =  0.7558   54

   2   rms: 0.2201E-01   max: 0.2239E+00   D at   40  1
       a =  8.500      CL =  0.9650
      Cm = -0.0152     CD =  0.01540   =>   CDf =  0.00701    CDp =  0.00840

 Side 1  free  transition at x/c =  0.1413   39
 Side 2  free  transition at x/c =  0.7621   54

   3   rms: 0.2663E-02   max: 0.3924E-01   C at   54  2
       a =  8.500      CL =  0.9656
      Cm = -0.0153     CD =  0.01539   =>   CDf =  0.00688    CDp =  0.00851

 Side 1  free  transition at x/c =  0.1410   39
 Side 2  free  transition at x/c =  0.7608   54

   4   rms: 0.3040E-04   max: -.6201E-03   D at   55  2
       a =  8.500      CL =  0.9656
      Cm = -0.0153     CD =  0.01539   =>   CDf =  0.00689    CDp =  0.00850
 plradd ia,ip,cpol           26           0  9.65736900E-03

 Point added to stored polar  1
 Point written to save file  p51droot_Re500k.base.pol                        
 Dump file unspecified or not available
 Calculating wake trajectory ...
 Calculating source influence matrix ...

 Solving BL system ...

 Side 1  free  transition at x/c =  0.1410   39
 Side 2  free  transition at x/c =  0.7608   54

   1   rms: 0.7499E-01   max: -.5541E+00   C at   54  2   RLX: 0.902
       a =  9.000      CL =  0.9990
      Cm = -0.0128     CD =  0.01583   =>   CDf =  0.00689    CDp =  0.00893

 Side 1  free  transition at x/c =  0.1249   38
 Side 2  free  transition at x/c =  0.7780   55

   2   rms: 0.2608E-01   max: -.4510E+00   C at   55  2
       a =  9.000      CL =  0.9930
      Cm = -0.0112     CD =  0.01620   =>   CDf =  0.00686    CDp =  0.00935

 Side 1  free  transition at x/c =  0.1247   38
 Side 2  free  transition at x/c =  0.7896   56

   3   rms: 0.1068E-01   max: -.1952E+00   C at   56  2
       a =  9.000      CL =  0.9925
      Cm = -0.0111     CD =  0.01622   =>   CDf =  0.00677    CDp =  0.00945

 Side 1  free  transition at x/c =  0.1246   38
 Side 2  free  transition at x/c =  0.7933   56

   4   rms: 0.1615E-02   max: 0.3080E-01   C at   56  2
       a =  9.000      CL =  0.9925
      Cm = -0.0111     CD =  0.01622   =>   CDf =  0.00672    CDp =  0.00950

 Side 1  free  transition at x/c =  0.1246   38
 Side 2  free  transition at x/c =  0.7925   56

   5   rms: 0.7873E-05   max: -.1418E-03   D at   58  2
       a =  9.000      CL =  0.9925
      Cm = -0.0111     CD =  0.01622   =>   CDf =  0.00673    CDp =  0.00950
 plradd ia,ip,cpol           27           0  9.65736900E-03

 Point added to stored polar  1
 Point written to save file  p51droot_Re500k.base.pol                        
 Dump file unspecified or not available
 Calculating wake trajectory ...
 Calculating source influence matrix ...

 Solving BL system ...

 Side 1  free  transition at x/c =  0.1246   38
 Side 2  free  transition at x/c =  0.7925   56

   1   rms: 0.9657E-01   max: -.1350E+01   C at   56  2   RLX: 0.370
       a =  9.500      CL =  1.0045
      Cm = -0.0098     CD =  0.01641   =>   CDf =  0.00653    CDp =  0.00988

 Side 1  free  transition at x/c =  0.1164   39
 Side 2  free  transition at x/c =  0.8082   56

   2   rms: 0.8004E-01   max: -.1251E+01   C at   56  2   RLX: 0.400
       a =  9.500      CL =  1.0083
      Cm = -0.0087     CD =  0.01676   =>   CDf =  0.00669    CDp =  0.01007

 Side 1  free  transition at x/c =  0.1119   38
 Side 2  free  transition at x/c =  0.8246   57

   3   rms: 0.6022E-01   max: -.1064E+01   C at   57  2   RLX: 0.470
       a =  9.500      CL =  1.0128
      Cm = -0.0078     CD =  0.01683   =>   CDf =  0.00665    CDp =  0.01019

 Side 1  free  transition at x/c =  0.1078   38
 Side 2  free  transition at x/c =  0.8409   58

   4   rms: 0.4515E-01   max: -.8478E+00   C at   58  2   RLX: 0.590
       a =  9.500      CL =  1.0136
      Cm = -0.0068     CD =  0.01696   =>   CDf =  0.00659    CDp =  0.01037

 Side 1  free  transition at x/c =  0.1048   38
 Side 2  free  transition at x/c =  0.8575   58

   5   rms: 0.1916E-01   max: -.3579E+00   C at   58  2
       a =  9.500      CL =  1.0137
      Cm = -0.0060     CD =  0.01711   =>   CDf =  0.00655    CDp =  0.01056

 Side 1  free  transition at x/c =  0.1026   38
 Side 2  free  transition at x/c =  0.8941   61

   6   rms: 0.1016E-01   max: 0.1902E+00   C at   61  2
       a =  9.500      CL =  1.0124
      Cm = -0.0057     CD =  0.01704   =>   CDf =  0.00645    CDp =  0.01059

 Side 1  free  transition at x/c =  0.1030   38
 Side 2  free  transition at x/c =  0.8842   60

   7   rms: 0.4232E-03   max: -.4888E-02   D at   62  2
       a =  9.500      CL =  1.0126
      Cm = -0.0057     CD =  0.01705   =>   CDf =  0.00646    CDp =  0.01058

 Side 1  free  transition at x/c =  0.1030   38
 Side 2  free  transition at x/c =  0.8841   60

   8   rms: 0.3619E-05   max: 0.5724E-04   C at   60  2
       a =  9.500      CL =  1.0126
      Cm = -0.0057     CD =  0.01705   =>   CDf =  0.00647    CDp =  0.01058
 plradd ia,ip,cpol           28           0  7.52564427E-03

 Point added to stored polar  1
 Point written to save file  p51droot_Re500k.base.pol                        
 Dump file unspecified or not available
 Calculating wake trajectory ...
 Calculating source influence matrix ...

 Solving BL system ...

 Side 1  free  transition at x/c =  0.1030   38
 Side 2  free  transition at x/c =  0.8841   60

   1   rms: 0.1834E+00   max: -.3291E+01   C at   60  2   RLX: 0.152
       a = 10.000      CL =  1.0147
      Cm = -0.0048     CD =  0.01722   =>   CDf =  0.00647    CDp =  0.01075

 Side 1  free  transition at x/c =  0.0993   37
 Side 2  free  transition at x/c =  0.9065   61

   2   rms: 0.2076E+00   max: -.3816E+01   C at   61  2   RLX: 0.131
       a = 10.000      CL =  1.0199
      Cm = -0.0049     CD =  0.01727   =>   CDf =  0.00644    CDp =  0.01083

 Side 1  free  transition at x/c =  0.0956   37
 Side 2  free  transition at x/c =  0.9277   63

   3   rms: 0.2820E+00   max: -.4836E+01   C at   63  2   RLX: 0.103
       a = 10.000      CL =  1.0288
      Cm = -0.0062     CD =  0.01740   =>   CDf =  0.00639    CDp =  0.01101

 Side 1  free  transition at x/c =  0.0909   37
 Side 2  free  transition at x/c =  0.9395   64

   4   rms: 0.2941E+00   max: -.4676E+01   C at   64  2   RLX: 0.107
       a = 10.000      CL =  1.0386
      Cm = -0.0080     CD =  0.01766   =>   CDf =  0.00641    CDp =  0.01126

 Side 1  free  transition at x/c =  0.0870   36
 Side 2  free  transition at x/c =  0.9519   64

   5   rms: 0.4171E+00   max: -.6277E+01   C at   64  2   RLX: 0.080
       a = 10.000      CL =  1.0458
      Cm = -0.0091     CD =  0.01774   =>   CDf =  0.00643    CDp =  0.01132

 Side 1  free  transition at x/c =  0.0843   36
 Side 2  free  transition at x/c =  0.9729   66

   6   rms: 0.1999E+01   max: -.3301E+02   C at   66  2   RLX: 0.015
       a = 10.000      CL =  1.0468
      Cm = -0.0093     CD =  0.01774   =>   CDf =  0.00643    CDp =  0.01131

 Side 1  free  transition at x/c =  0.0839   36
 Side 2  free  transition at x/c =  0.9809   66

   7   rms: 0.2445E+01   max: -.3970E+02   C at   66  2   RLX: 0.013
       a = 10.000      CL =  1.0474
      Cm = -0.0094     CD =  0.01775   =>   CDf =  0.00643    CDp =  0.01132

 Side 1  free  transition at x/c =  0.0836   36
 Side 2  free  transition at x/c =  0.9882   67

   8   rms: 0.1903E+01   max: -.3681E+02   C at   67  2   RLX: 0.014
       a = 10.000      CL =  1.0483
      Cm = -0.0096     CD =  0.01777   =>   CDf =  0.00643    CDp =  0.01134

 Side 1  free  transition at x/c =  0.0833   36
 Side 2  free  transition at x/c =  0.9954   68

   9   rms: 0.1244E+01   max: -.3358E+02   C at   68  2   RLX: 0.015
       a = 10.000      CL =  1.0497
      Cm = -0.0098     CD =  0.01780   =>   CDf =  0.00643    CDp =  0.01137

 Side 1  free  transition at x/c =  0.0828   36
 Side 2  free  transition at x/c =  0.9931   68

  10   rms: 0.1550E+01   max: -.4192E+02   C at   68  2   RLX: 0.012
       a = 10.000      CL =  1.0508
      Cm = -0.0100     CD =  0.01782   =>   CDf =  0.00643    CDp =  0.01139

 Side 1  free  transition at x/c =  0.0824   36
 Side 2  free  transition at x/c =  0.9918   67

  11   rms: 0.1835E+01   max: -.3545E+02   C at   67  2   RLX: 0.014
       a = 10.000      CL =  1.0517
      Cm = -0.0102     CD =  0.01785   =>   CDf =  0.00644    CDp =  0.01141

 Side 1  free  transition at x/c =  0.0821   36
 Side 2 forced transition at x/c =  1.0000   68

  12   rms: 0.4942E-01   max: 0.4294E+00   C at   36  1
       a = 10.000      CL =  1.0577
      Cm = -0.0069     CD =  0.01874   =>   CDf =  0.00644    CDp =  0.01230

 Side 1  free  transition at x/c =  0.0737   35
 Side 2 forced transition at x/c =  1.0000   68

  13   rms: 0.6039E-02   max: -.7046E-01   D at   35  1
       a = 10.000      CL =  1.0563
      Cm = -0.0067     CD =  0.01875   =>   CDf =  0.00652    CDp =  0.01224

 Side 1  free  transition at x/c =  0.0736   35
 Side 2 forced transition at x/c =  1.0000   68

  14   rms: 0.2156E-03   max: 0.3202E-02   C at   35  1
       a = 10.000      CL =  1.0562
      Cm = -0.0067     CD =  0.01876   =>   CDf =  0.00651    CDp =  0.01225

 Side 1  free  transition at x/c =  0.0735   35
 Side 2 forced transition at x/c =  1.0000   68

  15   rms: 0.3109E-05   max: -.1591E-04   C at   35  1
       a = 10.000      CL =  1.0562
      Cm = -0.0067     CD =  0.01876   =>   CDf =  0.00651    CDp =  0.01225
 plradd ia,ip,cpol           29           0  7.52564427E-03

 Point added to stored polar  1
 Point written to save file  p51droot_Re500k.base.pol                        
 Dump file unspecified or not available

.OPERva   c>  
 Solving BL system ...

 Side 1  free  transition at x/c =  0.0735   35
 Side 2 forced transition at x/c =  1.0000   68

   1   rms: 0.1186E-05   max: 0.9537E-05   C at   35  1
       a = 10.000      CL =  1.0562
      Cm = -0.0067     CD =  0.01876   =>   CDf =  0.00651    CDp =  0.01225
 plradd ia,ip,cpol           30         182  7.52564427E-03

 Point added to stored polar  1
 Point written to save file  p51droot_Re500k.base.pol                        
 Dump file unspecified or not available
 Calculating wake trajectory ...
 Calculating source influence matrix ...

 Solving BL system ...

 Side 1  free  transition at x/c =  0.0735   35
 Side 2 forced transition at x/c =  1.0000   68

   1   rms: 0.4238E-01   max: 0.3263E+00   C at   35  1
       a = 10.250      CL =  1.0675
      Cm = -0.0050     CD =  0.01964   =>   CDf =  0.00631    CDp =  0.01333

 Side 1  free  transition at x/c =  0.0666   35
 Side 2 forced transition at x/c =  1.0000   67

   2   rms: 0.4962E-02   max: 0.3001E-01   D at   84  1
       a = 10.250      CL =  1.0635
      Cm = -0.0046     CD =  0.01980   =>   CDf =  0.00659    CDp =  0.01321

 Side 1  free  transition at x/c =  0.0667   35
 Side 2 forced transition at x/c =  1.0000   67

   3   rms: 0.3405E-03   max: -.3765E-02   D at    4  1
       a = 10.250      CL =  1.0634
      Cm = -0.0045     CD =  0.01980   =>   CDf =  0.00658    CDp =  0.01322

 Side 1  free  transition at x/c =  0.0667   35
 Side 2 forced transition at x/c =  1.0000   67

   4   rms: 0.1409E-05   max: -.1433E-04   C at   67  2
       a = 10.250      CL =  1.0634
      Cm = -0.0045     CD =  0.01980   =>   CDf =  0.00658    CDp =  0.01322
 plradd ia,ip,cpol           31           0  7.52564427E-03

 Point added to stored polar  1
 Point written to save file  p51droot_Re500k.base.pol                        
 Dump file unspecified or not available
 Calculating wake trajectory ...
 Calculating source influence matrix ...

 Solving BL system ...

 Side 1  free  transition at x/c =  0.0667   35
 Side 2 forced transition at x/c =  1.0000   67

   1   rms: 0.3768E-01   max: -.1770E+00   C at   35  1
       a = 10.500      CL =  1.0784
      Cm = -0.0033     CD =  0.02049   =>   CDf =  0.00658    CDp =  0.01391

 Side 1  free  transition at x/c =  0.0620   35
 Side 2 forced transition at x/c =  1.0000   67

   2   rms: 0.4424E-02   max: -.3106E-01   C at   35  1
       a = 10.500      CL =  1.0751
      Cm = -0.0029     CD =  0.02063   =>   CDf =  0.00657    CDp =  0.01406

 Side 1  free  transition at x/c =  0.0623   35
 Side 2 forced transition at x/c =  1.0000   67

   3   rms: 0.7881E-04   max: 0.1450E-02   D at   83  1
       a = 10.500      CL =  1.0751
      Cm = -0.0029     CD =  0.02063   =>   CDf =  0.00656    CDp =  0.01407
 plradd ia,ip,cpol           32           0  7.52564427E-03

 Point added to stored polar  1
 Point written to save file  p51droot_Re500k.base.pol                        
 Dump file unspecified or not available
 Calculating wake trajectory ...
 Calculating source influence matrix ...

 Solving BL system ...

 Side 1  free  transition at x/c =  0.0623   35
 Side 2 forced transition at x/c =  1.0000   67

   1   rms: 0.3901E-01   max: -.1603E+00   D at   35  1
       a = 10.750      CL =  1.0853
      Cm = -0.0013     CD =  0.02164   =>   CDf =  0.00656    CDp =  0.01508

 Side 1  free  transition at x/c =  0.0585   35
 Side 2 forced transition at x/c =  1.0000   67

   2   rms: 0.3954E-02   max: 0.2267E-01   D at   83  1
       a = 10.750      CL =  1.0821
      Cm = -0.0009     CD =  0.02177   =>   CDf =  0.00660    CDp =  0.01517

 Side 1  free  transition at x/c =  0.0585   35
 Side 2 forced transition at x/c =  1.0000   67

   3   rms: 0.4863E-04   max: 0.8921E-03   D at   74  2
       a = 10.750      CL =  1.0821
      Cm = -0.0009     CD =  0.02176   =>   CDf =  0.00659    CDp =  0.01517
 plradd ia,ip,cpol           33           0  7.52564427E-03

 Point added to stored polar  1
 Point written to save file  p51droot_Re500k.base.pol                        
 Dump file unspecified or not available
 Calculating wake trajectory ...
 Calculating source influence matrix ...

 Solving BL system ...

 Side 1  free  transition at x/c =  0.0585   35
 Side 2 forced transition at x/c =  1.0000   67

   1   rms: 0.4309E-01   max: 0.1359E+00   D at   79  1
       a = 11.000      CL =  1.0862
      Cm =  0.0012     CD =  0.02323   =>   CDf =  0.00659    CDp =  0.01663

 Side 1  free  transition at x/c =  0.0555   34
 Side 2 forced transition at x/c =  1.0000   67

   2   rms: 0.1934E-01   max: -.2086E+00   D at   34  1
       a = 11.000      CL =  1.0915
      Cm =  0.0007     CD =  0.02274   =>   CDf =  0.00655    CDp =  0.01619

 Side 1  free  transition at x/c =  0.0559   34
 Side 2 forced transition at x/c =  1.0000   67

   3   rms: 0.1134E-02   max: 0.1162E-01   D at   34  1
       a = 11.000      CL =  1.0918
      Cm =  0.0007     CD =  0.02278   =>   CDf =  0.00656    CDp =  0.01622

 Side 1  free  transition at x/c =  0.0558   34
 Side 2 forced transition at x/c =  1.0000   67

   4   rms: 0.3545E-04   max: 0.1728E-03   D at   82  1
       a = 11.000      CL =  1.0917
      Cm =  0.0007     CD =  0.02278   =>   CDf =  0.00656    CDp =  0.01622
 plradd ia,ip,cpol           34           0  4.18183068E-03

 Point added to stored polar  1
 Point written to save file  p51droot_Re500k.base.pol                        
 Dump file unspecified or not available
 Calculating wake trajectory ...
 Calculating source influence matrix ...

 Solving BL system ...

 Side 1  free  transition at x/c =  0.0558   34
 Side 2 forced transition at x/c =  1.0000   67

   1   rms: 0.3544E-01   max: 0.1461E+00   T at   34  1
       a = 11.250      CL =  1.1045
      Cm =  0.0019     CD =  0.02373   =>   CDf =  0.00656    CDp =  0.01717

 Side 1  free  transition at x/c =  0.0533   34
 Side 2 forced transition at x/c =  1.0000   67

   2   rms: 0.3191E-02   max: 0.2184E-01   D at   81  1
       a = 11.250      CL =  1.1022
      Cm =  0.0021     CD =  0.02380   =>   CDf =  0.00653    CDp =  0.01727

 Side 1  free  transition at x/c =  0.0534   34
 Side 2 forced transition at x/c =  1.0000   67

   3   rms: 0.4050E-04   max: 0.8399E-03   D at   75  2
       a = 11.250      CL =  1.1022
      Cm =  0.0021     CD =  0.02380   =>   CDf =  0.00653    CDp =  0.01727
 plradd ia,ip,cpol           35           0  4.18183068E-03

 Point added to stored polar  1
 Point written to save file  p51droot_Re500k.base.pol                        
 Dump file unspecified or not available
 Calculating wake trajectory ...
 Calculating source influence matrix ...

 Solving BL system ...

 Side 1  free  transition at x/c =  0.0534   34
 Side 2 forced transition at x/c =  1.0000   67

   1   rms: 0.3567E-01   max: 0.1238E+00   T at   34  1
       a = 11.500      CL =  1.1120
      Cm =  0.0035     CD =  0.02499   =>   CDf =  0.00627    CDp =  0.01872

 Side 1  free  transition at x/c =  0.0514   35
 Side 2 forced transition at x/c =  1.0000   66

   2   rms: 0.3366E-02   max: -.2910E-01   D at    2  1
       a = 11.500      CL =  1.1099
      Cm =  0.0036     CD =  0.02504   =>   CDf =  0.00652    CDp =  0.01852

 Side 1  free  transition at x/c =  0.0515   35
 Side 2 forced transition at x/c =  1.0000   66

   3   rms: 0.7563E-03   max: -.9109E-02   D at    4  1
       a = 11.500      CL =  1.1099
      Cm =  0.0036     CD =  0.02503   =>   CDf =  0.00651    CDp =  0.01852

 Side 1  free  transition at x/c =  0.0515   35
 Side 2 forced transition at x/c =  1.0000   66

   4   rms: 0.9459E-06   max: -.1026E-04   C at   66  2
       a = 11.500      CL =  1.1099
      Cm =  0.0036     CD =  0.02503   =>   CDf =  0.00651    CDp =  0.01852
 plradd ia,ip,cpol           36           0  4.18183068E-03

 Point added to stored polar  1
 Point written to save file  p51droot_Re500k.base.pol                        
 Dump file unspecified or not available
 Calculating wake trajectory ...
 Calculating source influence matrix ...

 Solving BL system ...

 Side 1  free  transition at x/c =  0.0515   35
 Side 2 forced transition at x/c =  1.0000   66

   1   rms: 0.3827E-01   max: 0.1263E+00   T at   35  1   RLX: 0.992
       a = 11.750      CL =  1.1169
      Cm =  0.0051     CD =  0.02648   =>   CDf =  0.00651    CDp =  0.01997

 Side 1  free  transition at x/c =  0.0496   35
 Side 2 forced transition at x/c =  1.0000   66

   2   rms: 0.6859E-02   max: 0.4083E-01   D at   80  1
       a = 11.750      CL =  1.1121
      Cm =  0.0054     CD =  0.02674   =>   CDf =  0.00651    CDp =  0.02023

 Side 1  free  transition at x/c =  0.0494   35
 Side 2 forced transition at x/c =  1.0000   66

   3   rms: 0.2975E-03   max: 0.2504E-02   D at   80  1
       a = 11.750      CL =  1.1119
      Cm =  0.0054     CD =  0.02673   =>   CDf =  0.00650    CDp =  0.02022

 Side 1  free  transition at x/c =  0.0494   35
 Side 2 forced transition at x/c =  1.0000   66

   4   rms: 0.6229E-05   max: 0.6219E-04   D at   75  2
       a = 11.750      CL =  1.1119
      Cm =  0.0054     CD =  0.02673   =>   CDf =  0.00650    CDp =  0.02022
 plradd ia,ip,cpol           37           0  2.91698147E-03

 Point added to stored polar  1
 Point written to save file  p51droot_Re500k.base.pol                        
 Dump file unspecified or not available
 Calculating wake trajectory ...
 Calculating source influence matrix ...

 Solving BL system ...

 Side 1  free  transition at x/c =  0.0494   35
 Side 2 forced transition at x/c =  1.0000   66

   1   rms: 0.4396E-01   max: 0.1541E+00   D at   77  1   RLX: 0.927
       a = 12.000      CL =  1.1120
      Cm =  0.0071     CD =  0.02867   =>   CDf =  0.00651    CDp =  0.02217

 Side 1  free  transition at x/c =  0.0481   34
 Side 2 forced transition at x/c =  1.0000   66

   2   rms: 0.1987E-01   max: -.2043E+00   D at   34  1
       a = 12.000      CL =  1.1211
      Cm =  0.0066     CD =  0.02791   =>   CDf =  0.00644    CDp =  0.02147

 Side 1  free  transition at x/c =  0.0484   34
 Side 2 forced transition at x/c =  1.0000   66

   3   rms: 0.2361E-02   max: -.1047E-01   D at   79  1
       a = 12.000      CL =  1.1227
      Cm =  0.0065     CD =  0.02786   =>   CDf =  0.00644    CDp =  0.02142

 Side 1  free  transition at x/c =  0.0483   34
 Side 2 forced transition at x/c =  1.0000   66

   4   rms: 0.3865E-04   max: -.3659E-03   D at   75  2
       a = 12.000      CL =  1.1228
      Cm =  0.0064     CD =  0.02787   =>   CDf =  0.00644    CDp =  0.02142
 plradd ia,ip,cpol           38           0  4.18183068E-03

 Point added to stored polar  1
 Point written to save file  p51droot_Re500k.base.pol                        
 Dump file unspecified or not available
 Calculating wake trajectory ...
 Calculating source influence matrix ...

 Solving BL system ...

 Side 1  free  transition at x/c =  0.0483   34
 Side 2 forced transition at x/c =  1.0000   66

   1   rms: 0.3345E-01   max: 0.1289E+00   T at   34  1   RLX: 0.915
       a = 12.250      CL =  1.1338
      Cm =  0.0072     CD =  0.02898   =>   CDf =  0.00644    CDp =  0.02254

 Side 1  free  transition at x/c =  0.0470   34
 Side 2 forced transition at x/c =  1.0000   66

   2   rms: 0.3574E-02   max: 0.2341E-01   D at   78  1
       a = 12.250      CL =  1.1330
      Cm =  0.0074     CD =  0.02912   =>   CDf =  0.00640    CDp =  0.02273

 Side 1  free  transition at x/c =  0.0469   34
 Side 2 forced transition at x/c =  1.0000   66

   3   rms: 0.1815E-03   max: 0.1399E-02   D at   78  1
       a = 12.250      CL =  1.1329
      Cm =  0.0074     CD =  0.02911   =>   CDf =  0.00639    CDp =  0.02272

 Side 1  free  transition at x/c =  0.0469   34
 Side 2 forced transition at x/c =  1.0000   66

   4   rms: 0.4976E-05   max: -.6934E-04   C at   66  2
       a = 12.250      CL =  1.1329
      Cm =  0.0074     CD =  0.02911   =>   CDf =  0.00639    CDp =  0.02272
 plradd ia,ip,cpol           39           0  2.91698147E-03

 Point added to stored polar  1
 Point written to save file  p51droot_Re500k.base.pol                        
 Dump file unspecified or not available
 Calculating wake trajectory ...
 Calculating source influence matrix ...

 Solving BL system ...

 Side 1  free  transition at x/c =  0.0469   34
 Side 2 forced transition at x/c =  1.0000   66

   1   rms: 0.3339E-01   max: 0.1106E+00   T at   34  1   RLX: 0.881
       a = 12.500      CL =  1.1424
      Cm =  0.0081     CD =  0.03033   =>   CDf =  0.00639    CDp =  0.02394

 Side 1  free  transition at x/c =  0.0457   34
 Side 2 forced transition at x/c =  1.0000   66

   2   rms: 0.4323E-02   max: -.2498E-01   D at   34  1
       a = 12.500      CL =  1.1423
      Cm =  0.0083     CD =  0.03048   =>   CDf =  0.00635    CDp =  0.02413

 Side 1  free  transition at x/c =  0.0456   34
 Side 2 forced transition at x/c =  1.0000   66

   3   rms: 0.2040E-03   max: 0.1590E-02   D at   77  1
       a = 12.500      CL =  1.1422
      Cm =  0.0083     CD =  0.03047   =>   CDf =  0.00634    CDp =  0.02412

 Side 1  free  transition at x/c =  0.0456   34
 Side 2 forced transition at x/c =  1.0000   66

   4   rms: 0.5482E-05   max: -.7168E-04   C at   66  2
       a = 12.500      CL =  1.1422
      Cm =  0.0083     CD =  0.03047   =>   CDf =  0.00634    CDp =  0.02412
 plradd ia,ip,cpol           40           0  4.18183068E-03

 Point added to stored polar  1
 Point written to save file  p51droot_Re500k.base.pol                        
 Dump file unspecified or not available
 Calculating wake trajectory ...
 Calculating source influence matrix ...

 Solving BL system ...

 Side 1  free  transition at x/c =  0.0456   34
 Side 2 forced transition at x/c =  1.0000   66

   1   rms: 0.3366E-01   max: 0.1341E+00   T at   34  1   RLX: 0.850
       a = 12.750      CL =  1.1513
      Cm =  0.0088     CD =  0.03170   =>   CDf =  0.00635    CDp =  0.02535

 Side 1  free  transition at x/c =  0.0444   34
 Side 2 forced transition at x/c =  1.0000   66

   2   rms: 0.5855E-02   max: 0.3053E-01   D at   76  1
       a = 12.750      CL =  1.1505
      Cm =  0.0091     CD =  0.03198   =>   CDf =  0.00633    CDp =  0.02565

 Side 1  free  transition at x/c =  0.0443   34
 Side 2 forced transition at x/c =  1.0000   66

   3   rms: 0.4421E-03   max: 0.3215E-02   D at   76  2
       a = 12.750      CL =  1.1502
      Cm =  0.0091     CD =  0.03196   =>   CDf =  0.00632    CDp =  0.02564

 Side 1  free  transition at x/c =  0.0443   34
 Side 2 forced transition at x/c =  1.0000   66

   4   rms: 0.1911E-04   max: 0.1210E-03   D at   76  2
       a = 12.750      CL =  1.1502
      Cm =  0.0091     CD =  0.03196   =>   CDf =  0.00632    CDp =  0.02564
 plradd ia,ip,cpol           41           0  1.89871993E-03

 Point added to stored polar  1
 Point written to save file  p51droot_Re500k.base.pol                        
 Dump file unspecified or not available
 Calculating wake trajectory ...
 Calculating source influence matrix ...

 Solving BL system ...

 Side 1  free  transition at x/c =  0.0443   34
 Side 2 forced transition at x/c =  1.0000   66

   1   rms: 0.3590E-01   max: -.1796E+00   D at    3  2   RLX: 0.816
       a = 13.000      CL =  1.1567
      Cm =  0.0096     CD =  0.03340   =>   CDf =  0.00602    CDp =  0.02738

 Side 1  free  transition at x/c =  0.0434   35
 Side 2 forced transition at x/c =  1.0000   65

   2   rms: 0.8497E-02   max: 0.4084E-01   D at   76  1
       a = 13.000      CL =  1.1553
      Cm =  0.0099     CD =  0.03382   =>   CDf =  0.00630    CDp =  0.02752

 Side 1  free  transition at x/c =  0.0431   35
 Side 2 forced transition at x/c =  1.0000   65

   3   rms: 0.9301E-03   max: -.6744E-02   D at    4  1
       a = 13.000      CL =  1.1548
      Cm =  0.0100     CD =  0.03379   =>   CDf =  0.00630    CDp =  0.02750

 Side 1  free  transition at x/c =  0.0432   35
 Side 2 forced transition at x/c =  1.0000   65

   4   rms: 0.2097E-04   max: 0.1664E-03   D at   76  2
       a = 13.000      CL =  1.1547
      Cm =  0.0100     CD =  0.03379   =>   CDf =  0.00629    CDp =  0.02749
 plradd ia,ip,cpol           42           0  2.91698147E-03

 Point added to stored polar  1
 Point written to save file  p51droot_Re500k.base.pol                        
 Dump file unspecified or not available
 Calculating wake trajectory ...
 Calculating source influence matrix ...

 Solving BL system ...

 Side 1  free  transition at x/c =  0.0432   35
 Side 2 forced transition at x/c =  1.0000   65

   1   rms: 0.3630E-01   max: 0.1187E+00   D at   74  1   RLX: 0.780
       a = 13.250      CL =  1.1584
      Cm =  0.0105     CD =  0.03547   =>   CDf =  0.00630    CDp =  0.02917

 Side 1  free  transition at x/c =  0.0424   35
 Side 2 forced transition at x/c =  1.0000   65

   2   rms: 0.1027E-01   max: 0.4827E-01   D at   75  1
       a = 13.250      CL =  1.1561
      Cm =  0.0109     CD =  0.03604   =>   CDf =  0.00627    CDp =  0.02977

 Side 1  free  transition at x/c =  0.0422   34
 Side 2 forced transition at x/c =  1.0000   65

   3   rms: 0.1046E-02   max: -.1088E-01   D at   34  1
       a = 13.250      CL =  1.1561
      Cm =  0.0109     CD =  0.03594   =>   CDf =  0.00627    CDp =  0.02967

 Side 1  free  transition at x/c =  0.0422   34
 Side 2 forced transition at x/c =  1.0000   65

   4   rms: 0.8681E-04   max: -.4287E-03   D at   75  1
       a = 13.250      CL =  1.1561
      Cm =  0.0109     CD =  0.03593   =>   CDf =  0.00626    CDp =  0.02967
 plradd ia,ip,cpol           43           0  1.89871993E-03

 Point added to stored polar  1
 Point written to save file  p51droot_Re500k.base.pol                        
 Dump file unspecified or not available
 Calculating wake trajectory ...
 Calculating source influence matrix ...

 Solving BL system ...

 Side 1  free  transition at x/c =  0.0422   34
 Side 2 forced transition at x/c =  1.0000   65

   1   rms: 0.3156E-01   max: 0.1309E+00   T at   34  1   RLX: 0.756
       a = 13.500      CL =  1.1662
      Cm =  0.0112     CD =  0.03699   =>   CDf =  0.00627    CDp =  0.03073

 Side 1  free  transition at x/c =  0.0416   34
 Side 2 forced transition at x/c =  1.0000   65

   2   rms: 0.7780E-02   max: 0.2927E-01   D at   74  1
       a = 13.500      CL =  1.1678
      Cm =  0.0113     CD =  0.03736   =>   CDf =  0.00621    CDp =  0.03115

 Side 1  free  transition at x/c =  0.0414   34
 Side 2 forced transition at x/c =  1.0000   65

   3   rms: 0.6064E-03   max: 0.4289E-02   D at   76  2
       a = 13.500      CL =  1.1673
      Cm =  0.0113     CD =  0.03733   =>   CDf =  0.00618    CDp =  0.03115

 Side 1  free  transition at x/c =  0.0414   34
 Side 2 forced transition at x/c =  1.0000   65

   4   rms: 0.2128E-04   max: 0.2017E-03   D at   76  2
       a = 13.500      CL =  1.1673
      Cm =  0.0113     CD =  0.03733   =>   CDf =  0.00618    CDp =  0.03114
 plradd ia,ip,cpol           44           0  2.91698147E-03

 Point added to stored polar  1
 Point written to save file  p51droot_Re500k.base.pol                        
 Dump file unspecified or not available
 Calculating wake trajectory ...
 Calculating source influence matrix ...

 Solving BL system ...

 Side 1  free  transition at x/c =  0.0414   34
 Side 2 forced transition at x/c =  1.0000   65

   1   rms: 0.3116E-01   max: 0.1080E+00   T at   34  1   RLX: 0.734
       a = 13.750      CL =  1.1756
      Cm =  0.0116     CD =  0.03852   =>   CDf =  0.00619    CDp =  0.03234

 Side 1  free  transition at x/c =  0.0408   34
 Side 2 forced transition at x/c =  1.0000   65

   2   rms: 0.8421E-02   max: 0.2899E-01   D at   73  1
       a = 13.750      CL =  1.1772
      Cm =  0.0117     CD =  0.03894   =>   CDf =  0.00614    CDp =  0.03280

 Side 1  free  transition at x/c =  0.0405   34
 Side 2 forced transition at x/c =  1.0000   65

   3   rms: 0.7538E-03   max: 0.4188E-02   D at   73  1
       a = 13.750      CL =  1.1766
      Cm =  0.0118     CD =  0.03891   =>   CDf =  0.00612    CDp =  0.03279

 Side 1  free  transition at x/c =  0.0406   34
 Side 2 forced transition at x/c =  1.0000   65

   4   rms: 0.3352E-04   max: 0.2423E-03   D at   76  2
       a = 13.750      CL =  1.1766
      Cm =  0.0118     CD =  0.03890   =>   CDf =  0.00612    CDp =  0.03279
 plradd ia,ip,cpol           45           0  1.10798306E-03

 Point added to stored polar  1
 Point written to save file  p51droot_Re500k.base.pol                        
 Dump file unspecified or not available
 Calculating wake trajectory ...
 Calculating source influence matrix ...

 Solving BL system ...

 Side 1  free  transition at x/c =  0.0406   34
 Side 2 forced transition at x/c =  1.0000   65

   1   rms: 0.3118E-01   max: 0.8974E-01   T at   34  1   RLX: 0.711
       a = 14.000      CL =  1.1841
      Cm =  0.0119     CD =  0.04016   =>   CDf =  0.00612    CDp =  0.03404

 Side 1  free  transition at x/c =  0.0400   34
 Side 2 forced transition at x/c =  1.0000   65

   2   rms: 0.8986E-02   max: 0.2878E-01   D at   72  1
       a = 14.000      CL =  1.1858
      Cm =  0.0121     CD =  0.04061   =>   CDf =  0.00608    CDp =  0.03453

 Side 1  free  transition at x/c =  0.0397   34
 Side 2 forced transition at x/c =  1.0000   65

   3   rms: 0.6785E-03   max: 0.3776E-02   D at   77  2
       a = 14.000      CL =  1.1853
      Cm =  0.0121     CD =  0.04056   =>   CDf =  0.00606    CDp =  0.03450

 Side 1  free  transition at x/c =  0.0398   34
 Side 2 forced transition at x/c =  1.0000   65

   4   rms: 0.2398E-04   max: 0.1919E-03   D at   77  2
       a = 14.000      CL =  1.1853
      Cm =  0.0121     CD =  0.04056   =>   CDf =  0.00606    CDp =  0.03450
 plradd ia,ip,cpol           46           0  1.89871993E-03

 Point added to stored polar  1
 Point written to save file  p51droot_Re500k.base.pol                        
 Dump file unspecified or not available
 Calculating wake trajectory ...
 Calculating source influence matrix ...

 Solving BL system ...

 Side 1  free  transition at x/c =  0.0398   34
 Side 2 forced transition at x/c =  1.0000   65

   1   rms: 0.3126E-01   max: 0.1156E+00   T at   34  1   RLX: 0.691
       a = 14.250      CL =  1.1927
      Cm =  0.0122     CD =  0.04179   =>   CDf =  0.00573    CDp =  0.03606

 Side 1  free  transition at x/c =  0.0390   35
 Side 2 forced transition at x/c =  1.0000   64

   2   rms: 0.1249E-01   max: 0.1343E+00   T at    2  1
       a = 14.250      CL =  1.1944
      Cm =  0.0123     CD =  0.04232   =>   CDf =  0.00603    CDp =  0.03629

 Side 1  free  transition at x/c =  0.0388   35
 Side 2 forced transition at x/c =  1.0000   64

   3   rms: 0.6926E-03   max: 0.4140E-02   D at   76  2
       a = 14.250      CL =  1.1939
      Cm =  0.0124     CD =  0.04226   =>   CDf =  0.00601    CDp =  0.03625

 Side 1  free  transition at x/c =  0.0388   35
 Side 2 forced transition at x/c =  1.0000   64

   4   rms: 0.3849E-04   max: 0.2465E-03   D at   76  2
       a = 14.250      CL =  1.1939
      Cm =  0.0124     CD =  0.04226   =>   CDf =  0.00601    CDp =  0.03625
 plradd ia,ip,cpol           47           0  1.10798306E-03

 Point added to stored polar  1
 Point written to save file  p51droot_Re500k.base.pol                        
 Dump file unspecified or not available
 Calculating wake trajectory ...
 Calculating source influence matrix ...

 Solving BL system ...

 Side 1  free  transition at x/c =  0.0388   35
 Side 2 forced transition at x/c =  1.0000   64

   1   rms: 0.3074E-01   max: 0.1102E+00   T at   35  1   RLX: 0.671
       a = 14.500      CL =  1.2004
      Cm =  0.0125     CD =  0.04355   =>   CDf =  0.00601    CDp =  0.03754

 Side 1  free  transition at x/c =  0.0381   35
 Side 2 forced transition at x/c =  1.0000   64

   2   rms: 0.1016E-01   max: 0.3544E-01   D at   72  1
       a = 14.500      CL =  1.2020
      Cm =  0.0126     CD =  0.04416   =>   CDf =  0.00599    CDp =  0.03817

 Side 1  free  transition at x/c =  0.0379   35
 Side 2 forced transition at x/c =  1.0000   64

   3   rms: 0.9417E-03   max: 0.7142E-02   D at   76  2
       a = 14.500      CL =  1.2013
      Cm =  0.0126     CD =  0.04410   =>   CDf =  0.00597    CDp =  0.03813

 Side 1  free  transition at x/c =  0.0379   35
 Side 2 forced transition at x/c =  1.0000   64

   4   rms: 0.3288E-04   max: 0.3993E-03   D at   76  2
       a = 14.500      CL =  1.2013
      Cm =  0.0126     CD =  0.04409   =>   CDf =  0.00597    CDp =  0.03812
 plradd ia,ip,cpol           48           0  1.89871993E-03

 Point added to stored polar  1
 Point written to save file  p51droot_Re500k.base.pol                        
 Dump file unspecified or not available
 Calculating wake trajectory ...
 Calculating source influence matrix ...

 Solving BL system ...

 Side 1  free  transition at x/c =  0.0379   35
 Side 2 forced transition at x/c =  1.0000   64

   1   rms: 0.3125E-01   max: 0.1107E+00   T at   35  1   RLX: 0.650
       a = 14.750      CL =  1.2070
      Cm =  0.0126     CD =  0.04543   =>   CDf =  0.00598    CDp =  0.03945

 Side 1  free  transition at x/c =  0.0374   35
 Side 2 forced transition at x/c =  1.0000   64

   2   rms: 0.1128E-01   max: 0.3657E-01   T at   35  1
       a = 14.750      CL =  1.2080
      Cm =  0.0128     CD =  0.04614   =>   CDf =  0.00596    CDp =  0.04018

 Side 1  free  transition at x/c =  0.0372   35
 Side 2 forced transition at x/c =  1.0000   64

   3   rms: 0.1213E-02   max: 0.5667E-02   D at   76  2
       a = 14.750      CL =  1.2071
      Cm =  0.0129     CD =  0.04609   =>   CDf =  0.00595    CDp =  0.04014

 Side 1  free  transition at x/c =  0.0372   35
 Side 2 forced transition at x/c =  1.0000   64

   4   rms: 0.5820E-04   max: 0.4136E-03   D at   76  2
       a = 14.750      CL =  1.2070
      Cm =  0.0129     CD =  0.04608   =>   CDf =  0.00595    CDp =  0.04013
 plradd ia,ip,cpol           49           0  1.10798306E-03

 Point added to stored polar  1
 Point written to save file  p51droot_Re500k.base.pol                        
 Dump file unspecified or not available
 Calculating wake trajectory ...
 Calculating source influence matrix ...

 Solving BL system ...

 Side 1  free  transition at x/c =  0.0372   35
 Side 2 forced transition at x/c =  1.0000   64

   1   rms: 0.3208E-01   max: 0.1074E+00   T at   35  1   RLX: 0.629
       a = 15.000      CL =  1.2110
      Cm =  0.0130     CD =  0.04755   =>   CDf =  0.00595    CDp =  0.04159

 Side 1  free  transition at x/c =  0.0366   35
 Side 2 forced transition at x/c =  1.0000   64

   2   rms: 0.1312E-01   max: 0.4445E-01   T at   35  1
       a = 15.000      CL =  1.2107
      Cm =  0.0132     CD =  0.04842   =>   CDf =  0.00594    CDp =  0.04248

 Side 1  free  transition at x/c =  0.0363   35
 Side 2 forced transition at x/c =  1.0000   64

   3   rms: 0.1510E-02   max: 0.8199E-02   D at   77  2
       a = 15.000      CL =  1.2095
      Cm =  0.0134     CD =  0.04835   =>   CDf =  0.00594    CDp =  0.04242

 Side 1  free  transition at x/c =  0.0363   35
 Side 2 forced transition at x/c =  1.0000   64

   4   rms: 0.6588E-04   max: 0.4553E-03   D at   77  2
       a = 15.000      CL =  1.2095
      Cm =  0.0134     CD =  0.04835   =>   CDf =  0.00594    CDp =  0.04241
 plradd ia,ip,cpol           50           0  1.89871993E-03

 Point added to stored polar  1
 Point written to save file  p51droot_Re500k.base.pol                        
 Dump file unspecified or not available
 Calculating wake trajectory ...
 Calculating source influence matrix ...

 Solving BL system ...

 Side 1  free  transition at x/c =  0.0363   35
 Side 2 forced transition at x/c =  1.0000   64

   1   rms: 0.3865E-01   max: 0.1364E+00   T at   35  1   RLX: 0.605
       a = 15.250      CL =  1.2109
      Cm =  0.0138     CD =  0.04993   =>   CDf =  0.00594    CDp =  0.04399

 Side 1  free  transition at x/c =  0.0358   34
 Side 2 forced transition at x/c =  1.0000   64

   2   rms: 0.1574E-01   max: -.1073E+00   D at   34  1
       a = 15.250      CL =  1.2167
      Cm =  0.0134     CD =  0.05046   =>   CDf =  0.00590    CDp =  0.04456

 Side 1  free  transition at x/c =  0.0357   34
 Side 2 forced transition at x/c =  1.0000   64

   3   rms: 0.8174E-03   max: 0.5264E-02   D at   34  1
       a = 15.250      CL =  1.2168
      Cm =  0.0135     CD =  0.05026   =>   CDf =  0.00586    CDp =  0.04440

 Side 1  free  transition at x/c =  0.0356   34
 Side 2 forced transition at x/c =  1.0000   64

   4   rms: 0.3558E-04   max: 0.2630E-03   D at   70  1
       a = 15.250      CL =  1.2168
      Cm =  0.0135     CD =  0.05027   =>   CDf =  0.00586    CDp =  0.04441
 plradd ia,ip,cpol           51           0  1.10798306E-03

 Point added to stored polar  1
 Point written to save file  p51droot_Re500k.base.pol                        
 Dump file unspecified or not available
 Calculating wake trajectory ...
 Calculating source influence matrix ...

 Solving BL system ...

 Side 1  free  transition at x/c =  0.0356   34
 Side 2 forced transition at x/c =  1.0000   64

   1   rms: 0.2954E-01   max: 0.1028E+00   T at   34  1   RLX: 0.595
       a = 15.500      CL =  1.2226
      Cm =  0.0134     CD =  0.05151   =>   CDf =  0.00586    CDp =  0.04565

 Side 1  free  transition at x/c =  0.0353   34
 Side 2 forced transition at x/c =  1.0000   64

   2   rms: 0.1198E-01   max: 0.4154E-01   T at   34  1
       a = 15.500      CL =  1.2253
      Cm =  0.0134     CD =  0.05231   =>   CDf =  0.00581    CDp =  0.04651

 Side 1  free  transition at x/c =  0.0350   34
 Side 2 forced transition at x/c =  1.0000   64

   3   rms: 0.1408E-02   max: -.8614E-02   D at   34  1
       a = 15.500      CL =  1.2244
      Cm =  0.0134     CD =  0.05222   =>   CDf =  0.00577    CDp =  0.04645

 Side 1  free  transition at x/c =  0.0350   34
 Side 2 forced transition at x/c =  1.0000   64

   4   rms: 0.8314E-04   max: -.5116E-03   D at   70  1
       a = 15.500      CL =  1.2244
      Cm =  0.0134     CD =  0.05220   =>   CDf =  0.00577    CDp =  0.04644
 plradd ia,ip,cpol           52           0  1.10798306E-03

 Point added to stored polar  1
 Point written to save file  p51droot_Re500k.base.pol                        
 Dump file unspecified or not available
 Calculating wake trajectory ...
 Calculating source influence matrix ...

 Solving BL system ...

 Side 1  free  transition at x/c =  0.0350   34
 Side 2 forced transition at x/c =  1.0000   64

   1   rms: 0.2929E-01   max: 0.8995E-01   T at   34  1   RLX: 0.579
       a = 15.750      CL =  1.2298
      Cm =  0.0134     CD =  0.05347   =>   CDf =  0.00577    CDp =  0.04770

 Side 1  free  transition at x/c =  0.0347   34
 Side 2 forced transition at x/c =  1.0000   64

   2   rms: 0.1250E-01   max: 0.3788E-01   D at   69  1
       a = 15.750      CL =  1.2322
      Cm =  0.0134     CD =  0.05434   =>   CDf =  0.00536    CDp =  0.04898

 Side 1  free  transition at x/c =  0.0344   35
 Side 2 forced transition at x/c =  1.0000   63

   3   rms: 0.2396E-02   max: -.3350E-01   D at    2  1
       a = 15.750      CL =  1.2311
      Cm =  0.0134     CD =  0.05426   =>   CDf =  0.00568    CDp =  0.04858

 Side 1  free  transition at x/c =  0.0344   35
 Side 2 forced transition at x/c =  1.0000   63

   4   rms: 0.6057E-03   max: -.7496E-02   D at    4  1
       a = 15.750      CL =  1.2310
      Cm =  0.0135     CD =  0.05424   =>   CDf =  0.00568    CDp =  0.04856

 Side 1  free  transition at x/c =  0.0344   35
 Side 2 forced transition at x/c =  1.0000   63

   5   rms: 0.4129E-05   max: -.6747E-04   C at   63  2
       a = 15.750      CL =  1.2310
      Cm =  0.0135     CD =  0.05424   =>   CDf =  0.00568    CDp =  0.04856
 plradd ia,ip,cpol           53           0  1.10798306E-03

 Point added to stored polar  1
 Point written to save file  p51droot_Re500k.base.pol                        
 Dump file unspecified or not available
 Calculating wake trajectory ...
 Calculating source influence matrix ...

 Solving BL system ...

 Side 1  free  transition at x/c =  0.0344   35
 Side 2 forced transition at x/c =  1.0000   63

   1   rms: 0.2870E-01   max: 0.9508E-01   T at   35  1   RLX: 0.564
       a = 16.000      CL =  1.2359
      Cm =  0.0133     CD =  0.05556   =>   CDf =  0.00569    CDp =  0.04987

 Side 1  free  transition at x/c =  0.0340   35
 Side 2 forced transition at x/c =  1.0000   63

   2   rms: 0.1244E-01   max: 0.3839E-01   T at   35  1
       a = 16.000      CL =  1.2384
      Cm =  0.0132     CD =  0.05649   =>   CDf =  0.00565    CDp =  0.05084

 Side 1  free  transition at x/c =  0.0337   35
 Side 2 forced transition at x/c =  1.0000   63

   3   rms: 0.1212E-02   max: 0.6707E-02   D at   77  2
       a = 16.000      CL =  1.2375
      Cm =  0.0133     CD =  0.05637   =>   CDf =  0.00562    CDp =  0.05076

 Side 1  free  transition at x/c =  0.0337   35
 Side 2 forced transition at x/c =  1.0000   63

   4   rms: 0.3824E-04   max: 0.3423E-03   D at   77  2
       a = 16.000      CL =  1.2374
      Cm =  0.0133     CD =  0.05636   =>   CDf =  0.00561    CDp =  0.05074
 plradd ia,ip,cpol           54           0  1.10798306E-03

 Point added to stored polar  1
 Point written to save file  p51droot_Re500k.base.pol                        
 Dump file unspecified or not available

.OPERva   c>  
 Polar accumulation disabled

.OPERv   c>  
 XFOIL   c>  
 XFOIL   c>  