
 ===================================================
  XFOIL Version 6.99
  Copyright (C) 2000   Mark Drela, Harold Youngren

  This software comes with ABSOLUTELY NO WARRANTY,
    subject to the GNU General Public License.

  Caveat computor
 ===================================================

 File  xfoil.def  not found

   QUIT    Exit program

  .OPER    Direct operating point(s)
  .MDES    Complex mapping design routine
  .QDES    Surface speed design routine
  .GDES    Geometry design routine

   SAVE f  Write airfoil to labeled coordinate file
   PSAV f  Write airfoil to plain coordinate file
   ISAV f  Write airfoil to ISES coordinate file
   MSAV f  Write airfoil to MSES coordinate file
   REVE    Reverse written-airfoil node ordering

   LOAD f  Read buffer airfoil from coordinate file
   NACA i  Set NACA 4,5-digit airfoil and buffer airfoil
   INTE    Set buffer airfoil by interpolating two airfoils
   NORM    Buffer airfoil normalization toggle
   XYCM rr Change CM reference location, currently  0.25000 0.00000

   BEND    Display structural properties of current airfoil

   PCOP    Set current-airfoil panel nodes directly from buffer airfoil points
   PANE    Set current-airfoil panel nodes ( 160 ) based on curvature
  .PPAR    Show/change paneling

  .PLOP    Plotting options

   WDEF f  Write  current-settings file
   RDEF f  Reread current-settings file
   NAME s  Specify new airfoil name
   NINC    Increment name version number

   Z       Zoom    | (available in all menus)
   U       Unzoom  | 

 XFOIL   c>  
 Labeled airfoil file.  Name:  P-51D TIP (BL215) AIRFOIL                       

 Number of input coordinate points:  41
 Counterclockwise ordering
 Max thickness =     0.114183  at x =   0.463
 Max camber    =     0.012901  at x =   0.463

  LE  x,y  =  -0.00000   0.00019  |   Chord =   1.00000
  TE  x,y  =   1.00000   0.00000  |

 Current airfoil nodes set from buffer airfoil nodes (  41 )

 WARNING: Poor input coordinate distribution
          Excessive panel angle   72.3  at i =  21
          Repaneling with PANE and/or PPAR suggested
           (doing GDES,CADD before repaneling _may_
            improve excessively coarse LE spacing

 XFOIL   c>  
 XFOIL   c>  
 Sharp trailing edge

 Paneling parameters used...
   Number of panel nodes       160
   Panel bunching parameter    1.000
   TE/LE panel density ratio   0.150
   Refined-area/LE panel density ratio    0.200
   Top    side refined area x/c limits  1.000 1.000
   Bottom side refined area x/c limits  1.000 1.000

 XFOIL   c>  
.OPERi   c>  
 Xtr/c     =  1.0000    top    side
 Xtr/c     =  1.0000    bottom side
 Ncrit     =    9.00   ( 0.070 % turb. level )
 Vacc      =  0.0100

 Klag  =  5.6000     Uxwt  =    1.00
 A     =  6.7000     B     =  0.7500       KCt = 0.01485
 CtiniK=  1.8000     CtiniX=  3.3000

..VPAR   c>  
..VPAR   c>  
.OPERi   c>  
 M  =    0.0000
 Re =    400000

.OPERv   c>  
.OPERv   c>  
.OPERv   c>  
 Polar  1 newly created for accumulation
 Airfoil archived with polar: P-51D TIP (BL215) AIRFOIL                       

Enter  polar save filename  OR  <return> for no file   s>  
 New polar save file available

Enter  polar dump filename  OR  <return> for no file   s>  
 Polar dump file will NOT be written

 Polar accumulation enabled

.OPERva   c>   Calculating unit vorticity distributions ...
 Calculating wake trajectory ...
 Calculating source influence matrix ...

 Solving BL system ...

 Initializing BL ...
    side            1  ...
 MRCHUE: Inverse mode at  50     Hk =   3.833
 MRCHUE: Inverse mode at  51     Hk =   4.413
 MRCHUE: Inverse mode at  52     Hk =   4.980
 MRCHUE: Inverse mode at  53     Hk =   5.537
 MRCHUE: Inverse mode at  54     Hk =   6.086
 MRCHUE: Inverse mode at  55     Hk =   6.630
 MRCHUE: Inverse mode at  56     Hk =   7.169
 MRCHUE: Inverse mode at  57     Hk =   7.705
 MRCHUE: Inverse mode at  58     Hk =   8.236
 MRCHUE: Inverse mode at  59     Hk =   8.761
 MRCHUE: Inverse mode at  60     Hk =   9.281
 MRCHUE: Inverse mode at  61     Hk =   9.794
 MRCHUE: Inverse mode at  62     Hk =   7.380
 MRCHUE: Inverse mode at  63     Hk =   5.925
 MRCHUE: Inverse mode at  64     Hk =   4.887
 MRCHUE: Inverse mode at  65     Hk =   4.074
 MRCHUE: Inverse mode at  66     Hk =   3.405
    side            2  ...
 MRCHUE: Inverse mode at  13     Hk =   5.556
 MRCHUE: Inverse mode at  14     Hk =   7.015
 MRCHUE: Inverse mode at  15     Hk =   8.398
 MRCHUE: Inverse mode at  16     Hk =  10.109
 MRCHUE: Inverse mode at  17     Hk =   2.625
 MRCHUE: Inverse mode at  85     Hk =   2.500

 Side 1  free  transition at x/c =  0.7914   62
 Side 2  free  transition at x/c =  0.0544   17

   1   rms: 0.2917E+00   max: 0.1602E+01   D at   17  2   RLX: 0.558
       a = -4.000      CL = -0.2869
      Cm = -0.0393     CD =  0.01555   =>   CDf =  0.00717    CDp =  0.00838

 Side 1  free  transition at x/c =  0.7890   61
 Side 2  free  transition at x/c =  0.0481   16

   2   rms: 0.1036E+00   max: -.6576E+00   D at   16  2   RLX: 0.760
       a = -4.000      CL = -0.2760
      Cm = -0.0362     CD =  0.01425   =>   CDf =  0.00722    CDp =  0.00703

 Side 1  free  transition at x/c =  0.7780   61
 Side 2  free  transition at x/c =  0.0479   16

   3   rms: 0.4790E-01   max: -.3711E+00   D at   66  1
       a = -4.000      CL = -0.2753
      Cm = -0.0350     CD =  0.01365   =>   CDf =  0.00732    CDp =  0.00633

 Side 1  free  transition at x/c =  0.7780   61
 Side 2  free  transition at x/c =  0.0480   16

   4   rms: 0.5672E-02   max: -.6143E-01   D at   66  1
       a = -4.000      CL = -0.2754
      Cm = -0.0351     CD =  0.01363   =>   CDf =  0.00740    CDp =  0.00624

 Side 1  free  transition at x/c =  0.7776   61
 Side 2  free  transition at x/c =  0.0480   16

   5   rms: 0.2272E-03   max: -.4212E-02   D at   63  1
       a = -4.000      CL = -0.2754
      Cm = -0.0351     CD =  0.01364   =>   CDf =  0.00740    CDp =  0.00624

 Side 1  free  transition at x/c =  0.7776   61
 Side 2  free  transition at x/c =  0.0480   16

   6   rms: 0.1241E-05   max: -.2037E-04   D at   63  1
       a = -4.000      CL = -0.2754
      Cm = -0.0351     CD =  0.01364   =>   CDf =  0.00740    CDp =  0.00624
 plradd ia,ip,cpol            1           0  8.18244298E-04

 Point added to stored polar  1
 Point written to save file  p51dtip_Re400k.base.pol                         
 Dump file unspecified or not available
 Calculating wake trajectory ...
 Calculating source influence matrix ...

 Solving BL system ...

 Side 1  free  transition at x/c =  0.7776   61
 Side 2  free  transition at x/c =  0.0480   16

   1   rms: 0.8887E-01   max: -.2704E+00   T at   16  2
       a = -3.500      CL = -0.2244
      Cm = -0.0347     CD =  0.01300   =>   CDf =  0.00767    CDp =  0.00533

 Side 1  free  transition at x/c =  0.7756   61
 Side 2  free  transition at x/c =  0.0505   15

   2   rms: 0.2251E-01   max: -.1832E+00   T at    2  1
       a = -3.500      CL = -0.2234
      Cm = -0.0350     CD =  0.01298   =>   CDf =  0.00750    CDp =  0.00548

 Side 1  free  transition at x/c =  0.7746   61
 Side 2  free  transition at x/c =  0.0506   15

   3   rms: 0.1761E-02   max: 0.1567E-01   D at   62  1
       a = -3.500      CL = -0.2233
      Cm = -0.0350     CD =  0.01298   =>   CDf =  0.00749    CDp =  0.00549

 Side 1  free  transition at x/c =  0.7745   61
 Side 2  free  transition at x/c =  0.0506   15

   4   rms: 0.1223E-04   max: 0.1433E-03   D at   63  1
       a = -3.500      CL = -0.2233
      Cm = -0.0350     CD =  0.01298   =>   CDf =  0.00749    CDp =  0.00549
 plradd ia,ip,cpol            2           0  1.90322683E-03

 Point added to stored polar  1
 Point written to save file  p51dtip_Re400k.base.pol                         
 Dump file unspecified or not available
 Calculating wake trajectory ...
 Calculating source influence matrix ...

 Solving BL system ...

 Side 1  free  transition at x/c =  0.7745   61
 Side 2  free  transition at x/c =  0.0506   15

   1   rms: 0.9060E-01   max: -.2111E+00   D at   17  2
       a = -3.000      CL = -0.1704
      Cm = -0.0350     CD =  0.01238   =>   CDf =  0.00749    CDp =  0.00490

 Side 1  free  transition at x/c =  0.7712   61
 Side 2  free  transition at x/c =  0.0545   16

   2   rms: 0.1281E-01   max: -.1225E+00   D at   15  2
       a = -3.000      CL = -0.1701
      Cm = -0.0351     CD =  0.01245   =>   CDf =  0.00754    CDp =  0.00491

 Side 1  free  transition at x/c =  0.7713   61
 Side 2  free  transition at x/c =  0.0550   16

   3   rms: 0.2059E-03   max: -.3254E-02   D at   16  2
       a = -3.000      CL = -0.1701
      Cm = -0.0351     CD =  0.01246   =>   CDf =  0.00755    CDp =  0.00491

 Side 1  free  transition at x/c =  0.7713   61
 Side 2  free  transition at x/c =  0.0550   16

   4   rms: 0.7430E-06   max: -.6064E-05   D at   16  2
       a = -3.000      CL = -0.1701
      Cm = -0.0351     CD =  0.01246   =>   CDf =  0.00755    CDp =  0.00491
 plradd ia,ip,cpol            3           0  6.80504506E-03

 Point added to stored polar  1
 Point written to save file  p51dtip_Re400k.base.pol                         
 Dump file unspecified or not available
 Calculating wake trajectory ...
 Calculating source influence matrix ...

 Solving BL system ...

 Side 1  free  transition at x/c =  0.7713   61
 Side 2  free  transition at x/c =  0.0550   16

   1   rms: 0.1105E+00   max: -.4083E+00   T at   16  2
       a = -2.500      CL = -0.1180
      Cm = -0.0349     CD =  0.01172   =>   CDf =  0.00755    CDp =  0.00416

 Side 1  free  transition at x/c =  0.7683   61
 Side 2  free  transition at x/c =  0.0758   17

   2   rms: 0.1371E+00   max: -.3267E+01   C at   17  2   RLX: 0.153
       a = -2.500      CL = -0.1187
      Cm = -0.0350     CD =  0.01189   =>   CDf =  0.00751    CDp =  0.00438

 Side 1  free  transition at x/c =  0.7683   61
 Side 2  free  transition at x/c =  0.0771   17

   3   rms: 0.3471E-01   max: -.4081E+00   T at   17  2
       a = -2.500      CL = -0.1175
      Cm = -0.0350     CD =  0.01180   =>   CDf =  0.00751    CDp =  0.00428

 Side 1  free  transition at x/c =  0.7684   61
 Side 2  free  transition at x/c =  0.1467   23

   4   rms: 0.1886E+00   max: -.3802E+01   C at   23  2   RLX: 0.132
       a = -2.500      CL = -0.1211
      Cm = -0.0353     CD =  0.01143   =>   CDf =  0.00726    CDp =  0.00417

 Side 1  free  transition at x/c =  0.7684   61
 Side 2  free  transition at x/c =  0.1640   24

   5   rms: 0.5428E+00   max: -.1192E+02   C at   24  2   RLX: 0.042
       a = -2.500      CL = -0.1211
      Cm = -0.0353     CD =  0.01133   =>   CDf =  0.00714    CDp =  0.00419

 Side 1  free  transition at x/c =  0.7684   61
 Side 2  free  transition at x/c =  0.1724   24

   6   rms: 0.8187E+00   max: -.1656E+02   C at   24  2   RLX: 0.030
       a = -2.500      CL = -0.1213
      Cm = -0.0352     CD =  0.01128   =>   CDf =  0.00709    CDp =  0.00419

 Side 1  free  transition at x/c =  0.7684   61
 Side 2  free  transition at x/c =  0.2019   27

   7   rms: 0.8639E+00   max: -.1855E+02   C at   27  2   RLX: 0.027
       a = -2.500      CL = -0.1222
      Cm = -0.0352     CD =  0.01113   =>   CDf =  0.00699    CDp =  0.00414

 Side 1  free  transition at x/c =  0.7684   61
 Side 2  free  transition at x/c =  0.2003   26

   8   rms: 0.2861E+00   max: -.5895E+01   C at   26  2   RLX: 0.085
       a = -2.500      CL = -0.1220
      Cm = -0.0351     CD =  0.01116   =>   CDf =  0.00700    CDp =  0.00416

 Side 1  free  transition at x/c =  0.7683   61
 Side 2  free  transition at x/c =  0.2388   29

   9   rms: 0.2520E+00   max: -.5209E+01   C at   29  2   RLX: 0.096
       a = -2.500      CL = -0.1234
      Cm = -0.0351     CD =  0.01096   =>   CDf =  0.00685    CDp =  0.00411

 Side 1  free  transition at x/c =  0.7683   61
 Side 2  free  transition at x/c =  0.2514   30

  10   rms: 0.1853E+00   max: -.3813E+01   C at   30  2   RLX: 0.131
       a = -2.500      CL = -0.1238
      Cm = -0.0350     CD =  0.01089   =>   CDf =  0.00680    CDp =  0.00409

 Side 1  free  transition at x/c =  0.7683   61
 Side 2  free  transition at x/c =  0.2642   31

  11   rms: 0.1349E+00   max: -.2759E+01   C at   31  2   RLX: 0.181
       a = -2.500      CL = -0.1241
      Cm = -0.0349     CD =  0.01081   =>   CDf =  0.00674    CDp =  0.00407

 Side 1  free  transition at x/c =  0.7683   61
 Side 2  free  transition at x/c =  0.2777   32

  12   rms: 0.7847E-01   max: -.1573E+01   C at   32  2   RLX: 0.318
       a = -2.500      CL = -0.1245
      Cm = -0.0348     CD =  0.01074   =>   CDf =  0.00668    CDp =  0.00406

 Side 1  free  transition at x/c =  0.7683   61
 Side 2  free  transition at x/c =  0.2740   32

  13   rms: 0.3178E-01   max: 0.6255E+00   C at   32  2
       a = -2.500      CL = -0.1229
      Cm = -0.0347     CD =  0.01093   =>   CDf =  0.00669    CDp =  0.00424

 Side 1  free  transition at x/c =  0.7683   61
 Side 2  free  transition at x/c =  0.2482   30

  14   rms: 0.5372E-02   max: 0.1015E+00   C at   30  2
       a = -2.500      CL = -0.1226
      Cm = -0.0347     CD =  0.01098   =>   CDf =  0.00679    CDp =  0.00419

 Side 1  free  transition at x/c =  0.7683   61
 Side 2  free  transition at x/c =  0.2442   30

  15   rms: 0.6680E-03   max: -.1399E-01   C at   30  2
       a = -2.500      CL = -0.1226
      Cm = -0.0347     CD =  0.01099   =>   CDf =  0.00681    CDp =  0.00418

 Side 1  free  transition at x/c =  0.7683   61
 Side 2  free  transition at x/c =  0.2445   30

  16   rms: 0.2268E-05   max: -.3498E-04   C at   30  2
       a = -2.500      CL = -0.1226
      Cm = -0.0347     CD =  0.01099   =>   CDf =  0.00681    CDp =  0.00418
 plradd ia,ip,cpol            4           0  6.80504506E-03

 Point added to stored polar  1
 Point written to save file  p51dtip_Re400k.base.pol                         
 Dump file unspecified or not available
 Calculating wake trajectory ...
 Calculating source influence matrix ...

 Solving BL system ...

 Side 1  free  transition at x/c =  0.7683   61
 Side 2  free  transition at x/c =  0.2445   30

   1   rms: 0.1871E+01   max: -.3907E+02   C at   30  2   RLX: 0.013
       a = -2.000      CL = -0.1224
      Cm = -0.0347     CD =  0.01090   =>   CDf =  0.00681    CDp =  0.00409

 Side 1  free  transition at x/c =  0.7683   61
 Side 2  free  transition at x/c =  0.2570   30

   2   rms: 0.2329E+01   max: -.4695E+02   C at   30  2   RLX: 0.011
       a = -2.000      CL = -0.1220
      Cm = -0.0346     CD =  0.01086   =>   CDf =  0.00676    CDp =  0.00410

 Side 1  free  transition at x/c =  0.7682   61
 Side 2  free  transition at x/c =  0.2693   31

   3   rms: 0.2437E+01   max: -.4885E+02   C at   31  2   RLX: 0.010
       a = -2.000      CL = -0.1218
      Cm = -0.0346     CD =  0.01078   =>   CDf =  0.00671    CDp =  0.00408

 Side 1  free  transition at x/c =  0.7682   61
 Side 2  free  transition at x/c =  0.2828   32

   4   rms: 0.2837E+01   max: -.5616E+02   C at   32  2   RLX: 0.009
       a = -2.000      CL = -0.1218
      Cm = -0.0346     CD =  0.01071   =>   CDf =  0.00665    CDp =  0.00406

 Side 1  free  transition at x/c =  0.7682   61
 Side 2  free  transition at x/c =  0.2918   33

   5   rms: 0.2441E+01   max: -.4917E+02   C at   33  2   RLX: 0.010
       a = -2.000      CL = -0.1215
      Cm = -0.0346     CD =  0.01066   =>   CDf =  0.00661    CDp =  0.00404

 Side 1  free  transition at x/c =  0.7681   61
 Side 2  free  transition at x/c =  0.3175   35

   6   rms: 0.3198E+01   max: -.6377E+02   C at   35  2   RLX: 0.008
       a = -2.000      CL = -0.1219
      Cm = -0.0345     CD =  0.01052   =>   CDf =  0.00651    CDp =  0.00401

 Side 1  free  transition at x/c =  0.7681   61
 Side 2  free  transition at x/c =  0.3201   35

   7   rms: 0.2404E+01   max: -.4750E+02   C at   35  2   RLX: 0.011
       a = -2.000      CL = -0.1214
      Cm = -0.0345     CD =  0.01051   =>   CDf =  0.00650    CDp =  0.00401

 Side 1  free  transition at x/c =  0.7681   61
 Side 2  free  transition at x/c =  0.3255   35

   8   rms: 0.2132E+01   max: -.4104E+02   C at   35  2   RLX: 0.012
       a = -2.000      CL = -0.1209
      Cm = -0.0345     CD =  0.01049   =>   CDf =  0.00648    CDp =  0.00400

 Side 1  free  transition at x/c =  0.7680   61
 Side 2  free  transition at x/c =  0.3409   36

   9   rms: 0.1893E+01   max: -.3617E+02   C at   36  2   RLX: 0.014
       a = -2.000      CL = -0.1206
      Cm = -0.0345     CD =  0.01041   =>   CDf =  0.00643    CDp =  0.00398

 Side 1  free  transition at x/c =  0.7680   61
 Side 2  free  transition at x/c =  0.3605   38

  10   rms: 0.1709E+01   max: -.3351E+02   C at   38  2   RLX: 0.015
       a = -2.000      CL = -0.1206
      Cm = -0.0344     CD =  0.01029   =>   CDf =  0.00635    CDp =  0.00394

 Side 1  free  transition at x/c =  0.7680   61
 Side 2  free  transition at x/c =  0.3775   39

  11   rms: 0.1483E+01   max: -.2874E+02   C at   39  2   RLX: 0.017
       a = -2.000      CL = -0.1203
      Cm = -0.0344     CD =  0.01021   =>   CDf =  0.00630    CDp =  0.00391

 Side 1  free  transition at x/c =  0.7679   61
 Side 2  free  transition at x/c =  0.3965   40

  12   rms: 0.1281E+01   max: -.2428E+02   C at   40  2   RLX: 0.021
       a = -2.000      CL = -0.1199
      Cm = -0.0344     CD =  0.01011   =>   CDf =  0.00623    CDp =  0.00388

 Side 1  free  transition at x/c =  0.7679   61
 Side 2  free  transition at x/c =  0.4213   42

  13   rms: 0.1670E+01   max: -.3126E+02   C at   42  2   RLX: 0.016
       a = -2.000      CL = -0.1200
      Cm = -0.0343     CD =  0.00995   =>   CDf =  0.00613    CDp =  0.00382

 Side 1  free  transition at x/c =  0.7678   61
 Side 2  free  transition at x/c =  0.4388   43

  14   rms: 0.2151E+01   max: -.3898E+02   C at   43  2   RLX: 0.013
       a = -2.000      CL = -0.1200
      Cm = -0.0342     CD =  0.00984   =>   CDf =  0.00606    CDp =  0.00378

 Side 1  free  transition at x/c =  0.7678   61
 Side 2  free  transition at x/c =  0.4668   45

  15   rms: 0.3221E+01   max: -.5628E+02   C at   45  2   RLX: 0.009
       a = -2.000      CL = -0.1204
      Cm = -0.0341     CD =  0.00967   =>   CDf =  0.00594    CDp =  0.00373

 Side 1  free  transition at x/c =  0.7678   61
 Side 2  free  transition at x/c =  0.4793   46

  16   rms: 0.3369E+01   max: -.5863E+02   C at   46  2   RLX: 0.009
       a = -2.000      CL = -0.1205
      Cm = -0.0341     CD =  0.00960   =>   CDf =  0.00589    CDp =  0.00372

 Side 1  free  transition at x/c =  0.7677   61
 Side 2  free  transition at x/c =  0.4935   47

  17   rms: 0.3634E+01   max: -.6236E+02   C at   47  2   RLX: 0.008
       a = -2.000      CL = -0.1207
      Cm = -0.0340     CD =  0.00953   =>   CDf =  0.00582    CDp =  0.00370

 Side 1  free  transition at x/c =  0.7677   61
 Side 2  free  transition at x/c =  0.5081   48

  18   rms: 0.3996E+01   max: -.6700E+02   C at   48  2   RLX: 0.007
       a = -2.000      CL = -0.1209
      Cm = -0.0339     CD =  0.00946   =>   CDf =  0.00576    CDp =  0.00370

 Side 1  free  transition at x/c =  0.7677   61
 Side 2  free  transition at x/c =  0.5227   49

  19   rms: 0.4138E+01   max: -.6863E+02   C at   49  2   RLX: 0.007
       a = -2.000      CL = -0.1211
      Cm = -0.0339     CD =  0.00940   =>   CDf =  0.00570    CDp =  0.00370

 Side 1  free  transition at x/c =  0.7677   61
 Side 2  free  transition at x/c =  0.5381   50

  20   rms: 0.4233E+01   max: -.6945E+02   C at   50  2   RLX: 0.007
       a = -2.000      CL = -0.1213
      Cm = -0.0338     CD =  0.00935   =>   CDf =  0.00563    CDp =  0.00372

 Side 1  free  transition at x/c =  0.7677   61
 Side 2  free  transition at x/c =  0.5549   52

  21   rms: 0.3426E+01   max: -.6062E+02   C at   52  2   RLX: 0.008
       a = -2.000      CL = -0.1217
      Cm = -0.0336     CD =  0.00930   =>   CDf =  0.00556    CDp =  0.00374

 Side 1  free  transition at x/c =  0.7676   61
 Side 2  free  transition at x/c =  0.5766   53

  22   rms: 0.3614E+01   max: -.6176E+02   C at   53  2   RLX: 0.008
       a = -2.000      CL = -0.1220
      Cm = -0.0335     CD =  0.00927   =>   CDf =  0.00547    CDp =  0.00380

 Side 1  free  transition at x/c =  0.7676   61
 Side 2  free  transition at x/c =  0.5941   54

  23   rms: 0.1536E+01   max: -.2635E+02   C at   54  2   RLX: 0.019
       a = -2.000      CL = -0.1217
      Cm = -0.0334     CD =  0.00926   =>   CDf =  0.00559    CDp =  0.00366

 Side 1  free  transition at x/c =  0.7676   62
 Side 2  free  transition at x/c =  0.6295   56

  24   rms: 0.1519E+01   max: -.2625E+02   D at    2  1   RLX: 0.019
       a = -2.000      CL = -0.1224
      Cm = -0.0328     CD =  0.00929   =>   CDf =  0.00531    CDp =  0.00398

 Side 1  free  transition at x/c =  0.7675   62
 Side 2  free  transition at x/c =  0.6425   57

  25   rms: 0.1960E+00   max: 0.1238E+01   D at   58  2   RLX: 0.737
       a = -2.000      CL = -0.0929
      Cm = -0.0324     CD =  0.00972   =>   CDf =  0.00526    CDp =  0.00446

 MRCHDU: Convergence failed at  61  side 2    Res =  0.1191E+01
 MRCHDU: Convergence failed at  62  side 2    Res =  0.5397E+01
 MRCHDU: Convergence failed at  63  side 2    Res =  0.4155E+01
 MRCHDU: Convergence failed at  64  side 2    Res =  0.2318E+01
 MRCHDU: Convergence failed at  65  side 2    Res =  0.2009E+01
 MRCHDU: Convergence failed at  66  side 2    Res =  0.2737E+01
 MRCHDU: Convergence failed at  67  side 2    Res =  0.3170E+01
 MRCHDU: Convergence failed at  68  side 2    Res =  0.3509E+01
 MRCHDU: Convergence failed at  69  side 2    Res =  0.3745E+01
 MRCHDU: Convergence failed at  70  side 2    Res =  0.3894E+01
 MRCHDU: Convergence failed at  71  side 2    Res =  0.3980E+01
 MRCHDU: Convergence failed at  72  side 2    Res =  0.4020E+01
 MRCHDU: Convergence failed at  73  side 2    Res =  0.4035E+01
 MRCHDU: Convergence failed at  74  side 2    Res =  0.4036E+01
 MRCHDU: Convergence failed at  75  side 2    Res =  0.4026E+01
 MRCHDU: Convergence failed at  76  side 2    Res =  0.4010E+01
 MRCHDU: Convergence failed at  77  side 2    Res =  0.1805E+02
 MRCHDU: Convergence failed at  78  side 2    Res =  0.3192E+01
 MRCHDU: Convergence failed at  79  side 2    Res =  0.3147E+01
 MRCHDU: Convergence failed at  80  side 2    Res =  0.3108E+01
 MRCHDU: Convergence failed at  81  side 2    Res =  0.3089E+01
 MRCHDU: Convergence failed at  82  side 2    Res =  0.3115E+01
 MRCHDU: Convergence failed at  83  side 2    Res =  0.4012E+01
 Side 1  free  transition at x/c =  0.7661   62
 Side 2  free  transition at x/c =  0.9181   77

  26   rms: 0.4291E+00   max: 0.4683E+01   C at   77  2   RLX: 0.177
       a = -2.000      CL = -0.1785
      Cm =  0.0219     CD =  0.00706   =>   CDf =  0.00486    CDp =  0.00220

 Side 1  free  transition at x/c =  0.7661   62
 Side 2  free  transition at x/c =  0.8322   71

  27   rms: 0.6051E+00   max: 0.1072E+02   C at   71  2   RLX: 0.140
       a = -2.000      CL = -0.1575
      Cm =  0.0113     CD =  0.00765   =>   CDf =  0.00523    CDp =  0.00242

 Side 1  free  transition at x/c =  0.7661   62
 Side 2  free  transition at x/c =  0.7966   68

  28   rms: 0.2477E+00   max: 0.3341E+01   C at   68  2   RLX: 0.449
       a = -2.000      CL = -0.1240
      Cm = -0.0089     CD =  0.00822   =>   CDf =  0.00531    CDp =  0.00291

 Side 1  free  transition at x/c =  0.7659   62
 Side 2  free  transition at x/c =  0.7512   65

  29   rms: 0.1165E+00   max: 0.7407E+00   T at   65  2
       a = -2.000      CL = -0.0866
      Cm = -0.0313     CD =  0.00945   =>   CDf =  0.00537    CDp =  0.00408

 MRCHDU: Convergence failed at  65  side 2    Res =  0.3318E+01
 MRCHDU: Convergence failed at  66  side 2    Res =  0.3918E+01
 Side 1  free  transition at x/c =  0.7657   62
 Side 2  free  transition at x/c =  0.7159   62

  30   rms: 0.6261E-01   max: -.5779E+00   D at   66  2   RLX: 0.865
       a = -2.000      CL = -0.0841
      Cm = -0.0318     CD =  0.00971   =>   CDf =  0.00504    CDp =  0.00467

 Side 1  free  transition at x/c =  0.7657   62
 Side 2  free  transition at x/c =  0.7101   62

  31   rms: 0.1244E-01   max: -.1639E+00   D at   64  2
       a = -2.000      CL = -0.0825
      Cm = -0.0324     CD =  0.00961   =>   CDf =  0.00524    CDp =  0.00437

 Side 1  free  transition at x/c =  0.7657   62
 Side 2  free  transition at x/c =  0.7094   62

  32   rms: 0.8958E-03   max: 0.1259E-01   D at   63  2
       a = -2.000      CL = -0.0825
      Cm = -0.0324     CD =  0.00962   =>   CDf =  0.00525    CDp =  0.00437

 Side 1  free  transition at x/c =  0.7657   62
 Side 2  free  transition at x/c =  0.7092   62

  33   rms: 0.6409E-05   max: -.1326E-03   D at   64  2
       a = -2.000      CL = -0.0825
      Cm = -0.0324     CD =  0.00962   =>   CDf =  0.00525    CDp =  0.00437
 plradd ia,ip,cpol            5           0  1.48996236E-02

 Point added to stored polar  1
 Point written to save file  p51dtip_Re400k.base.pol                         
 Dump file unspecified or not available
 Calculating wake trajectory ...
 Calculating source influence matrix ...

 Solving BL system ...

 Side 1  free  transition at x/c =  0.7657   62
 Side 2  free  transition at x/c =  0.7092   62

   1   rms: 0.1387E+00   max: -.8514E+00   T at   62  2   RLX: 0.587
       a = -1.500      CL = -0.0516
      Cm = -0.0316     CD =  0.00992   =>   CDf =  0.00525    CDp =  0.00467

 Side 1  free  transition at x/c =  0.7643   62
 Side 2  free  transition at x/c =  0.7279   63

   2   rms: 0.4888E-01   max: -.4278E+00   T at   63  2
       a = -1.500      CL = -0.0288
      Cm = -0.0316     CD =  0.01016   =>   CDf =  0.00528    CDp =  0.00488

 Side 1  free  transition at x/c =  0.7635   62
 Side 2  free  transition at x/c =  0.7450   64

   3   rms: 0.1213E-01   max: 0.1946E+00   D at   65  2
       a = -1.500      CL = -0.0289
      Cm = -0.0315     CD =  0.01017   =>   CDf =  0.00526    CDp =  0.00491

 Side 1  free  transition at x/c =  0.7635   62
 Side 2  free  transition at x/c =  0.7452   64

   4   rms: 0.1763E-02   max: 0.2606E-01   D at   65  2
       a = -1.500      CL = -0.0289
      Cm = -0.0315     CD =  0.01018   =>   CDf =  0.00526    CDp =  0.00491

 Side 1  free  transition at x/c =  0.7635   62
 Side 2  free  transition at x/c =  0.7451   64

   5   rms: 0.1385E-04   max: 0.1642E-03   D at   66  2
       a = -1.500      CL = -0.0289
      Cm = -0.0315     CD =  0.01018   =>   CDf =  0.00526    CDp =  0.00492
 plradd ia,ip,cpol            6           0  1.48996236E-02

 Point added to stored polar  1
 Point written to save file  p51dtip_Re400k.base.pol                         
 Dump file unspecified or not available
 Calculating wake trajectory ...
 Calculating source influence matrix ...

 Solving BL system ...

 Side 1  free  transition at x/c =  0.7635   62
 Side 2  free  transition at x/c =  0.7451   64

   1   rms: 0.1182E+00   max: -.8712E+00   T at   64  2   RLX: 0.574
       a = -1.000      CL =  0.0020
      Cm = -0.0312     CD =  0.01057   =>   CDf =  0.00539    CDp =  0.00518

 Side 1  free  transition at x/c =  0.7625   62
 Side 2  free  transition at x/c =  0.7620   64

   2   rms: 0.5527E-01   max: -.3752E+00   T at   64  2
       a = -1.000      CL =  0.0258
      Cm = -0.0314     CD =  0.01067   =>   CDf =  0.00531    CDp =  0.00536

 Side 1  free  transition at x/c =  0.7608   62
 Side 2  free  transition at x/c =  0.7713   65

   3   rms: 0.4213E-01   max: 0.4655E+00   D at   66  2
       a = -1.000      CL =  0.0252
      Cm = -0.0310     CD =  0.01056   =>   CDf =  0.00518    CDp =  0.00538

 Side 1  free  transition at x/c =  0.7608   62
 Side 2  free  transition at x/c =  0.7689   65

   4   rms: 0.9477E-02   max: 0.1350E+00   D at   66  2
       a = -1.000      CL =  0.0249
      Cm = -0.0308     CD =  0.01064   =>   CDf =  0.00519    CDp =  0.00545

 Side 1  free  transition at x/c =  0.7608   62
 Side 2  free  transition at x/c =  0.7675   65

   5   rms: 0.1843E-03   max: -.3147E-02   D at   65  2
       a = -1.000      CL =  0.0249
      Cm = -0.0308     CD =  0.01064   =>   CDf =  0.00519    CDp =  0.00545

 Side 1  free  transition at x/c =  0.7608   62
 Side 2  free  transition at x/c =  0.7675   65

   6   rms: 0.1170E-05   max: -.7294E-05   D at   68  2
       a = -1.000      CL =  0.0249
      Cm = -0.0308     CD =  0.01064   =>   CDf =  0.00519    CDp =  0.00545
 plradd ia,ip,cpol            7           0  1.48996236E-02

 Point added to stored polar  1
 Point written to save file  p51dtip_Re400k.base.pol                         
 Dump file unspecified or not available
 Calculating wake trajectory ...
 Calculating source influence matrix ...

 Solving BL system ...

 Side 1  free  transition at x/c =  0.7608   62
 Side 2  free  transition at x/c =  0.7675   65

   1   rms: 0.8951E-01   max: -.4210E+00   T at   65  2
       a = -0.500      CL =  0.0797
      Cm = -0.0306     CD =  0.01099   =>   CDf =  0.00529    CDp =  0.00569

 Side 1  free  transition at x/c =  0.7581   63
 Side 2  free  transition at x/c =  0.7800   65

   2   rms: 0.1544E-01   max: -.1509E+00   D at   65  2
       a = -0.500      CL =  0.0800
      Cm = -0.0308     CD =  0.01093   =>   CDf =  0.00516    CDp =  0.00577

 Side 1  free  transition at x/c =  0.7581   63
 Side 2  free  transition at x/c =  0.7808   65

   3   rms: 0.2598E-02   max: 0.2193E-01   D at   66  2
       a = -0.500      CL =  0.0799
      Cm = -0.0308     CD =  0.01093   =>   CDf =  0.00517    CDp =  0.00576

 Side 1  free  transition at x/c =  0.7581   63
 Side 2  free  transition at x/c =  0.7804   65

   4   rms: 0.2504E-04   max: -.2483E-03   D at   65  2
       a = -0.500      CL =  0.0799
      Cm = -0.0308     CD =  0.01093   =>   CDf =  0.00517    CDp =  0.00576
 plradd ia,ip,cpol            8           0  0.51561475    

 Point added to stored polar  1
 Point written to save file  p51dtip_Re400k.base.pol                         
 Dump file unspecified or not available
 Calculating wake trajectory ...
 Calculating source influence matrix ...

 Solving BL system ...

 Side 1  free  transition at x/c =  0.7581   63
 Side 2  free  transition at x/c =  0.7804   65

   1   rms: 0.9643E-01   max: -.5491E+00   T at   65  2   RLX: 0.911
       a =  0.000      CL =  0.1280
      Cm = -0.0299     CD =  0.01131   =>   CDf =  0.00517    CDp =  0.00614

 Side 1  free  transition at x/c =  0.7560   63
 Side 2  free  transition at x/c =  0.7895   65

   2   rms: 0.6853E-01   max: -.5033E+00   D at   66  2   RLX: 0.993
       a =  0.000      CL =  0.1387
      Cm = -0.0320     CD =  0.01184   =>   CDf =  0.00508    CDp =  0.00676

 Side 1  free  transition at x/c =  0.7557   63
 Side 2  free  transition at x/c =  0.7978   66

   3   rms: 0.6019E-01   max: 0.7470E+00   D at   66  2
       a =  0.000      CL =  0.1349
      Cm = -0.0310     CD =  0.01109   =>   CDf =  0.00515    CDp =  0.00595

 Side 1  free  transition at x/c =  0.7557   63
 Side 2  free  transition at x/c =  0.7952   66

   4   rms: 0.1489E-01   max: 0.2105E+00   D at   67  2
       a =  0.000      CL =  0.1344
      Cm = -0.0306     CD =  0.01123   =>   CDf =  0.00513    CDp =  0.00609

 Side 1  free  transition at x/c =  0.7557   63
 Side 2  free  transition at x/c =  0.7934   66

   5   rms: 0.3482E-03   max: 0.6689E-02   D at   67  2
       a =  0.000      CL =  0.1344
      Cm = -0.0306     CD =  0.01123   =>   CDf =  0.00513    CDp =  0.00609

 Side 1  free  transition at x/c =  0.7557   63
 Side 2  free  transition at x/c =  0.7934   66

   6   rms: 0.5119E-05   max: 0.4262E-04   D at   67  2
       a =  0.000      CL =  0.1344
      Cm = -0.0306     CD =  0.01123   =>   CDf =  0.00513    CDp =  0.00609
 plradd ia,ip,cpol            9           0  0.51561475    

 Point added to stored polar  1
 Point written to save file  p51dtip_Re400k.base.pol                         
 Dump file unspecified or not available
 Calculating wake trajectory ...
 Calculating source influence matrix ...

 Solving BL system ...

 Side 1  free  transition at x/c =  0.7557   63
 Side 2  free  transition at x/c =  0.7934   66

   1   rms: 0.8099E-01   max: -.2666E+00   T at   66  2
       a =  0.500      CL =  0.1896
      Cm = -0.0308     CD =  0.01140   =>   CDf =  0.00516    CDp =  0.00624

 Side 1  free  transition at x/c =  0.7537   64
 Side 2  free  transition at x/c =  0.7946   65

   2   rms: 0.3747E-01   max: -.2877E+00   D at   65  2
       a =  0.500      CL =  0.1913
      Cm = -0.0314     CD =  0.01141   =>   CDf =  0.00508    CDp =  0.00633

 Side 1  free  transition at x/c =  0.7537   64
 Side 2  free  transition at x/c =  0.7972   65

   3   rms: 0.2754E-02   max: 0.4074E-01   D at   67  2
       a =  0.500      CL =  0.1910
      Cm = -0.0314     CD =  0.01135   =>   CDf =  0.00513    CDp =  0.00622

 Side 1  free  transition at x/c =  0.7537   64
 Side 2  free  transition at x/c =  0.7971   65

   4   rms: 0.5176E-04   max: 0.8311E-03   D at   67  2
       a =  0.500      CL =  0.1910
      Cm = -0.0314     CD =  0.01135   =>   CDf =  0.00512    CDp =  0.00622
 plradd ia,ip,cpol           10           0  0.51561475    

 Point added to stored polar  1
 Point written to save file  p51dtip_Re400k.base.pol                         
 Dump file unspecified or not available
 Calculating wake trajectory ...
 Calculating source influence matrix ...

 Solving BL system ...

 Side 1  free  transition at x/c =  0.7537   64
 Side 2  free  transition at x/c =  0.7971   65

   1   rms: 0.8001E-01   max: -.1197E+00   T at   65  2
       a =  1.000      CL =  0.2480
      Cm = -0.0322     CD =  0.01147   =>   CDf =  0.00511    CDp =  0.00635

 Side 1  free  transition at x/c =  0.7511   65
 Side 2  free  transition at x/c =  0.7992   64

   2   rms: 0.1284E-01   max: -.6231E-01   D at   65  2
       a =  1.000      CL =  0.2482
      Cm = -0.0323     CD =  0.01143   =>   CDf =  0.00510    CDp =  0.00633

 Side 1  free  transition at x/c =  0.7515   65
 Side 2  free  transition at x/c =  0.7996   64

   3   rms: 0.1334E-02   max: -.1321E-01   D at    6  1
       a =  1.000      CL =  0.2482
      Cm = -0.0323     CD =  0.01143   =>   CDf =  0.00512    CDp =  0.00631

 Side 1  free  transition at x/c =  0.7515   65
 Side 2  free  transition at x/c =  0.7996   64

   4   rms: 0.2337E-05   max: -.2440E-04   D at    4  1
       a =  1.000      CL =  0.2482
      Cm = -0.0323     CD =  0.01143   =>   CDf =  0.00512    CDp =  0.00631
 plradd ia,ip,cpol           11           0  0.51561475    

 Point added to stored polar  1
 Point written to save file  p51dtip_Re400k.base.pol                         
 Dump file unspecified or not available
 Calculating wake trajectory ...
 Calculating source influence matrix ...

 Solving BL system ...

 Side 1  free  transition at x/c =  0.7515   65
 Side 2  free  transition at x/c =  0.7996   64

   1   rms: 0.8034E-01   max: -.8148E-01   T at   64  2
       a =  1.500      CL =  0.3054
      Cm = -0.0331     CD =  0.01149   =>   CDf =  0.00512    CDp =  0.00637

 Side 1  free  transition at x/c =  0.7488   64
 Side 2  free  transition at x/c =  0.8024   64

   2   rms: 0.5788E-02   max: 0.2885E-01   D at    6  1
       a =  1.500      CL =  0.3052
      Cm = -0.0331     CD =  0.01154   =>   CDf =  0.00512    CDp =  0.00642

 Side 1  free  transition at x/c =  0.7487   64
 Side 2  free  transition at x/c =  0.8023   64

   3   rms: 0.9836E-04   max: 0.8897E-03   D at   66  2
       a =  1.500      CL =  0.3052
      Cm = -0.0331     CD =  0.01154   =>   CDf =  0.00512    CDp =  0.00642
 plradd ia,ip,cpol           12           0  0.50187308    

 Point added to stored polar  1
 Point written to save file  p51dtip_Re400k.base.pol                         
 Dump file unspecified or not available
 Calculating wake trajectory ...
 Calculating source influence matrix ...

 Solving BL system ...

 Side 1  free  transition at x/c =  0.7487   64
 Side 2  free  transition at x/c =  0.8023   64

   1   rms: 0.8342E-01   max: -.1161E+00   T at   64  2
       a =  2.000      CL =  0.3622
      Cm = -0.0344     CD =  0.01172   =>   CDf =  0.00503    CDp =  0.00669

 Side 1  free  transition at x/c =  0.7340   64
 Side 2  free  transition at x/c =  0.8048   64

   2   rms: 0.1145E+00   max: -.5926E+00   D at   70  1   RLX: 0.844
       a =  2.000      CL =  0.3619
      Cm = -0.0323     CD =  0.01163   =>   CDf =  0.00494    CDp =  0.00669

 Side 1  free  transition at x/c =  0.7470   65
 Side 2  free  transition at x/c =  0.8045   64

   3   rms: 0.6831E-01   max: 0.6944E+00   D at   66  1
       a =  2.000      CL =  0.3593
      Cm = -0.0333     CD =  0.01163   =>   CDf =  0.00510    CDp =  0.00653

 Side 1  free  transition at x/c =  0.7380   65
 Side 2  free  transition at x/c =  0.8047   64

   4   rms: 0.9748E-02   max: -.1005E+00   D at   67  1
       a =  2.000      CL =  0.3618
      Cm = -0.0334     CD =  0.01124   =>   CDf =  0.00510    CDp =  0.00614

 Side 1  free  transition at x/c =  0.7392   65
 Side 2  free  transition at x/c =  0.8047   64

   5   rms: 0.6266E-03   max: -.9117E-02   D at   69  1
       a =  2.000      CL =  0.3619
      Cm = -0.0335     CD =  0.01125   =>   CDf =  0.00507    CDp =  0.00618

 Side 1  free  transition at x/c =  0.7391   65
 Side 2  free  transition at x/c =  0.8046   64

   6   rms: 0.7453E-05   max: -.8756E-04   D at   69  1
       a =  2.000      CL =  0.3619
      Cm = -0.0335     CD =  0.01125   =>   CDf =  0.00507    CDp =  0.00618
 plradd ia,ip,cpol           13           0  1.43976538E-02

 Point added to stored polar  1
 Point written to save file  p51dtip_Re400k.base.pol                         
 Dump file unspecified or not available
 Calculating wake trajectory ...
 Calculating source influence matrix ...

 Solving BL system ...

 Side 1  free  transition at x/c =  0.7391   65
 Side 2  free  transition at x/c =  0.8046   64

   1   rms: 0.1045E+00   max: -.1130E+00   T at   64  2
       a =  2.500      CL =  0.4187
      Cm = -0.0328     CD =  0.01036   =>   CDf =  0.00507    CDp =  0.00528

 Side 1  free  transition at x/c =  0.7236   64
 Side 2  free  transition at x/c =  0.8068   64

   2   rms: 0.3649E-01   max: -.3517E+00   D at   64  1
       a =  2.500      CL =  0.4181
      Cm = -0.0328     CD =  0.01045   =>   CDf =  0.00503    CDp =  0.00543

 Side 1  free  transition at x/c =  0.7236   64
 Side 2  free  transition at x/c =  0.8067   64

   3   rms: 0.2838E-02   max: -.4191E-01   D at   68  1
       a =  2.500      CL =  0.4179
      Cm = -0.0328     CD =  0.01045   =>   CDf =  0.00510    CDp =  0.00535

 Side 1  free  transition at x/c =  0.7233   64
 Side 2  free  transition at x/c =  0.8067   64

   4   rms: 0.8294E-04   max: -.1607E-02   D at   68  1
       a =  2.500      CL =  0.4179
      Cm = -0.0328     CD =  0.01045   =>   CDf =  0.00511    CDp =  0.00534
 plradd ia,ip,cpol           14           0  1.43976538E-02

 Point added to stored polar  1
 Point written to save file  p51dtip_Re400k.base.pol                         
 Dump file unspecified or not available
 Calculating wake trajectory ...
 Calculating source influence matrix ...

 Solving BL system ...

 Side 1  free  transition at x/c =  0.7233   64
 Side 2  free  transition at x/c =  0.8067   64

   1   rms: 0.1281E+00   max: 0.6435E+00   T at   64  1   RLX: 0.806
       a =  3.000      CL =  0.4641
      Cm = -0.0320     CD =  0.00959   =>   CDf =  0.00494    CDp =  0.00465

 MRCHDU: Convergence failed at  65  side 1    Res =  0.9027E+01
 MRCHDU: Convergence failed at  66  side 1    Res =  0.1065E+02
 MRCHDU: Convergence failed at  67  side 1    Res =  0.7272E+01
 MRCHDU: Convergence failed at  68  side 1    Res =  0.7114E+01
 MRCHDU: Convergence failed at  69  side 1    Res =  0.8255E+01
 MRCHDU: Convergence failed at  70  side 1    Res =  0.9444E+01
 MRCHDU: Convergence failed at  71  side 1    Res =  0.1075E+02
 MRCHDU: Convergence failed at  72  side 1    Res =  0.1239E+02
 MRCHDU: Convergence failed at  73  side 1    Res =  0.1415E+02
 MRCHDU: Convergence failed at  74  side 1    Res =  0.1633E+02
 MRCHDU: Convergence failed at  75  side 1    Res =  0.1984E+02
 MRCHDU: Convergence failed at  76  side 1    Res =  0.2430E+02
 MRCHDU: Convergence failed at  77  side 1    Res =  0.3169E+02
 MRCHDU: Convergence failed at  78  side 1    Res =  0.5254E+02
 MRCHDU: Convergence failed at  79  side 1    Res =  0.1669E+03
 MRCHDU: Convergence failed at  80  side 1    Res =  0.2044E+03
 MRCHDU: Convergence failed at  81  side 1    Res =  0.9690E+02
 MRCHDU: Convergence failed at  82  side 1    Res =  0.7408E+02
 MRCHDU: Convergence failed at  83  side 1    Res =  0.4115E+02
 MRCHDU: Convergence failed at  84  side 1    Res =  0.2288E+02
 MRCHDU: Convergence failed at  85  side 1    Res =  0.1380E+02
 Side 1  free  transition at x/c =  0.7154   64
 Side 2  free  transition at x/c =  0.8086   63
 idif Ue xi dudx           1  0.25333038      2.79724598E-03   90.564209    
 Uenew xinew           2  2.88795549E-02  3.18884850E-04

   2   rms: 0.4173E+00   max: 0.1867E+01   D at   85  1   RLX: 0.803
       a =  3.000      CL =  0.3944
      Cm = -0.0340     CD =  0.00747   =>   CDf =  0.00458    CDp =  0.00289

 MRCHDU: Convergence failed at  80  side 2    Res =  0.2843E+03
 MRCHDU: Convergence failed at  81  side 2    Res =  0.3679E+01
 MRCHDU: Convergence failed at  82  side 2    Res =  0.2208E+01
 MRCHDU: Convergence failed at  83  side 2    Res =  0.3388E+01
 MRCHDU: Convergence failed at  84  side 2    Res =  0.1226E+02
 Side 1  free  transition at x/c =  0.7021   62
 Side 2  free  transition at x/c =  0.8132   64

   3   rms: 0.8975E+00   max: 0.4772E+01   T at    2  2   RLX: 0.154
       a =  3.000      CL =  0.4391
      Cm = -0.0198     CD =  0.01594   =>   CDf =  0.00431    CDp =  0.01164

 MRCHDU: Convergence failed at  65  side 1    Res =  0.3127E+01
 MRCHDU: Convergence failed at  66  side 1    Res =  0.2374E+02
 MRCHDU: Convergence failed at  67  side 1    Res =  0.7223E+01
 MRCHDU: Convergence failed at  68  side 1    Res =  0.5669E+01
 MRCHDU: Convergence failed at  69  side 1    Res =  0.1118E+02
 MRCHDU: Convergence failed at  70  side 1    Res =  0.3304E+02
 MRCHDU: Convergence failed at  71  side 1    Res =  0.9928E+02
 MRCHDU: Convergence failed at  72  side 1    Res =  0.2636E+02
 MRCHDU: Convergence failed at  73  side 1    Res =  0.1695E+02
 MRCHDU: Convergence failed at  74  side 1    Res =  0.1288E+02
 MRCHDU: Convergence failed at  75  side 1    Res =  0.1050E+02
 MRCHDU: Convergence failed at  76  side 1    Res =  0.8856E+01
 MRCHDU: Convergence failed at  77  side 1    Res =  0.5936E+01
 MRCHDU: Convergence failed at  78  side 1    Res =  0.6658E+01
 MRCHDU: Convergence failed at  79  side 1    Res =  0.7450E+01
 MRCHDU: Convergence failed at  80  side 1    Res =  0.8200E+01
 MRCHDU: Convergence failed at  81  side 1    Res =  0.8672E+01
 MRCHDU: Convergence failed at  82  side 1    Res =  0.9673E+01
 MRCHDU: Convergence failed at  83  side 1    Res =  0.9928E+01
 MRCHDU: Convergence failed at  84  side 1    Res =  0.1044E+02
 MRCHDU: Convergence failed at  85  side 1    Res =  0.1775E+02
 Side 1  free  transition at x/c =  0.7262   65
 Side 2  free  transition at x/c =  0.8112   63
 idif Ue xi dudx           1  0.23780936      2.59387493E-03   91.681122    
 Uenew xinew           2  1.05904350E-02  1.15513802E-04

   4   rms: 0.3933E+00   max: 0.1658E+01   C at   65  1   RLX: 0.905
       a =  3.000      CL =  0.4003
      Cm = -0.0263     CD =  0.00801   =>   CDf =  0.00465    CDp =  0.00336

 Side 1  free  transition at x/c =  0.7083   63
 Side 2  free  transition at x/c =  0.8122   64

   5   rms: 0.3137E+00   max: 0.2430E+01   T at    2  2   RLX: 0.396
       a =  3.000      CL =  0.4391
      Cm = -0.0274     CD =  0.01166   =>   CDf =  0.00466    CDp =  0.00700

 Side 1  free  transition at x/c =  0.7136   64
 Side 2  free  transition at x/c =  0.8107   63

   6   rms: 0.2152E+00   max: -.1020E+01   D at   85  1   RLX: 0.490
       a =  3.000      CL =  0.5048
      Cm = -0.0402     CD =  0.01003   =>   CDf =  0.00491    CDp =  0.00512

 Side 1  free  transition at x/c =  0.7080   64
 Side 2  free  transition at x/c =  0.8086   63

   7   rms: 0.6442E-01   max: -.4953E+00   D at   71  1
       a =  3.000      CL =  0.4768
      Cm = -0.0327     CD =  0.00962   =>   CDf =  0.00502    CDp =  0.00460

 Side 1  free  transition at x/c =  0.7067   63
 Side 2  free  transition at x/c =  0.8091   63

   8   rms: 0.1219E-01   max: -.1396E+00   D at   71  1
       a =  3.000      CL =  0.4739
      Cm = -0.0324     CD =  0.00979   =>   CDf =  0.00509    CDp =  0.00471

 Side 1  free  transition at x/c =  0.7054   63
 Side 2  free  transition at x/c =  0.8092   63

   9   rms: 0.5211E-03   max: -.9079E-02   D at   71  1
       a =  3.000      CL =  0.4739
      Cm = -0.0324     CD =  0.00979   =>   CDf =  0.00507    CDp =  0.00472

 Side 1  free  transition at x/c =  0.7054   63
 Side 2  free  transition at x/c =  0.8092   63

  10   rms: 0.2539E-05   max: -.3880E-04   D at   71  1
       a =  3.000      CL =  0.4739
      Cm = -0.0324     CD =  0.00979   =>   CDf =  0.00508    CDp =  0.00472
 plradd ia,ip,cpol           15           0  1.43976538E-02

 Point added to stored polar  1
 Point written to save file  p51dtip_Re400k.base.pol                         
 Dump file unspecified or not available
 Calculating wake trajectory ...
 Calculating source influence matrix ...

 Solving BL system ...

 Side 1  free  transition at x/c =  0.7054   63
 Side 2  free  transition at x/c =  0.8092   63

   1   rms: 0.8890E-01   max: 0.4912E+00   T at   63  1
       a =  3.500      CL =  0.5289
      Cm = -0.0326     CD =  0.00951   =>   CDf =  0.00508    CDp =  0.00444

 Side 1  free  transition at x/c =  0.6811   62
 Side 2  free  transition at x/c =  0.8123   63

   2   rms: 0.4016E-01   max: -.3836E+00   D at   62  1
       a =  3.500      CL =  0.5300
      Cm = -0.0323     CD =  0.00931   =>   CDf =  0.00503    CDp =  0.00429

 Side 1  free  transition at x/c =  0.6895   62
 Side 2  free  transition at x/c =  0.8122   63

   3   rms: 0.7994E-02   max: 0.1070E+00   D at   63  1
       a =  3.500      CL =  0.5300
      Cm = -0.0324     CD =  0.00937   =>   CDf =  0.00494    CDp =  0.00443

 Side 1  free  transition at x/c =  0.6874   62
 Side 2  free  transition at x/c =  0.8123   63

   4   rms: 0.1510E-03   max: -.2278E-02   D at   62  1
       a =  3.500      CL =  0.5300
      Cm = -0.0324     CD =  0.00937   =>   CDf =  0.00496    CDp =  0.00441

 Side 1  free  transition at x/c =  0.6874   62
 Side 2  free  transition at x/c =  0.8123   63

   5   rms: 0.8213E-06   max: -.5650E-05   T at   63  2
       a =  3.500      CL =  0.5300
      Cm = -0.0324     CD =  0.00937   =>   CDf =  0.00496    CDp =  0.00441
 plradd ia,ip,cpol           16           0  1.85241026E-03

 Point added to stored polar  1
 Point written to save file  p51dtip_Re400k.base.pol                         
 Dump file unspecified or not available
 Calculating wake trajectory ...
 Calculating source influence matrix ...

 Solving BL system ...

 Side 1  free  transition at x/c =  0.6874   62
 Side 2  free  transition at x/c =  0.8123   63

   1   rms: 0.9575E-01   max: -.1061E+00   T at   63  2
       a =  4.000      CL =  0.5860
      Cm = -0.0324     CD =  0.00893   =>   CDf =  0.00472    CDp =  0.00422

 Side 1  free  transition at x/c =  0.6520   60
 Side 2  free  transition at x/c =  0.8161   62

   2   rms: 0.4499E-01   max: -.5220E+00   D at   62  1   RLX: 0.958
       a =  4.000      CL =  0.5856
      Cm = -0.0320     CD =  0.00891   =>   CDf =  0.00486    CDp =  0.00405

 Side 1  free  transition at x/c =  0.6605   61
 Side 2  free  transition at x/c =  0.8161   62

   3   rms: 0.2219E-01   max: 0.2593E+00   C at   61  1
       a =  4.000      CL =  0.5857
      Cm = -0.0321     CD =  0.00885   =>   CDf =  0.00474    CDp =  0.00411

 Side 1  free  transition at x/c =  0.6559   61
 Side 2  free  transition at x/c =  0.8161   62

   4   rms: 0.2767E-02   max: -.3401E-01   D at   65  1
       a =  4.000      CL =  0.5856
      Cm = -0.0322     CD =  0.00893   =>   CDf =  0.00482    CDp =  0.00411

 Side 1  free  transition at x/c =  0.6553   61
 Side 2  free  transition at x/c =  0.8161   62

   5   rms: 0.5419E-04   max: -.5895E-03   D at   61  1
       a =  4.000      CL =  0.5856
      Cm = -0.0322     CD =  0.00893   =>   CDf =  0.00483    CDp =  0.00410
 plradd ia,ip,cpol           17           0  7.93385203E-04

 Point added to stored polar  1
 Point written to save file  p51dtip_Re400k.base.pol                         
 Dump file unspecified or not available
 Calculating wake trajectory ...
 Calculating source influence matrix ...

 Solving BL system ...

 Side 1  free  transition at x/c =  0.6553   61
 Side 2  free  transition at x/c =  0.8161   62

   1   rms: 0.1222E+00   max: -.7117E+00   D at   62  1   RLX: 0.703
       a =  4.500      CL =  0.6242
      Cm = -0.0318     CD =  0.00861   =>   CDf =  0.00484    CDp =  0.00378

 Side 1  free  transition at x/c =  0.4610   47
 Side 2  free  transition at x/c =  0.8185   63

   2   rms: 0.4508E+00   max: 0.8210E+01   C at   47  1   RLX: 0.183
       a =  4.500      CL =  0.6205
      Cm = -0.0305     CD =  0.00986   =>   CDf =  0.00548    CDp =  0.00438

 Side 1  free  transition at x/c =  0.4300   44
 Side 2  free  transition at x/c =  0.8188   63

   3   rms: 0.2822E+00   max: 0.5038E+01   C at   44  1   RLX: 0.298
       a =  4.500      CL =  0.6182
      Cm = -0.0297     CD =  0.01009   =>   CDf =  0.00565    CDp =  0.00444

 Side 1  free  transition at x/c =  0.3971   42
 Side 2  free  transition at x/c =  0.8192   63

   4   rms: 0.1207E+00   max: 0.2273E+01   C at   42  1   RLX: 0.660
       a =  4.500      CL =  0.6165
      Cm = -0.0288     CD =  0.01047   =>   CDf =  0.00582    CDp =  0.00465

 Side 1  free  transition at x/c =  0.3537   39
 Side 2  free  transition at x/c =  0.8197   63

   5   rms: 0.3492E-01   max: 0.6608E+00   C at   39  1
       a =  4.500      CL =  0.6163
      Cm = -0.0284     CD =  0.01064   =>   CDf =  0.00603    CDp =  0.00461

 Side 1  free  transition at x/c =  0.3228   37
 Side 2  free  transition at x/c =  0.8200   63

   6   rms: 0.6523E-02   max: -.1286E+00   C at   37  1
       a =  4.500      CL =  0.6160
      Cm = -0.0284     CD =  0.01066   =>   CDf =  0.00616    CDp =  0.00450

 Side 1  free  transition at x/c =  0.3261   37
 Side 2  free  transition at x/c =  0.8200   63

   7   rms: 0.5830E-04   max: -.8505E-03   D at   39  1
       a =  4.500      CL =  0.6160
      Cm = -0.0284     CD =  0.01066   =>   CDf =  0.00615    CDp =  0.00452
 plradd ia,ip,cpol           18           0  7.93385203E-04

 Point added to stored polar  1
 Point written to save file  p51dtip_Re400k.base.pol                         
 Dump file unspecified or not available
 Calculating wake trajectory ...
 Calculating source influence matrix ...

 Solving BL system ...

 Side 1  free  transition at x/c =  0.3262   37
 Side 2  free  transition at x/c =  0.8200   63

   1   rms: 0.7563E+00   max: 0.1484E+02   C at   37  1   RLX: 0.101
       a =  5.000      CL =  0.6175
      Cm = -0.0279     CD =  0.01105   =>   CDf =  0.00615    CDp =  0.00490

 Side 1  free  transition at x/c =  0.2766   33
 Side 2  free  transition at x/c =  0.8204   63

   2   rms: 0.6279E+00   max: 0.1248E+02   C at   33  1   RLX: 0.120
       a =  5.000      CL =  0.6194
      Cm = -0.0275     CD =  0.01142   =>   CDf =  0.00638    CDp =  0.00504

 Side 1  free  transition at x/c =  0.2319   30
 Side 2  free  transition at x/c =  0.8209   63

   3   rms: 0.4359E+00   max: 0.8978E+01   C at   30  1   RLX: 0.167
       a =  5.000      CL =  0.6222
      Cm = -0.0270     CD =  0.01185   =>   CDf =  0.00659    CDp =  0.00526

 Side 1  free  transition at x/c =  0.1869   27
 Side 2  free  transition at x/c =  0.8214   63

   4   rms: 0.3358E+00   max: 0.7050E+01   C at   27  1   RLX: 0.213
       a =  5.000      CL =  0.6249
      Cm = -0.0265     CD =  0.01230   =>   CDf =  0.00680    CDp =  0.00550

 Side 1  free  transition at x/c =  0.1396   24
 Side 2  free  transition at x/c =  0.8220   63

   5   rms: 0.2863E+00   max: 0.5797E+01   C at   24  1   RLX: 0.259
       a =  5.000      CL =  0.6262
      Cm = -0.0258     CD =  0.01284   =>   CDf =  0.00703    CDp =  0.00581

 Side 1  free  transition at x/c =  0.1038   21
 Side 2  free  transition at x/c =  0.8227   63

   6   rms: 0.2113E+00   max: 0.4456E+01   C at   21  1   RLX: 0.337
       a =  5.000      CL =  0.6285
      Cm = -0.0251     CD =  0.01317   =>   CDf =  0.00722    CDp =  0.00594

 Side 1  free  transition at x/c =  0.0796   19
 Side 2  free  transition at x/c =  0.8233   63

   7   rms: 0.8180E-01   max: 0.1535E+01   C at   19  1   RLX: 0.927
       a =  5.000      CL =  0.6373
      Cm = -0.0244     CD =  0.01357   =>   CDf =  0.00736    CDp =  0.00621

 Side 1  free  transition at x/c =  0.0616   18
 Side 2  free  transition at x/c =  0.8245   63

   8   rms: 0.1452E-01   max: 0.2271E+00   D at   18  1
       a =  5.000      CL =  0.6392
      Cm = -0.0245     CD =  0.01346   =>   CDf =  0.00751    CDp =  0.00595

 Side 1  free  transition at x/c =  0.0632   18
 Side 2  free  transition at x/c =  0.8246   63

   9   rms: 0.2869E-02   max: -.3259E-01   D at   18  1
       a =  5.000      CL =  0.6393
      Cm = -0.0245     CD =  0.01346   =>   CDf =  0.00747    CDp =  0.00599

 Side 1  free  transition at x/c =  0.0625   18
 Side 2  free  transition at x/c =  0.8246   63

  10   rms: 0.1734E-03   max: -.2550E-02   D at   18  1
       a =  5.000      CL =  0.6393
      Cm = -0.0245     CD =  0.01346   =>   CDf =  0.00748    CDp =  0.00598

 Side 1  free  transition at x/c =  0.0624   18
 Side 2  free  transition at x/c =  0.8246   63

  11   rms: 0.1913E-05   max: -.1275E-04   D at   18  1
       a =  5.000      CL =  0.6393
      Cm = -0.0245     CD =  0.01346   =>   CDf =  0.00748    CDp =  0.00598
 plradd ia,ip,cpol           19           0  7.93385203E-04

 Point added to stored polar  1
 Point written to save file  p51dtip_Re400k.base.pol                         
 Dump file unspecified or not available
 Calculating wake trajectory ...
 Calculating source influence matrix ...

 Solving BL system ...

 Side 1  free  transition at x/c =  0.0624   18
 Side 2  free  transition at x/c =  0.8246   63

   1   rms: 0.1398E+00   max: 0.9577E+00   C at   18  1   RLX: 0.606
       a =  5.500      CL =  0.6631
      Cm = -0.0232     CD =  0.01437   =>   CDf =  0.00748    CDp =  0.00689

 Side 1  free  transition at x/c =  0.0515   17
 Side 2  free  transition at x/c =  0.8274   63

   2   rms: 0.9132E-01   max: -.8720E+00   D at   17  1   RLX: 0.573
       a =  5.500      CL =  0.6764
      Cm = -0.0241     CD =  0.01432   =>   CDf =  0.00707    CDp =  0.00725

 Side 1  free  transition at x/c =  0.0501   18
 Side 2  free  transition at x/c =  0.8286   62
 idif Ue xi dudx           1  0.36589339      9.01424885E-03   40.590557    
 Uenew xinew           2  8.22600668E-06  2.02658129E-07

   3   rms: 0.1825E+01   max: -.3234E+02   T at    2  1   RLX: 0.015
       a =  5.500      CL =  0.6767
      Cm = -0.0240     CD =  0.01443   =>   CDf =  0.00765    CDp =  0.00678

 Side 1  free  transition at x/c =  0.0501   17
 Side 2  free  transition at x/c =  0.8286   63

   4   rms: 0.5629E+00   max: 0.1014E+02   T at    2  2   RLX: 0.130
       a =  5.500      CL =  0.6775
      Cm = -0.0239     CD =  0.01443   =>   CDf =  0.00711    CDp =  0.00732

 Side 1  free  transition at x/c =  0.0498   18
 Side 2  free  transition at x/c =  0.8288   62

   5   rms: 0.6516E+00   max: -.1167E+02   T at    2  1   RLX: 0.043
       a =  5.500      CL =  0.6778
      Cm = -0.0239     CD =  0.01443   =>   CDf =  0.00737    CDp =  0.00706

 Side 1  free  transition at x/c =  0.0496   18
 Side 2  free  transition at x/c =  0.8288   62

   6   rms: 0.8495E+00   max: -.1509E+02   T at    2  1   RLX: 0.033
       a =  5.500      CL =  0.6779
      Cm = -0.0239     CD =  0.01444   =>   CDf =  0.00737    CDp =  0.00707

 Side 1  free  transition at x/c =  0.0496   18
 Side 2  free  transition at x/c =  0.8288   62
 idif Ue xi dudx           1  0.35979959      9.01782513E-03   39.898712    
 Uenew xinew           2  1.42688921E-04  3.57627869E-06

   7   rms: 0.6960E+00   max: -.1099E+02   D at    2  1   RLX: 0.046
       a =  5.500      CL =  0.6781
      Cm = -0.0238     CD =  0.01444   =>   CDf =  0.00767    CDp =  0.00678

 Side 1  free  transition at x/c =  0.0494   17
 Side 2  free  transition at x/c =  0.8288   63

   8   rms: 0.3219E+00   max: 0.5716E+01   T at    2  2   RLX: 0.211
       a =  5.500      CL =  0.6789
      Cm = -0.0236     CD =  0.01446   =>   CDf =  0.00712    CDp =  0.00734

 Side 1  free  transition at x/c =  0.0490   18
 Side 2  free  transition at x/c =  0.8290   62

   9   rms: 0.6851E+00   max: 0.1205E+02   D at    2  1   RLX: 0.094
       a =  5.500      CL =  0.6791
      Cm = -0.0236     CD =  0.01448   =>   CDf =  0.00739    CDp =  0.00709

 Side 1  free  transition at x/c =  0.0488   18
 Side 2  free  transition at x/c =  0.8291   62

  10   rms: 0.1229E-01   max: -.1836E+00   D at   18  1
       a =  5.500      CL =  0.6811
      Cm = -0.0228     CD =  0.01459   =>   CDf =  0.00739    CDp =  0.00720

 Side 1  free  transition at x/c =  0.0475   17
 Side 2  free  transition at x/c =  0.8296   62

  11   rms: 0.1467E-01   max: -.1738E+00   D at   17  1
       a =  5.500      CL =  0.6832
      Cm = -0.0231     CD =  0.01439   =>   CDf =  0.00740    CDp =  0.00699

 Side 1  free  transition at x/c =  0.0478   17
 Side 2  free  transition at x/c =  0.8295   62

  12   rms: 0.5258E-03   max: 0.7181E-02   D at   17  1
       a =  5.500      CL =  0.6833
      Cm = -0.0232     CD =  0.01440   =>   CDf =  0.00741    CDp =  0.00699

 Side 1  free  transition at x/c =  0.0478   17
 Side 2  free  transition at x/c =  0.8295   62

  13   rms: 0.7962E-05   max: -.2248E-04   T at   62  2
       a =  5.500      CL =  0.6833
      Cm = -0.0232     CD =  0.01440   =>   CDf =  0.00741    CDp =  0.00699
 plradd ia,ip,cpol           20           0  1.95327768E-04

 Point added to stored polar  1
 Point written to save file  p51dtip_Re400k.base.pol                         
 Dump file unspecified or not available
 Calculating wake trajectory ...
 Calculating source influence matrix ...

 Solving BL system ...

 Side 1  free  transition at x/c =  0.0478   17
 Side 2  free  transition at x/c =  0.8295   62

   1   rms: 0.8887E-01   max: 0.6752E+00   T at   17  1   RLX: 0.795
       a =  6.000      CL =  0.7224
      Cm = -0.0228     CD =  0.01482   =>   CDf =  0.00741    CDp =  0.00741

 Side 1  free  transition at x/c =  0.0405   17
 Side 2  free  transition at x/c =  0.8334   63

   2   rms: 0.2274E-01   max: -.1693E+00   D at   17  1
       a =  6.000      CL =  0.7240
      Cm = -0.0214     CD =  0.01549   =>   CDf =  0.00736    CDp =  0.00813

 Side 1  free  transition at x/c =  0.0381   16
 Side 2  free  transition at x/c =  0.8347   63

   3   rms: 0.2294E-01   max: -.1813E+00   D at   17  1
       a =  6.000      CL =  0.7261
      Cm = -0.0217     CD =  0.01529   =>   CDf =  0.00731    CDp =  0.00797

 Side 1  free  transition at x/c =  0.0374   16
 Side 2  free  transition at x/c =  0.8346   63

   4   rms: 0.1283E-02   max: 0.1753E-01   D at   16  1
       a =  6.000      CL =  0.7257
      Cm = -0.0216     CD =  0.01535   =>   CDf =  0.00732    CDp =  0.00803

 Side 1  free  transition at x/c =  0.0373   16
 Side 2  free  transition at x/c =  0.8345   63

   5   rms: 0.7711E-05   max: -.2779E-04   D at   17  1
       a =  6.000      CL =  0.7257
      Cm = -0.0216     CD =  0.01535   =>   CDf =  0.00732    CDp =  0.00803
 plradd ia,ip,cpol           21           0  1.95327768E-04

 Point added to stored polar  1
 Point written to save file  p51dtip_Re400k.base.pol                         
 Dump file unspecified or not available
 Calculating wake trajectory ...
 Calculating source influence matrix ...

 Solving BL system ...

 Side 1  free  transition at x/c =  0.0373   16
 Side 2  free  transition at x/c =  0.8345   63

   1   rms: 0.9675E-01   max: 0.1014E+01   T at   16  1   RLX: 0.872
       a =  6.500      CL =  0.7651
      Cm = -0.0204     CD =  0.01597   =>   CDf =  0.00732    CDp =  0.00865

 MRCHDU: Convergence failed at  16  side 1    Res =  0.6640E+01
 MRCHDU: Convergence failed at  17  side 1    Res =  0.3385E+01
 MRCHDU: Convergence failed at  18  side 1    Res =  0.2872E+01
 MRCHDU: Convergence failed at  19  side 1    Res =  0.3687E+01
 MRCHDU: Convergence failed at  20  side 1    Res =  0.5992E+01
 MRCHDU: Convergence failed at  21  side 1    Res =  0.6381E+01
 MRCHDU: Convergence failed at  22  side 1    Res =  0.6035E+01
 MRCHDU: Convergence failed at  23  side 1    Res =  0.6218E+01
 MRCHDU: Convergence failed at  24  side 1    Res =  0.6782E+01
 MRCHDU: Convergence failed at  25  side 1    Res =  0.7008E+01
 MRCHDU: Convergence failed at  26  side 1    Res =  0.8055E+01
 MRCHDU: Convergence failed at  27  side 1    Res =  0.9382E+01
 MRCHDU: Convergence failed at  28  side 1    Res =  0.1127E+02
 MRCHDU: Convergence failed at  29  side 1    Res =  0.1300E+02
 MRCHDU: Convergence failed at  30  side 1    Res =  0.1538E+02
 MRCHDU: Convergence failed at  31  side 1    Res =  0.2286E+02
 MRCHDU: Convergence failed at  32  side 1    Res =  0.4181E+02
 MRCHDU: Convergence failed at  33  side 1    Res =  0.3650E+02
 MRCHDU: Convergence failed at  34  side 1    Res =  0.3301E+02
 MRCHDU: Convergence failed at  35  side 1    Res =  0.3055E+02
 MRCHDU: Convergence failed at  36  side 1    Res =  0.2862E+02
 MRCHDU: Convergence failed at  37  side 1    Res =  0.2698E+02
 MRCHDU: Convergence failed at  38  side 1    Res =  0.2588E+02
 MRCHDU: Convergence failed at  39  side 1    Res =  0.2464E+02
 MRCHDU: Convergence failed at  40  side 1    Res =  0.2416E+02
 MRCHDU: Convergence failed at  41  side 1    Res =  0.2349E+02
 MRCHDU: Convergence failed at  42  side 1    Res =  0.2330E+02
 MRCHDU: Convergence failed at  43  side 1    Res =  0.2371E+02
 MRCHDU: Convergence failed at  44  side 1    Res =  0.2397E+02
 MRCHDU: Convergence failed at  45  side 1    Res =  0.2504E+02
 MRCHDU: Convergence failed at  46  side 1    Res =  0.2557E+02
 MRCHDU: Convergence failed at  47  side 1    Res =  0.2670E+02
 MRCHDU: Convergence failed at  48  side 1    Res =  0.2755E+02
 MRCHDU: Convergence failed at  49  side 1    Res =  0.2715E+02
 MRCHDU: Convergence failed at  50  side 1    Res =  0.2711E+02
 MRCHDU: Convergence failed at  51  side 1    Res =  0.2734E+02
 MRCHDU: Convergence failed at  52  side 1    Res =  0.2623E+02
 MRCHDU: Convergence failed at  53  side 1    Res =  0.2939E+02
 MRCHDU: Convergence failed at  54  side 1    Res =  0.2713E+02
 MRCHDU: Convergence failed at  55  side 1    Res =  0.2337E+02
 MRCHDU: Convergence failed at  56  side 1    Res =  0.2029E+02
 MRCHDU: Convergence failed at  57  side 1    Res =  0.2966E+02
 MRCHDU: Convergence failed at  58  side 1    Res =  0.1616E+03
 MRCHDU: Convergence failed at  59  side 1    Res =  0.1949E+03
 MRCHDU: Convergence failed at  60  side 1    Res =  0.2926E+02
 MRCHDU: Convergence failed at  61  side 1    Res =  0.3990E+02
 MRCHDU: Convergence failed at  62  side 1    Res =  0.4724E+02
 MRCHDU: Convergence failed at  63  side 1    Res =  0.3286E+02
 MRCHDU: Convergence failed at  64  side 1    Res =  0.2444E+02
 MRCHDU: Convergence failed at  65  side 1    Res =  0.8653E+02
 MRCHDU: Convergence failed at  66  side 1    Res =  0.9619E+02
 MRCHDU: Convergence failed at  67  side 1    Res =  0.2575E+02
 MRCHDU: Convergence failed at  68  side 1    Res =  0.5472E+02
 MRCHDU: Convergence failed at  69  side 1    Res =  0.3908E+02
 MRCHDU: Convergence failed at  70  side 1    Res =  0.3830E+02
 MRCHDU: Convergence failed at  71  side 1    Res =  0.2191E+02
 MRCHDU: Convergence failed at  72  side 1    Res =  0.2360E+02
 MRCHDU: Convergence failed at  73  side 1    Res =  0.2050E+02
 MRCHDU: Convergence failed at  74  side 1    Res =  0.5291E+02
 MRCHDU: Convergence failed at  75  side 1    Res =  0.2762E+02
 MRCHDU: Convergence failed at  76  side 1    Res =  0.2951E+02
 MRCHDU: Convergence failed at  77  side 1    Res =  0.3142E+02
 MRCHDU: Convergence failed at  78  side 1    Res =  0.3346E+02
 MRCHDU: Convergence failed at  79  side 1    Res =  0.3586E+02
 MRCHDU: Convergence failed at  80  side 1    Res =  0.8747E+02
 MRCHDU: Convergence failed at  81  side 1    Res =  0.7449E+02
 MRCHDU: Convergence failed at  82  side 1    Res =  0.9016E+02
 MRCHDU: Convergence failed at  83  side 1    Res =  0.1030E+03
 MRCHDU: Convergence failed at  84  side 1    Res =  0.1149E+03
 MRCHDU: Convergence failed at  85  side 1    Res =  0.1700E+03
 MRCHDU: Convergence failed at  86  side 1    Res =  0.3998E+03
 MRCHDU: Convergence failed at  87  side 1    Res =  0.6945E+04
 Side 1  free  transition at x/c =  0.0295   15
 Side 2  free  transition at x/c =  0.8395   63

   2   rms: 0.1124E+01   max: 0.4815E+01   D at   77  2   RLX: 0.123
       a =  6.500      CL =  2.0104
      Cm = -0.4496     CD =  0.00515   =>   CDf =  0.00195    CDp =  0.00320

 MRCHDU: Convergence failed at  25  side 1    Res =  0.2732E+00
 MRCHDU: Convergence failed at  26  side 1    Res =  0.2675E+00
 MRCHDU: Convergence failed at  27  side 1    Res =  0.2604E+00
 MRCHDU: Convergence failed at  28  side 1    Res =  0.2527E+00
 MRCHDU: Convergence failed at  29  side 1    Res =  0.2445E+00
 MRCHDU: Convergence failed at  30  side 1    Res =  0.2359E+00
 MRCHDU: Convergence failed at  31  side 1    Res =  0.2264E+00
 MRCHDU: Convergence failed at  32  side 1    Res =  0.2149E+00
 MRCHDU: Convergence failed at  33  side 1    Res =  0.1959E+00
 MRCHDU: Convergence failed at  34  side 1    Res =  0.1505E+00
 Side 1  free  transition at x/c =  0.0347   16
 Side 2  free  transition at x/c =  0.8414   63

   3   rms: 0.5615E+00   max: -.2315E+01   T at   16  1   RLX: 0.216
       a =  6.500      CL =  1.2764
      Cm = -0.2337     CD =  0.03297   =>   CDf =  0.00349    CDp =  0.02948

 MRCHDU: Convergence failed at  35  side 1    Res =  0.7919E-02
 Side 1  free  transition at x/c =  0.0395   17
 Side 2  free  transition at x/c =  0.8486   64

   4   rms: 0.5743E+00   max: -.4680E+01   T at   17  1   RLX: 0.107
       a =  6.500      CL =  1.1781
      Cm = -0.2214     CD =  0.03726   =>   CDf =  0.00365    CDp =  0.03360

 Side 1  free  transition at x/c =  0.0410   17
 Side 2  free  transition at x/c =  0.8507   64

   5   rms: 0.5003E+00   max: -.2591E+01   T at   17  1   RLX: 0.193
       a =  6.500      CL =  1.0498
      Cm = -0.1771     CD =  0.03855   =>   CDf =  0.00345    CDp =  0.03510

 MRCHDU: Convergence failed at  35  side 1    Res =  0.4882E-01
 Side 1  free  transition at x/c =  0.0447   17
 Side 2  free  transition at x/c =  0.8548   64

   6   rms: 0.5426E+00   max: -.3772E+01   D at   35  1   RLX: 0.133
       a =  6.500      CL =  0.9769
      Cm = -0.1523     CD =  0.04068   =>   CDf =  0.00334    CDp =  0.03734

 MRCHDU: Convergence failed at  35  side 1    Res =  0.2014E+00
 MRCHDU: Convergence failed at  36  side 1    Res =  0.6192E+00
 MRCHDU: Convergence failed at  37  side 1    Res =  0.3819E+00
 MRCHDU: Convergence failed at  38  side 1    Res =  0.3647E+00
 MRCHDU: Convergence failed at  39  side 1    Res =  0.3450E+00
 MRCHDU: Convergence failed at  40  side 1    Res =  0.3245E+00
 MRCHDU: Convergence failed at  41  side 1    Res =  0.3035E+00
 MRCHDU: Convergence failed at  42  side 1    Res =  0.2822E+00
 MRCHDU: Convergence failed at  43  side 1    Res =  0.2606E+00
 MRCHDU: Convergence failed at  44  side 1    Res =  0.2388E+00
 MRCHDU: Convergence failed at  45  side 1    Res =  0.2162E+00
 MRCHDU: Convergence failed at  46  side 1    Res =  0.1915E+00
 MRCHDU: Convergence failed at  47  side 1    Res =  0.2028E+00
 MRCHDU: Convergence failed at  48  side 1    Res =  0.4293E+00
 MRCHDU: Convergence failed at  49  side 1    Res =  0.3048E+00
 MRCHDU: Convergence failed at  50  side 1    Res =  0.2874E+00
 MRCHDU: Convergence failed at  51  side 1    Res =  0.2692E+00
 MRCHDU: Convergence failed at  52  side 1    Res =  0.2507E+00
 MRCHDU: Convergence failed at  53  side 1    Res =  0.2320E+00
 MRCHDU: Convergence failed at  54  side 1    Res =  0.2132E+00
 MRCHDU: Convergence failed at  55  side 1    Res =  0.1944E+00
 MRCHDU: Convergence failed at  56  side 1    Res =  0.1756E+00
 MRCHDU: Convergence failed at  57  side 1    Res =  0.1568E+00
 MRCHDU: Convergence failed at  58  side 1    Res =  0.1381E+00
 MRCHDU: Convergence failed at  59  side 1    Res =  0.1194E+00
 MRCHDU: Convergence failed at  60  side 1    Res =  0.1008E+00
 MRCHDU: Convergence failed at  61  side 1    Res =  0.8234E-01
 MRCHDU: Convergence failed at  62  side 1    Res =  0.1250E+01
 MRCHDU: Convergence failed at  63  side 1    Res =  0.7613E+00
 Side 1  free  transition at x/c =  0.0464   17
 Side 2  free  transition at x/c =  0.8561   64

   7   rms: 0.4645E+01   max: -.3085E+02   D at   61  1   RLX: 0.016
       a =  6.500      CL =  0.6357
      Cm = -0.0535     CD =  0.03092   =>   CDf =  0.00333    CDp =  0.02759

 Side 1  free  transition at x/c =  0.0472   17
 Side 2  free  transition at x/c =  0.8570   64

   8   rms: 0.3192E+01   max: -.1479E+02   D at   42  1   RLX: 0.034
       a =  6.500      CL =  0.6492
      Cm = -0.0688     CD =  0.02455   =>   CDf =  0.00454    CDp =  0.02000

 Side 1  free  transition at x/c =  0.0471   17
 Side 2  free  transition at x/c =  0.8573   64

   9   rms: 0.1678E+01   max: -.8750E+01   D at   41  1   RLX: 0.057
       a =  6.500      CL =  0.6544
      Cm = -0.0653     CD =  0.02476   =>   CDf =  0.00500    CDp =  0.01976

 Side 1  free  transition at x/c =  0.0467   17
 Side 2  free  transition at x/c =  0.8572   64

  10   rms: 0.1096E+01   max: -.5422E+01   D at   41  1   RLX: 0.092
       a =  6.500      CL =  0.6611
      Cm = -0.0604     CD =  0.02434   =>   CDf =  0.00540    CDp =  0.01894

 Side 1  free  transition at x/c =  0.0459   17
 Side 2  free  transition at x/c =  0.8568   64

  11   rms: 0.8870E+00   max: -.3772E+01   D at   22  1   RLX: 0.133
       a =  6.500      CL =  0.6692
      Cm = -0.0538     CD =  0.02361   =>   CDf =  0.00585    CDp =  0.01775

 Side 1  free  transition at x/c =  0.0448   17
 Side 2  free  transition at x/c =  0.8561   64

  12   rms: 0.1666E+02   max: 0.1173E+03   D at   21  1   RLX: 0.008
       a =  6.500      CL =  0.6582
      Cm = -0.0509     CD =  0.02468   =>   CDf =  0.00641    CDp =  0.01827

 Side 1  free  transition at x/c =  0.0451   17
 Side 2  free  transition at x/c =  0.8567   64

  13   rms: 0.4783E+00   max: -.2154E+01   D at   36  1   RLX: 0.232
       a =  6.500      CL =  0.6524
      Cm = -0.0395     CD =  0.02258   =>   CDf =  0.00575    CDp =  0.01683

 Side 1  free  transition at x/c =  0.0437   17
 Side 2  free  transition at x/c =  0.8557   64

  14   rms: 0.3666E+00   max: -.1687E+01   D at   37  1   RLX: 0.296
       a =  6.500      CL =  0.6576
      Cm = -0.0288     CD =  0.02116   =>   CDf =  0.00617    CDp =  0.01499

 Side 1  free  transition at x/c =  0.0420   17
 Side 2  free  transition at x/c =  0.8541   64

  15   rms: 0.2854E+00   max: -.1475E+01   D at   21  1   RLX: 0.339
       a =  6.500      CL =  0.6670
      Cm = -0.0214     CD =  0.02009   =>   CDf =  0.00649    CDp =  0.01360

 Side 1  free  transition at x/c =  0.0404   17
 Side 2  free  transition at x/c =  0.8520   64

  16   rms: 0.2733E+00   max: -.1751E+01   D at   21  1   RLX: 0.241
       a =  6.500      CL =  0.6820
      Cm = -0.0189     CD =  0.02014   =>   CDf =  0.00668    CDp =  0.01346

 MRCHDU: Convergence failed at  20  side 1    Res =  0.9347E+00
 Side 1  free  transition at x/c =  0.0390   17
 Side 2  free  transition at x/c =  0.8503   64

  17   rms: 0.2023E+00   max: 0.8640E+00   T at   19  1   RLX: 0.712
       a =  6.500      CL =  0.7182
      Cm = -0.0137     CD =  0.01868   =>   CDf =  0.00692    CDp =  0.01176

 MRCHDU: Convergence failed at  17  side 1    Res =  0.6587E+01
 Side 1  free  transition at x/c =  0.0338   16
 Side 2  free  transition at x/c =  0.8461   64

  18   rms: 0.1727E+00   max: 0.1425E+01   T at   16  1   RLX: 0.627
       a =  6.500      CL =  0.7595
      Cm = -0.0153     CD =  0.01626   =>   CDf =  0.00698    CDp =  0.00928

 MRCHDU: Convergence failed at  16  side 1    Res =  0.1238E+02
 Side 1  free  transition at x/c =  0.0282   15
 Side 2  free  transition at x/c =  0.8433   63

  19   rms: 0.9832E-01   max: 0.6240E+00   T at   15  1   RLX: 0.994
       a =  6.500      CL =  0.7593
      Cm = -0.0181     CD =  0.01650   =>   CDf =  0.00705    CDp =  0.00946

 Side 1  free  transition at x/c =  0.0235   14
 Side 2  free  transition at x/c =  0.8414   63

  20   rms: 0.2573E-01   max: -.8854E-01   T at   17  1
       a =  6.500      CL =  0.7532
      Cm = -0.0177     CD =  0.01756   =>   CDf =  0.00733    CDp =  0.01024

 Side 1  free  transition at x/c =  0.0251   15
 Side 2  free  transition at x/c =  0.8414   63

  21   rms: 0.4672E-01   max: 0.3286E+00   D at   14  1
       a =  6.500      CL =  0.7626
      Cm = -0.0192     CD =  0.01689   =>   CDf =  0.00732    CDp =  0.00958

 Side 1  free  transition at x/c =  0.0247   15
 Side 2  free  transition at x/c =  0.8410   63

  22   rms: 0.4464E-02   max: 0.3421E-01   D at   15  1
       a =  6.500      CL =  0.7602
      Cm = -0.0188     CD =  0.01693   =>   CDf =  0.00728    CDp =  0.00964

 Side 1  free  transition at x/c =  0.0247   15
 Side 2  free  transition at x/c =  0.8412   63

  23   rms: 0.4690E-04   max: -.3047E-03   T at   15  1
       a =  6.500      CL =  0.7602
      Cm = -0.0188     CD =  0.01692   =>   CDf =  0.00729    CDp =  0.00964
 plradd ia,ip,cpol           22           0  1.95327768E-04

 Point added to stored polar  1
 Point written to save file  p51dtip_Re400k.base.pol                         
 Dump file unspecified or not available
 Calculating wake trajectory ...
 Calculating source influence matrix ...

 Solving BL system ...

 Side 1  free  transition at x/c =  0.0247   15
 Side 2  free  transition at x/c =  0.8412   63

   1   rms: 0.2145E+00   max: 0.1284E+01   T at   15  1
       a =  7.000      CL =  0.7679
      Cm = -0.0121     CD =  0.02147   =>   CDf =  0.00729    CDp =  0.01419

 MRCHDU: Convergence failed at  15  side 1    Res =  0.1792E+04
 MRCHDU: Convergence failed at  16  side 1    Res =  0.1737E+03
 MRCHDU: Convergence failed at  17  side 1    Res =  0.1016E+03
 MRCHDU: Convergence failed at  18  side 1    Res =  0.5329E+02
 MRCHDU: Convergence failed at  19  side 1    Res =  0.1342E+03
 MRCHDU: Convergence failed at  20  side 1    Res =  0.2790E+03
 MRCHDU: Convergence failed at  21  side 1    Res =  0.5572E+03
 MRCHDU: Convergence failed at  22  side 1    Res =  0.1233E+04
 MRCHDU: Convergence failed at  23  side 1    Res =  0.4444E+04
 MRCHDU: Convergence failed at  24  side 1    Res =  0.5493E+03
 MRCHDU: Convergence failed at  25  side 1    Res =  0.2078E+03
 MRCHDU: Convergence failed at  26  side 1    Res =  0.4839E+03
 MRCHDU: Convergence failed at  27  side 1    Res =  0.1018E+05
 MRCHDU: Convergence failed at  28  side 1    Res =  0.4880E+03
 MRCHDU: Convergence failed at  29  side 1    Res =  0.2657E+03
 MRCHDU: Convergence failed at  30  side 1    Res =  0.1867E+03
 MRCHDU: Convergence failed at  31  side 1    Res =  0.1473E+03
 MRCHDU: Convergence failed at  32  side 1    Res =  0.1230E+03
 MRCHDU: Convergence failed at  33  side 1    Res =  0.1075E+03
 MRCHDU: Convergence failed at  34  side 1    Res =  0.2394E+03
 MRCHDU: Convergence failed at  35  side 1    Res =  0.4762E+02
 MRCHDU: Convergence failed at  36  side 1    Res =  0.4316E+02
 MRCHDU: Convergence failed at  37  side 1    Res =  0.4713E+02
 MRCHDU: Convergence failed at  38  side 1    Res =  0.4666E+02
 MRCHDU: Convergence failed at  39  side 1    Res =  0.6102E+02
 MRCHDU: Convergence failed at  40  side 1    Res =  0.8551E+02
 MRCHDU: Convergence failed at  41  side 1    Res =  0.5380E+02
 MRCHDU: Convergence failed at  42  side 1    Res =  0.5754E+02
 MRCHDU: Convergence failed at  43  side 1    Res =  0.5430E+02
 MRCHDU: Convergence failed at  44  side 1    Res =  0.9427E+02
 MRCHDU: Convergence failed at  45  side 1    Res =  0.6939E+02
 MRCHDU: Convergence failed at  46  side 1    Res =  0.5711E+02
 MRCHDU: Convergence failed at  47  side 1    Res =  0.4968E+02
 MRCHDU: Convergence failed at  48  side 1    Res =  0.4960E+02
 MRCHDU: Convergence failed at  49  side 1    Res =  0.4969E+02
 MRCHDU: Convergence failed at  50  side 1    Res =  0.4996E+02
 MRCHDU: Convergence failed at  51  side 1    Res =  0.5382E+02
 MRCHDU: Convergence failed at  52  side 1    Res =  0.6825E+02
 MRCHDU: Convergence failed at  53  side 1    Res =  0.5735E+02
 MRCHDU: Convergence failed at  54  side 1    Res =  0.9741E+02
 MRCHDU: Convergence failed at  55  side 1    Res =  0.6677E+03
 MRCHDU: Convergence failed at  56  side 1    Res =  0.8098E+02
 MRCHDU: Convergence failed at  57  side 1    Res =  0.4180E+02
 MRCHDU: Convergence failed at  58  side 1    Res =  0.5240E+03
 MRCHDU: Convergence failed at  59  side 1    Res =  0.4848E+02
 MRCHDU: Convergence failed at  60  side 1    Res =  0.5112E+03
 MRCHDU: Convergence failed at  61  side 1    Res =  0.4226E+02
 MRCHDU: Convergence failed at  62  side 1    Res =  0.9848E+02
 MRCHDU: Convergence failed at  63  side 1    Res =  0.5964E+02
 MRCHDU: Convergence failed at  64  side 1    Res =  0.3752E+04
 MRCHDU: Convergence failed at  65  side 1    Res =  0.2708E+03
 MRCHDU: Convergence failed at  66  side 1    Res =  0.2047E+03
 MRCHDU: Convergence failed at  67  side 1    Res =  0.8414E+02
 MRCHDU: Convergence failed at  68  side 1    Res =  0.7853E+02
 MRCHDU: Convergence failed at  69  side 1    Res =  0.8791E+02
 MRCHDU: Convergence failed at  70  side 1    Res =  0.4063E+02
 MRCHDU: Convergence failed at  71  side 1    Res =  0.3902E+02
 MRCHDU: Convergence failed at  72  side 1    Res =  0.4220E+02
 MRCHDU: Convergence failed at  73  side 1    Res =  0.6589E+02
 MRCHDU: Convergence failed at  74  side 1    Res =  0.6487E+02
 MRCHDU: Convergence failed at  75  side 1    Res =  0.6939E+02
 MRCHDU: Convergence failed at  76  side 1    Res =  0.7382E+02
 MRCHDU: Convergence failed at  77  side 1    Res =  0.1780E+03
 MRCHDU: Convergence failed at  78  side 1    Res =  0.2230E+03
 MRCHDU: Convergence failed at  79  side 1    Res =  0.2402E+03
 MRCHDU: Convergence failed at  80  side 1    Res =  0.3053E+03
 MRCHDU: Convergence failed at  81  side 1    Res =  0.4274E+03
 MRCHDU: Convergence failed at  82  side 1    Res =  0.1671E+03
 MRCHDU: Convergence failed at  83  side 1    Res =  0.1453E+03
 MRCHDU: Convergence failed at  84  side 1    Res =  0.1390E+03
 MRCHDU: Convergence failed at  85  side 1    Res =  0.1052E+03
 MRCHDU: Convergence failed at  86  side 1    Res =  0.1382E+03
 MRCHDU: Convergence failed at  87  side 1    Res =  0.1589E+03
 Side 1  free  transition at x/c =  0.0188   14
 Side 2  free  transition at x/c =  0.8487   64

   2   rms: 0.1254E+01   max: 0.6956E+01   D at   78  2   RLX: 0.216
       a =  7.000      CL =  2.0391
      Cm = -0.4542     CD =  0.00828   =>   CDf =  0.00205    CDp =  0.00622

 MRCHDU: Convergence failed at  36  side 1    Res =  0.3996E+00
 MRCHDU: Convergence failed at  37  side 1    Res =  0.3930E+00
 MRCHDU: Convergence failed at  38  side 1    Res =  0.3857E+00
 MRCHDU: Convergence failed at  39  side 1    Res =  0.3786E+00
 MRCHDU: Convergence failed at  40  side 1    Res =  0.3716E+00
 MRCHDU: Convergence failed at  41  side 1    Res =  0.3638E+00
 MRCHDU: Convergence failed at  42  side 1    Res =  0.3573E+00
[...]
       a = 11.000      CL =  1.9910
      Cm = -0.3463     CD =  0.00539   =>   CDf =  0.00890    CDp = -0.00351

 Side 1  free  transition at x/c =  0.4807   50
 Side 2 forced transition at x/c =  1.0000   74

  86   rms: 0.6017E+06   max: -.8771E+07   C at   50  1   RLX: 0.000
       a = 11.000      CL =  1.9910
      Cm = -0.3463     CD =  0.00539   =>   CDf =  0.00890    CDp = -0.00351

 Side 1  free  transition at x/c =  0.4807   50
 Side 2 forced transition at x/c =  1.0000   74

  87   rms: 0.8011E+06   max: -.1168E+08   C at   50  1   RLX: 0.000
       a = 11.000      CL =  1.9910
      Cm = -0.3463     CD =  0.00539   =>   CDf =  0.00890    CDp = -0.00351

 Side 1  free  transition at x/c =  0.4807   50
 Side 2 forced transition at x/c =  1.0000   74

  88   rms: 0.6072E+06   max: -.8850E+07   C at   50  1   RLX: 0.000
       a = 11.000      CL =  1.9910
      Cm = -0.3463     CD =  0.00539   =>   CDf =  0.00890    CDp = -0.00351

 Side 1  free  transition at x/c =  0.4807   50
 Side 2 forced transition at x/c =  1.0000   74

  89   rms: 0.1567E+06   max: -.2283E+07   C at   50  1   RLX: 0.000
       a = 11.000      CL =  1.9910
      Cm = -0.3463     CD =  0.00539   =>   CDf =  0.00890    CDp = -0.00351

 Side 1  free  transition at x/c =  0.4807   50
 Side 2 forced transition at x/c =  1.0000   74

  90   rms: 0.7143E+06   max: 0.1041E+08   C at   50  1   RLX: 0.000
       a = 11.000      CL =  1.9910
      Cm = -0.3463     CD =  0.00539   =>   CDf =  0.00890    CDp = -0.00351

 Side 1  free  transition at x/c =  0.4807   50
 Side 2 forced transition at x/c =  1.0000   74

  91   rms: 0.2694E+06   max: -.3926E+07   C at   50  1   RLX: 0.000
       a = 11.000      CL =  1.9910
      Cm = -0.3463     CD =  0.00539   =>   CDf =  0.00890    CDp = -0.00351

 Side 1  free  transition at x/c =  0.4807   50
 Side 2 forced transition at x/c =  1.0000   74

  92   rms: 0.9360E+06   max: -.1364E+08   C at   50  1   RLX: 0.000
       a = 11.000      CL =  1.9910
      Cm = -0.3463     CD =  0.00539   =>   CDf =  0.00890    CDp = -0.00351

 Side 1  free  transition at x/c =  0.4807   50
 Side 2 forced transition at x/c =  1.0000   74

  93   rms: 0.1260E+06   max: -.1838E+07   C at   50  1   RLX: 0.000
       a = 11.000      CL =  1.9909
      Cm = -0.3463     CD =  0.00539   =>   CDf =  0.00890    CDp = -0.00351

 Side 1  free  transition at x/c =  0.4807   50
 Side 2 forced transition at x/c =  1.0000   74

  94   rms: 0.2218E+07   max: -.3232E+08   C at   50  1   RLX: 0.000
       a = 11.000      CL =  1.9909
      Cm = -0.3463     CD =  0.00539   =>   CDf =  0.00890    CDp = -0.00351

 Side 1  free  transition at x/c =  0.4807   50
 Side 2 forced transition at x/c =  1.0000   74

  95   rms: 0.2121E+06   max: -.3092E+07   C at   50  1   RLX: 0.000
       a = 11.000      CL =  1.9909
      Cm = -0.3463     CD =  0.00539   =>   CDf =  0.00890    CDp = -0.00351

 Side 1  free  transition at x/c =  0.4807   50
 Side 2 forced transition at x/c =  1.0000   74

  96   rms: 0.1371E+06   max: -.1998E+07   C at   50  1   RLX: 0.000
       a = 11.000      CL =  1.9909
      Cm = -0.3463     CD =  0.00539   =>   CDf =  0.00890    CDp = -0.00351

 Side 1  free  transition at x/c =  0.4807   50
 Side 2 forced transition at x/c =  1.0000   74

  97   rms: 0.6058E+06   max: -.8826E+07   C at   50  1   RLX: 0.000
       a = 11.000      CL =  1.9909
      Cm = -0.3463     CD =  0.00539   =>   CDf =  0.00890    CDp = -0.00351

 Side 1  free  transition at x/c =  0.4807   50
 Side 2 forced transition at x/c =  1.0000   74

  98   rms: 0.2888E+07   max: -.4207E+08   C at   50  1   RLX: 0.000
       a = 11.000      CL =  1.9909
      Cm = -0.3463     CD =  0.00539   =>   CDf =  0.00890    CDp = -0.00351

 Side 1  free  transition at x/c =  0.4807   50
 Side 2 forced transition at x/c =  1.0000   74

  99   rms: 0.1423E+07   max: -.2074E+08   C at   50  1   RLX: 0.000
       a = 11.000      CL =  1.9909
      Cm = -0.3463     CD =  0.00539   =>   CDf =  0.00890    CDp = -0.00351

 Side 1  free  transition at x/c =  0.4807   50
 Side 2 forced transition at x/c =  1.0000   74

 100   rms: 0.1269E+07   max: 0.1849E+08   C at   50  1   RLX: 0.000
       a = 11.000      CL =  1.9909
      Cm = -0.3463     CD =  0.00539   =>   CDf =  0.00890    CDp = -0.00351

 Side 1  free  transition at x/c =  0.4807   50
 Side 2 forced transition at x/c =  1.0000   74

 101   rms: 0.1754E+07   max: 0.2555E+08   C at   50  1   RLX: 0.000
       a = 11.000      CL =  1.9909
      Cm = -0.3463     CD =  0.00539   =>   CDf =  0.00890    CDp = -0.00351

 Side 1  free  transition at x/c =  0.4807   50
 Side 2 forced transition at x/c =  1.0000   74

 102   rms: 0.2388E+07   max: 0.3478E+08   C at   50  1   RLX: 0.000
       a = 11.000      CL =  1.9909
      Cm = -0.3463     CD =  0.00539   =>   CDf =  0.00890    CDp = -0.00351

 Side 1  free  transition at x/c =  0.4807   50
 Side 2 forced transition at x/c =  1.0000   74

 103   rms: 0.7825E+05   max: -.1141E+07   C at   50  1   RLX: 0.000
       a = 11.000      CL =  1.9909
      Cm = -0.3463     CD =  0.00539   =>   CDf =  0.00890    CDp = -0.00351

 Side 1  free  transition at x/c =  0.4808   50
 Side 2 forced transition at x/c =  1.0000   74

 104   rms: 0.1956E+06   max: 0.2848E+07   C at   50  1   RLX: 0.000
       a = 11.000      CL =  1.9909
      Cm = -0.3463     CD =  0.00539   =>   CDf =  0.00890    CDp = -0.00351

 Side 1  free  transition at x/c =  0.4808   50
 Side 2 forced transition at x/c =  1.0000   74

 105   rms: 0.1776E+07   max: 0.2586E+08   C at   50  1   RLX: 0.000
       a = 11.000      CL =  1.9909
      Cm = -0.3463     CD =  0.00539   =>   CDf =  0.00890    CDp = -0.00351

 Side 1  free  transition at x/c =  0.4808   50
 Side 2 forced transition at x/c =  1.0000   74

 106   rms: 0.2467E+06   max: 0.3591E+07   C at   50  1   RLX: 0.000
       a = 11.000      CL =  1.9909
      Cm = -0.3463     CD =  0.00539   =>   CDf =  0.00890    CDp = -0.00351

 Side 1  free  transition at x/c =  0.4808   50
 Side 2 forced transition at x/c =  1.0000   74

 107   rms: 0.3503E+06   max: 0.5101E+07   C at   50  1   RLX: 0.000
       a = 11.000      CL =  1.9909
      Cm = -0.3463     CD =  0.00539   =>   CDf =  0.00890    CDp = -0.00351

 Side 1  free  transition at x/c =  0.4806   50
 Side 2 forced transition at x/c =  1.0000   74

 108   rms: 0.3726E+05   max: -.5440E+06   C at   50  1   RLX: 0.000
       a = 11.000      CL =  1.9908
      Cm = -0.3463     CD =  0.00539   =>   CDf =  0.00890    CDp = -0.00351

 Side 1  free  transition at x/c =  0.4810   50
 Side 2 forced transition at x/c =  1.0000   74

 109   rms: 0.2701E+05   max: 0.3920E+06   C at   50  1   RLX: 0.000
       a = 11.000      CL =  1.9909
      Cm = -0.3463     CD =  0.00540   =>   CDf =  0.00890    CDp = -0.00350

 Side 1  free  transition at x/c =  0.4806   50
 Side 2 forced transition at x/c =  1.0000   74

 110   rms: 0.6493E+05   max: -.9472E+06   C at   50  1   RLX: 0.000
       a = 11.000      CL =  1.9909
      Cm = -0.3463     CD =  0.00539   =>   CDf =  0.00890    CDp = -0.00351

 Side 1  free  transition at x/c =  0.4808   50
 Side 2 forced transition at x/c =  1.0000   74

 111   rms: 0.1457E+06   max: 0.2121E+07   C at   50  1   RLX: 0.000
       a = 11.000      CL =  1.9909
      Cm = -0.3463     CD =  0.00539   =>   CDf =  0.00890    CDp = -0.00351

 Side 1  free  transition at x/c =  0.4807   50
 Side 2 forced transition at x/c =  1.0000   74

 112   rms: 0.7342E+06   max: -.1070E+08   C at   50  1   RLX: 0.000
       a = 11.000      CL =  1.9909
      Cm = -0.3463     CD =  0.00539   =>   CDf =  0.00890    CDp = -0.00351

 Side 1  free  transition at x/c =  0.4807   50
 Side 2 forced transition at x/c =  1.0000   74

 113   rms: 0.9808E+06   max: 0.1429E+08   C at   50  1   RLX: 0.000
       a = 11.000      CL =  1.9909
      Cm = -0.3463     CD =  0.00539   =>   CDf =  0.00890    CDp = -0.00351

 Side 1  free  transition at x/c =  0.4807   50
 Side 2 forced transition at x/c =  1.0000   74

 114   rms: 0.8631E+06   max: -.1257E+08   C at   50  1   RLX: 0.000
       a = 11.000      CL =  1.9909
      Cm = -0.3463     CD =  0.00539   =>   CDf =  0.00890    CDp = -0.00351

 Side 1  free  transition at x/c =  0.4807   50
 Side 2 forced transition at x/c =  1.0000   74

 115   rms: 0.2737E+06   max: -.3989E+07   C at   50  1   RLX: 0.000
       a = 11.000      CL =  1.9909
      Cm = -0.3463     CD =  0.00539   =>   CDf =  0.00890    CDp = -0.00351

 Side 1  free  transition at x/c =  0.4807   50
 Side 2 forced transition at x/c =  1.0000   74

 116   rms: 0.2442E+07   max: -.3558E+08   C at   50  1   RLX: 0.000
       a = 11.000      CL =  1.9909
      Cm = -0.3463     CD =  0.00539   =>   CDf =  0.00890    CDp = -0.00351

 Side 1  free  transition at x/c =  0.4807   50
 Side 2 forced transition at x/c =  1.0000   74

 117   rms: 0.7714E+06   max: -.1124E+08   C at   50  1   RLX: 0.000
       a = 11.000      CL =  1.9909
      Cm = -0.3463     CD =  0.00539   =>   CDf =  0.00890    CDp = -0.00351

 Side 1  free  transition at x/c =  0.4807   50
 Side 2 forced transition at x/c =  1.0000   74

 118   rms: 0.1124E+08   max: -.1637E+09   C at   50  1   RLX: 0.000
       a = 11.000      CL =  1.9909
      Cm = -0.3463     CD =  0.00539   =>   CDf =  0.00890    CDp = -0.00351

 Side 1  free  transition at x/c =  0.4807   50
 Side 2 forced transition at x/c =  1.0000   74

 119   rms: 0.1040E+07   max: -.1515E+08   C at   50  1   RLX: 0.000
       a = 11.000      CL =  1.9909
      Cm = -0.3463     CD =  0.00539   =>   CDf =  0.00890    CDp = -0.00351

 Side 1  free  transition at x/c =  0.4807   50
 Side 2 forced transition at x/c =  1.0000   74

 120   rms: 0.4315E+07   max: -.6286E+08   C at   50  1   RLX: 0.000
       a = 11.000      CL =  1.9909
      Cm = -0.3463     CD =  0.00539   =>   CDf =  0.00890    CDp = -0.00351

 Side 1  free  transition at x/c =  0.4807   50
 Side 2 forced transition at x/c =  1.0000   74

 121   rms: 0.1845E+07   max: 0.2688E+08   C at   50  1   RLX: 0.000
       a = 11.000      CL =  1.9909
      Cm = -0.3463     CD =  0.00539   =>   CDf =  0.00890    CDp = -0.00351

 Side 1  free  transition at x/c =  0.4808   50
 Side 2 forced transition at x/c =  1.0000   74

 122   rms: 0.3287E+06   max: 0.4787E+07   C at   50  1   RLX: 0.000
       a = 11.000      CL =  1.9909
      Cm = -0.3463     CD =  0.00539   =>   CDf =  0.00890    CDp = -0.00351

 Side 1  free  transition at x/c =  0.4807   50
 Side 2 forced transition at x/c =  1.0000   74

 123   rms: 0.2835E+07   max: 0.4129E+08   C at   50  1   RLX: 0.000
       a = 11.000      CL =  1.9909
      Cm = -0.3463     CD =  0.00539   =>   CDf =  0.00890    CDp = -0.00351

 Side 1  free  transition at x/c =  0.4808   50
 Side 2 forced transition at x/c =  1.0000   74

 124   rms: 0.3761E+06   max: 0.5477E+07   C at   50  1   RLX: 0.000
       a = 11.000      CL =  1.9909
      Cm = -0.3463     CD =  0.00539   =>   CDf =  0.00890    CDp = -0.00351

 Side 1  free  transition at x/c =  0.4806   50
 Side 2 forced transition at x/c =  1.0000   74

 125   rms: 0.3701E+05   max: -.5405E+06   C at   50  1   RLX: 0.000
       a = 11.000      CL =  1.9908
      Cm = -0.3463     CD =  0.00539   =>   CDf =  0.00890    CDp = -0.00351

 Side 1  free  transition at x/c =  0.4811   50
 Side 2 forced transition at x/c =  1.0000   74

 126   rms: 0.2281E+05   max: 0.3308E+06   C at   50  1   RLX: 0.000
       a = 11.000      CL =  1.9909
      Cm = -0.3463     CD =  0.00540   =>   CDf =  0.00890    CDp = -0.00350

 Side 1  free  transition at x/c =  0.4806   50
 Side 2 forced transition at x/c =  1.0000   74

 127   rms: 0.6533E+05   max: -.9533E+06   C at   50  1   RLX: 0.000
       a = 11.000      CL =  1.9909
      Cm = -0.3463     CD =  0.00539   =>   CDf =  0.00890    CDp = -0.00351

 Side 1  free  transition at x/c =  0.4808   50
 Side 2 forced transition at x/c =  1.0000   74

 128   rms: 0.1339E+06   max: 0.1949E+07   C at   50  1   RLX: 0.000
       a = 11.000      CL =  1.9909
      Cm = -0.3463     CD =  0.00539   =>   CDf =  0.00890    CDp = -0.00351

 Side 1  free  transition at x/c =  0.4807   50
 Side 2 forced transition at x/c =  1.0000   74

 129   rms: 0.2860E+06   max: -.4168E+07   C at   50  1   RLX: 0.000
       a = 11.000      CL =  1.9909
      Cm = -0.3463     CD =  0.00539   =>   CDf =  0.00890    CDp = -0.00351

 Side 1  free  transition at x/c =  0.4807   50
 Side 2 forced transition at x/c =  1.0000   74

 130   rms: 0.3928E+06   max: 0.5723E+07   C at   50  1   RLX: 0.000
       a = 11.000      CL =  1.9909
      Cm = -0.3463     CD =  0.00539   =>   CDf =  0.00890    CDp = -0.00351

 Side 1  free  transition at x/c =  0.4807   50
 Side 2 forced transition at x/c =  1.0000   74

 131   rms: 0.2572E+07   max: -.3748E+08   C at   50  1   RLX: 0.000
       a = 11.000      CL =  1.9909
      Cm = -0.3463     CD =  0.00539   =>   CDf =  0.00890    CDp = -0.00351

 Side 1  free  transition at x/c =  0.4808   50
 Side 2 forced transition at x/c =  1.0000   74

 132   rms: 0.9537E+05   max: 0.1388E+07   C at   50  1   RLX: 0.000
       a = 11.000      CL =  1.9909
      Cm = -0.3463     CD =  0.00539   =>   CDf =  0.00890    CDp = -0.00351

 Side 1  free  transition at x/c =  0.4806   50
 Side 2 forced transition at x/c =  1.0000   74

 133   rms: 0.1043E+06   max: -.1522E+07   C at   50  1   RLX: 0.000
       a = 11.000      CL =  1.9909
      Cm = -0.3463     CD =  0.00539   =>   CDf =  0.00890    CDp = -0.00351

 Side 1  free  transition at x/c =  0.4807   50
 Side 2 forced transition at x/c =  1.0000   74

 134   rms: 0.1958E+06   max: 0.2852E+07   C at   50  1   RLX: 0.000
       a = 11.000      CL =  1.9909
      Cm = -0.3463     CD =  0.00539   =>   CDf =  0.00890    CDp = -0.00351

 Side 1  free  transition at x/c =  0.4807   50
 Side 2 forced transition at x/c =  1.0000   74

 135   rms: 0.3588E+06   max: 0.5227E+07   C at   50  1   RLX: 0.000
       a = 11.000      CL =  1.9909
      Cm = -0.3463     CD =  0.00539   =>   CDf =  0.00890    CDp = -0.00351

 Side 1  free  transition at x/c =  0.4807   50
 Side 2 forced transition at x/c =  1.0000   74

 136   rms: 0.7355E+06   max: 0.1072E+08   C at   50  1   RLX: 0.000
       a = 11.000      CL =  1.9909
      Cm = -0.3463     CD =  0.00539   =>   CDf =  0.00890    CDp = -0.00351

 Side 1  free  transition at x/c =  0.4807   50
 Side 2 forced transition at x/c =  1.0000   74

 137   rms: 0.4912E+06   max: -.7160E+07   C at   50  1   RLX: 0.000
       a = 11.000      CL =  1.9909
      Cm = -0.3463     CD =  0.00539   =>   CDf =  0.00890    CDp = -0.00351

 Side 1  free  transition at x/c =  0.4807   50
 Side 2 forced transition at x/c =  1.0000   74

 138   rms: 0.1599E+07   max: -.2330E+08   C at   50  1   RLX: 0.000
       a = 11.000      CL =  1.9909
      Cm = -0.3463     CD =  0.00539   =>   CDf =  0.00890    CDp = -0.00351

 Side 1  free  transition at x/c =  0.4807   50
 Side 2 forced transition at x/c =  1.0000   74

 139   rms: 0.6909E+07   max: 0.1007E+09   C at   50  1   RLX: 0.000
       a = 11.000      CL =  1.9909
      Cm = -0.3463     CD =  0.00539   =>   CDf =  0.00890    CDp = -0.00351

 Side 1  free  transition at x/c =  0.4807   50
 Side 2 forced transition at x/c =  1.0000   74

 140   rms: 0.5168E+06   max: -.7533E+07   C at   50  1   RLX: 0.000
       a = 11.000      CL =  1.9909
      Cm = -0.3463     CD =  0.00539   =>   CDf =  0.00890    CDp = -0.00351

 Side 1  free  transition at x/c =  0.4807   50
 Side 2 forced transition at x/c =  1.0000   74

 141   rms: 0.6305E+07   max: 0.9189E+08   C at   50  1   RLX: 0.000
       a = 11.000      CL =  1.9909
      Cm = -0.3463     CD =  0.00539   =>   CDf =  0.00890    CDp = -0.00351

 Side 1  free  transition at x/c =  0.4807   50
 Side 2 forced transition at x/c =  1.0000   74

 142   rms: 0.6791E+06   max: -.9898E+07   C at   50  1   RLX: 0.000
       a = 11.000      CL =  1.9909
      Cm = -0.3463     CD =  0.00539   =>   CDf =  0.00890    CDp = -0.00351

 Side 1  free  transition at x/c =  0.4807   50
 Side 2 forced transition at x/c =  1.0000   74

 143   rms: 0.1217E+07   max: -.1773E+08   C at   50  1   RLX: 0.000
       a = 11.000      CL =  1.9909
      Cm = -0.3463     CD =  0.00539   =>   CDf =  0.00890    CDp = -0.00351

 Side 1  free  transition at x/c =  0.4807   50
 Side 2 forced transition at x/c =  1.0000   74

 144   rms: 0.1520E+07   max: -.2216E+08   C at   50  1   RLX: 0.000
       a = 11.000      CL =  1.9909
      Cm = -0.3463     CD =  0.00539   =>   CDf =  0.00890    CDp = -0.00351

 Side 1  free  transition at x/c =  0.4807   50
 Side 2 forced transition at x/c =  1.0000   74

 145   rms: 0.6348E+06   max: 0.9249E+07   C at   50  1   RLX: 0.000
       a = 11.000      CL =  1.9909
      Cm = -0.3463     CD =  0.00539   =>   CDf =  0.00890    CDp = -0.00351

 Side 1  free  transition at x/c =  0.4807   50
 Side 2 forced transition at x/c =  1.0000   74

 146   rms: 0.2625E+08   max: -.3826E+09   C at   50  1   RLX: 0.000
       a = 11.000      CL =  1.9909
      Cm = -0.3463     CD =  0.00539   =>   CDf =  0.00890    CDp = -0.00351

 Side 1  free  transition at x/c =  0.4807   50
 Side 2 forced transition at x/c =  1.0000   74

 147   rms: 0.5765E+06   max: 0.8400E+07   C at   50  1   RLX: 0.000
       a = 11.000      CL =  1.9909
      Cm = -0.3463     CD =  0.00539   =>   CDf =  0.00890    CDp = -0.00351

 Side 1  free  transition at x/c =  0.4807   50
 Side 2 forced transition at x/c =  1.0000   74

 148   rms: 0.1466E+07   max: 0.2137E+08   C at   50  1   RLX: 0.000
       a = 11.000      CL =  1.9909
      Cm = -0.3463     CD =  0.00539   =>   CDf =  0.00890    CDp = -0.00351

 Side 1  free  transition at x/c =  0.4807   50
 Side 2 forced transition at x/c =  1.0000   74

 149   rms: 0.2180E+06   max: 0.3175E+07   C at   50  1   RLX: 0.000
       a = 11.000      CL =  1.9909
      Cm = -0.3463     CD =  0.00539   =>   CDf =  0.00890    CDp = -0.00351

 Side 1  free  transition at x/c =  0.4807   50
 Side 2 forced transition at x/c =  1.0000   74

 150   rms: 0.3362E+06   max: 0.4899E+07   C at   50  1   RLX: 0.000
       a = 11.000      CL =  1.9909
      Cm = -0.3463     CD =  0.00539   =>   CDf =  0.00890    CDp = -0.00351

 Side 1  free  transition at x/c =  0.4807   50
 Side 2 forced transition at x/c =  1.0000   74

 151   rms: 0.4026E+06   max: 0.5866E+07   C at   50  1   RLX: 0.000
       a = 11.000      CL =  1.9910
      Cm = -0.3463     CD =  0.00539   =>   CDf =  0.00890    CDp = -0.00351

 Side 1  free  transition at x/c =  0.4807   50
 Side 2 forced transition at x/c =  1.0000   74

 152   rms: 0.1294E+07   max: -.1886E+08   C at   50  1   RLX: 0.000
       a = 11.000      CL =  1.9910
      Cm = -0.3463     CD =  0.00539   =>   CDf =  0.00890    CDp = -0.00351

 Side 1  free  transition at x/c =  0.4807   50
 Side 2 forced transition at x/c =  1.0000   74

 153   rms: 0.3769E+06   max: 0.5492E+07   C at   50  1   RLX: 0.000
       a = 11.000      CL =  1.9910
      Cm = -0.3463     CD =  0.00539   =>   CDf =  0.00890    CDp = -0.00351

 Side 1  free  transition at x/c =  0.4807   50
 Side 2 forced transition at x/c =  1.0000   74

 154   rms: 0.1319E+07   max: -.1922E+08   C at   50  1   RLX: 0.000
       a = 11.000      CL =  1.9910
      Cm = -0.3463     CD =  0.00539   =>   CDf =  0.00890    CDp = -0.00351

 Side 1  free  transition at x/c =  0.4807   50
 Side 2 forced transition at x/c =  1.0000   74

 155   rms: 0.1168E+07   max: 0.1702E+08   C at   50  1   RLX: 0.000
       a = 11.000      CL =  1.9910
      Cm = -0.3463     CD =  0.00539   =>   CDf =  0.00890    CDp = -0.00351
 VISCAL:  Convergence failed

 Sequence halted since previous  4 points did not converge
 Last-converged  alpha =  10.000    CL =   0.93003

.OPERva   c>  
 Polar accumulation disabled

.OPERv   c>  
 XFOIL   c>  
 XFOIL   c>  