  
       XFOIL         Version 6.99
  
 Calculated polar for: P-51D TIP (BL215) AIRFOIL                       
  
 1 1 Reynolds number fixed          Mach number fixed         
  
 xtrf =   1.000 (top)        1.000 (bottom)  
 Mach =   0.000     Re =     0.400 e 6     Ncrit =   9.000
  
   alpha    CL        CD       CDp       CM     Top_Xtr  Bot_Xtr
  ------ -------- --------- --------- -------- -------- --------
  -4.000  -0.2754   0.01364   0.00624  -0.0351   0.7776   0.0480
  -3.500  -0.2233   0.01298   0.00549  -0.0350   0.7745   0.0506
  -3.000  -0.1701   0.01246   0.00491  -0.0351   0.7713   0.0550
  -2.500  -0.1226   0.01099   0.00418  -0.0347   0.7683   0.2445
  -2.000  -0.0825   0.00962   0.00437  -0.0324   0.7657   0.7092
  -1.500  -0.0289   0.01018   0.00492  -0.0315   0.7635   0.7451
  -1.000   0.0249   0.01064   0.00545  -0.0308   0.7608   0.7675
  -0.500   0.0799   0.01093   0.00576  -0.0308   0.7581   0.7804
   0.000   0.1344   0.01123   0.00609  -0.0306   0.7557   0.7934
   0.500   0.1910   0.01135   0.00622  -0.0314   0.7537   0.7971
   1.000   0.2482   0.01143   0.00631  -0.0323   0.7515   0.7996
   1.500   0.3052   0.01154   0.00642  -0.0331   0.7487   0.8023
   2.000   0.3619   0.01125   0.00618  -0.0335   0.7391   0.8046
   2.500   0.4179   0.01045   0.00534  -0.0328   0.7233   0.8067
   3.000   0.4739   0.00979   0.00472  -0.0324   0.7054   0.8092
   3.500   0.5300   0.00937   0.00441  -0.0324   0.6874   0.8123
   4.000   0.5856   0.00893   0.00410  -0.0322   0.6553   0.8161
   4.500   0.6160   0.01066   0.00452  -0.0284   0.3261   0.8200
   5.000   0.6393   0.01346   0.00598  -0.0245   0.0624   0.8246
   5.500   0.6833   0.01440   0.00699  -0.0232   0.0478   0.8295
   6.000   0.7257   0.01535   0.00803  -0.0216   0.0373   0.8345
   6.500   0.7602   0.01692   0.00964  -0.0188   0.0247   0.8412
   7.000   0.7984   0.01830   0.01117  -0.0164   0.0182   0.8481
   7.500   0.8365   0.02162   0.01469  -0.0139   0.0147   0.8555
   8.000   0.8847   0.02418   0.01761  -0.0130   0.0131   0.8636
   9.000   0.9584   0.03535   0.03031  -0.0078   0.0119   0.8876
   9.500   0.9573   0.04353   0.03945  -0.0014   0.0126   0.9223
  10.000   0.9300   0.05338   0.04996   0.0038   0.0138   1.0000
  10.000   0.9300   0.05338   0.04996   0.0038   0.0138   1.0000
