
 ===================================================
  XFOIL Version 6.99
  Copyright (C) 2000   Mark Drela, Harold Youngren

  This software comes with ABSOLUTELY NO WARRANTY,
    subject to the GNU General Public License.

  Caveat computor
 ===================================================

 File  xfoil.def  not found

   QUIT    Exit program

  .OPER    Direct operating point(s)
  .MDES    Complex mapping design routine
  .QDES    Surface speed design routine
  .GDES    Geometry design routine

   SAVE f  Write airfoil to labeled coordinate file
   PSAV f  Write airfoil to plain coordinate file
   ISAV f  Write airfoil to ISES coordinate file
   MSAV f  Write airfoil to MSES coordinate file
   REVE    Reverse written-airfoil node ordering

   LOAD f  Read buffer airfoil from coordinate file
   NACA i  Set NACA 4,5-digit airfoil and buffer airfoil
   INTE    Set buffer airfoil by interpolating two airfoils
   NORM    Buffer airfoil normalization toggle
   XYCM rr Change CM reference location, currently  0.25000 0.00000

   BEND    Display structural properties of current airfoil

   PCOP    Set current-airfoil panel nodes directly from buffer airfoil points
   PANE    Set current-airfoil panel nodes ( 160 ) based on curvature
  .PPAR    Show/change paneling

  .PLOP    Plotting options

   WDEF f  Write  current-settings file
   RDEF f  Reread current-settings file
   NAME s  Specify new airfoil name
   NINC    Increment name version number

   Z       Zoom    | (available in all menus)
   U       Unzoom  | 

 XFOIL   c>  
 Labeled airfoil file.  Name:     PT40                                         

 Number of input coordinate points:  79
 Counterclockwise ordering
 Max thickness =     0.115947  at x =   0.271
 Max camber    =     0.029264  at x =   0.416

  LE  x,y  =   0.00000  -0.00079  |   Chord =   1.00000
  TE  x,y  =   1.00000   0.00000  |

 Current airfoil nodes set from buffer airfoil nodes (  79 )

 XFOIL   c>  
 XFOIL   c>  
 Blunt trailing edge.  Gap =  0.00270

 Paneling parameters used...
   Number of panel nodes       160
   Panel bunching parameter    1.000
   TE/LE panel density ratio   0.150
   Refined-area/LE panel density ratio    0.200
   Top    side refined area x/c limits  1.000 1.000
   Bottom side refined area x/c limits  1.000 1.000

 XFOIL   c>  
.OPERi   c>  
 Xtr/c     =  1.0000    top    side
 Xtr/c     =  1.0000    bottom side
 Ncrit     =    9.00   ( 0.070 % turb. level )
 Vacc      =  0.0100

 Klag  =  5.6000     Uxwt  =    1.00
 A     =  6.7000     B     =  0.7500       KCt = 0.01485
 CtiniK=  1.8000     CtiniX=  3.3000

..VPAR   c>  
..VPAR   c>  
.OPERi   c>  
 M  =    0.0000
 Re =    300000

.OPERv   c>  
.OPERv   c>  
.OPERv   c>  
 Polar  1 newly created for accumulation
 Airfoil archived with polar: PT40                                            

Enter  polar save filename  OR  <return> for no file   s>  
 New polar save file available

Enter  polar dump filename  OR  <return> for no file   s>  
 Polar dump file will NOT be written

 Polar accumulation enabled

.OPERva   c>   Calculating unit vorticity distributions ...
 Calculating wake trajectory ...
 Calculating source influence matrix ...

 Solving BL system ...

 Initializing BL ...
    side            1  ...
 MRCHUE: Inverse mode at  41     Hk =   3.800
 MRCHUE: Inverse mode at  42     Hk =   4.510
 MRCHUE: Inverse mode at  43     Hk =   5.208
 MRCHUE: Inverse mode at  44     Hk =   5.902
 MRCHUE: Convergence failed at  45  side 1    Res =  0.2958E+01
 MRCHUE: Inverse mode at  46     Hk =   6.629
 MRCHUE: Inverse mode at  47     Hk =   7.363
 MRCHUE: Inverse mode at  48     Hk =   8.113
 MRCHUE: Inverse mode at  49     Hk =   8.880
 MRCHUE: Inverse mode at  50     Hk =   8.876
 MRCHUE: Inverse mode at  51     Hk =   5.236
 MRCHUE: Inverse mode at  52     Hk =   3.370
 MRCHUE: Inverse mode at  92     Hk =   2.500
 MRCHUE: Inverse mode at  93     Hk =   2.500
 MRCHUE: Inverse mode at  94     Hk =   2.500
 MRCHUE: Inverse mode at  95     Hk =   2.500
 MRCHUE: Inverse mode at  96     Hk =   2.500
 MRCHUE: Inverse mode at  97     Hk =   2.500
 MRCHUE: Inverse mode at  98     Hk =   2.500
 MRCHUE: Inverse mode at  99     Hk =   2.500
 MRCHUE: Inverse mode at 100     Hk =   2.500
 MRCHUE: Inverse mode at 101     Hk =   2.500
 MRCHUE: Inverse mode at 102     Hk =   2.500
 MRCHUE: Inverse mode at 103     Hk =   2.500
 MRCHUE: Inverse mode at 104     Hk =   2.500
 MRCHUE: Inverse mode at 105     Hk =   2.500
 MRCHUE: Inverse mode at 106     Hk =   2.500
 MRCHUE: Convergence failed at 107  side 1    Res =  0.5723E+01
 MRCHUE: Inverse mode at 108     Hk =   2.500
 MRCHUE: Convergence failed at 109  side 1    Res =  0.1031E+02
    side            2  ...
 MRCHUE: Inverse mode at  52     Hk =   3.800
 MRCHUE: Inverse mode at  53     Hk =   4.003

 MRCHDU: Convergence failed at  52  side 1    Res =  0.2087E+01
 MRCHDU: Convergence failed at  53  side 1    Res =  0.6509E+01
 MRCHDU: Convergence failed at  54  side 1    Res =  0.2928E+01
 MRCHDU: Convergence failed at  55  side 1    Res =  0.2309E+01
 MRCHDU: Convergence failed at  56  side 1    Res =  0.2191E+01
 MRCHDU: Convergence failed at  57  side 1    Res =  0.2984E+01
 MRCHDU: Convergence failed at  58  side 1    Res =  0.4065E+01
 MRCHDU: Convergence failed at  59  side 1    Res =  0.5679E+01
 MRCHDU: Convergence failed at  60  side 1    Res =  0.7733E+01
 MRCHDU: Convergence failed at  61  side 1    Res =  0.1053E+02
 MRCHDU: Convergence failed at  62  side 1    Res =  0.1417E+02
 MRCHDU: Convergence failed at  63  side 1    Res =  0.1881E+02
 MRCHDU: Convergence failed at  64  side 1    Res =  0.2392E+02
 MRCHDU: Convergence failed at  65  side 1    Res =  0.2258E+02
 MRCHDU: Convergence failed at  66  side 1    Res =  0.2441E+02
 MRCHDU: Convergence failed at  67  side 1    Res =  0.4369E+02
 MRCHDU: Convergence failed at  68  side 1    Res =  0.3801E+02
 MRCHDU: Convergence failed at  69  side 1    Res =  0.4630E+02
 MRCHDU: Convergence failed at  70  side 1    Res =  0.3228E+02
 MRCHDU: Convergence failed at  71  side 1    Res =  0.3869E+02
 MRCHDU: Convergence failed at  72  side 1    Res =  0.4675E+02
 MRCHDU: Convergence failed at  73  side 1    Res =  0.2849E+02
 MRCHDU: Convergence failed at  74  side 1    Res =  0.3695E+02
 MRCHDU: Convergence failed at  75  side 1    Res =  0.3953E+02
 MRCHDU: Convergence failed at  76  side 1    Res =  0.2804E+02
 MRCHDU: Convergence failed at  77  side 1    Res =  0.1228E+04
 MRCHDU: Convergence failed at  78  side 1    Res =  0.1203E+03
 MRCHDU: Convergence failed at  79  side 1    Res =  0.6758E+04
 MRCHDU: Convergence failed at  80  side 1    Res =  0.1651E+03
 MRCHDU: Convergence failed at  81  side 1    Res =  0.8400E+02
 MRCHDU: Convergence failed at  82  side 1    Res =  0.5766E+02
 MRCHDU: Convergence failed at  83  side 1    Res =  0.6541E+02
 MRCHDU: Convergence failed at  84  side 1    Res =  0.2140E+02
 MRCHDU: Convergence failed at  85  side 1    Res =  0.1895E+02
 MRCHDU: Convergence failed at  86  side 1    Res =  0.1773E+02
 MRCHDU: Convergence failed at  87  side 1    Res =  0.2832E+02
 MRCHDU: Convergence failed at  88  side 1    Res =  0.4734E+02
 MRCHDU: Convergence failed at  89  side 1    Res =  0.2467E+03
 MRCHDU: Convergence failed at  90  side 1    Res =  0.5648E+02
 MRCHDU: Convergence failed at  91  side 1    Res =  0.1525E+03
 MRCHDU: Convergence failed at  92  side 1    Res =  0.2470E+03
 MRCHDU: Convergence failed at  93  side 1    Res =  0.3117E+03
 MRCHDU: Convergence failed at  94  side 1    Res =  0.1962E+02
 MRCHDU: Convergence failed at  95  side 1    Res =  0.9912E+03
 MRCHDU: Convergence failed at  96  side 1    Res =  0.1879E+02
 MRCHDU: Convergence failed at  97  side 1    Res =  0.5934E+03
 MRCHDU: Convergence failed at  98  side 1    Res =  0.2628E+04
 MRCHDU: Convergence failed at  99  side 1    Res =  0.4446E+03
 MRCHDU: Convergence failed at 100  side 1    Res =  0.1829E+04
 MRCHDU: Convergence failed at 101  side 1    Res =  0.2892E+03
 MRCHDU: Convergence failed at 102  side 1    Res =  0.1553E+03
 MRCHDU: Convergence failed at 103  side 1    Res =  0.1059E+03
 MRCHDU: Convergence failed at 104  side 1    Res =  0.8078E+02
 MRCHDU: Convergence failed at 105  side 1    Res =  0.6581E+02
 MRCHDU: Convergence failed at 106  side 1    Res =  0.5602E+02
 MRCHDU: Convergence failed at 107  side 1    Res =  0.2121E+02
 MRCHDU: Convergence failed at 108  side 1    Res =  0.2054E+02
 MRCHDU: Convergence failed at 109  side 1    Res =  0.1083E+02
 Side 1  free  transition at x/c =  0.0490   50
 Side 2 forced transition at x/c =  1.0000   53

   1   rms: 0.2376E+01   max: 0.9487E+01   D at   55  2   RLX: 0.061
       a = 16.250      CL =  7.0001
      Cm = -1.6920     CD =  0.00169   =>   CDf =  0.00195    CDp = -0.00026

 Side 1  free  transition at x/c =  0.0477   50
 Side 2 forced transition at x/c =  1.0000   53

   2   rms: 0.1506E+01   max: -.1853E+01   U at  109  1   RLX: 0.105
       a = 16.250      CL =  6.2780
      Cm = -1.4397     CD =  0.00305   =>   CDf =  0.02973    CDp = -0.02667

 Side 1  free  transition at x/c =  0.0464   50
 Side 2 forced transition at x/c =  1.0000   53

   3   rms: 0.1363E+01   max: -.1649E+01   U at  109  1   RLX: 0.123
       a = 16.250      CL =  5.6463
      Cm = -1.2160     CD =  0.00362   =>   CDf =  0.02698    CDp = -0.02336

 Side 1  free  transition at x/c =  0.0455   50
 Side 2 forced transition at x/c =  1.0000   53

   4   rms: 0.1214E+01   max: 0.1437E+01   D at   59  2   RLX: 0.146
       a = 16.250      CL =  5.0298
      Cm = -1.0005     CD =  0.00440   =>   CDf =  0.02424    CDp = -0.01984

 Side 1  free  transition at x/c =  0.0449   50
 Side 2 forced transition at x/c =  1.0000   53

   5   rms: 0.1070E+01   max: 0.1446E+01   D at   59  2   RLX: 0.176
       a = 16.250      CL =  4.4298
      Cm = -0.7946     CD =  0.00556   =>   CDf =  0.02142    CDp = -0.01586

 Side 1  free  transition at x/c =  0.0444   50
 Side 2 forced transition at x/c =  1.0000   53

   6   rms: 0.9576E+00   max: 0.1591E+01   D at   60  2   RLX: 0.219
       a = 16.250      CL =  3.8501
      Cm = -0.6003     CD =  0.00761   =>   CDf =  0.01863    CDp = -0.01102

 Side 1  free  transition at x/c =  0.0439   49
 Side 2 forced transition at x/c =  1.0000   53
 idif Ue xi dudx           1  5.91274425E-02  5.93686104E-03   9.9593782    
 Uenew xinew           2  9.23443399E-03  9.27209854E-04

   7   rms: 0.7986E+00   max: 0.1509E+01   D at   61  2   RLX: 0.286
       a = 16.250      CL =  3.2911
      Cm = -0.4195     CD =  0.01095   =>   CDf =  0.01636    CDp = -0.00541

 Side 1  free  transition at x/c =  0.0433   48
 Side 2 forced transition at x/c =  1.0000   54

   8   rms: 0.6463E+00   max: 0.1419E+01   D at   63  2   RLX: 0.390
       a = 16.250      CL =  2.7514
      Cm = -0.2576     CD =  0.01749   =>   CDf =  0.01315    CDp =  0.00433

 Side 1  free  transition at x/c =  0.0430   48
 Side 2 forced transition at x/c =  1.0000   54
 idif Ue xi dudx           1  9.24361870E-02  7.95638561E-03   11.617862    
 Uenew xinew           2  3.88425067E-02  3.34334373E-03

   9   rms: 0.5027E+00   max: 0.1237E+01   D at   65  2   RLX: 0.550
       a = 16.250      CL =  2.2324
      Cm = -0.1212     CD =  0.02945   =>   CDf =  0.01108    CDp =  0.01838

 Side 1  free  transition at x/c =  0.0433   47
 Side 2 forced transition at x/c =  1.0000   55
 idif Ue xi dudx           2  0.12821645      9.39917564E-03   13.641244    
 Uenew xinew           3  6.98599592E-02  5.12123108E-03

  10   rms: 0.3650E+00   max: 0.9704E+00   D at   58  2   RLX: 0.742
       a = 16.250      CL =  1.8160
      Cm = -0.0383     CD =  0.04381   =>   CDf =  0.00943    CDp =  0.03438

 Side 1  free  transition at x/c =  0.0443   46
 Side 2 forced transition at x/c =  1.0000   57
 idif Ue xi dudx           1  8.39400068E-02  4.96745110E-03   16.898005    
 Uenew xinew           2  2.02225521E-02  1.19674206E-03

  11   rms: 0.4366E+00   max: -.1322E+01   T at    2  2   RLX: 0.378
       a = 16.250      CL =  1.6534
      Cm = -0.0253     CD =  0.04908   =>   CDf =  0.00808    CDp =  0.04100

 Side 1  free  transition at x/c =  0.0455   45
 Side 2 forced transition at x/c =  1.0000   58
 idif Ue xi dudx           1  8.67764130E-02  4.30548191E-03   20.154867    
 Uenew xinew           2  1.47642680E-02  7.32541084E-04

  12   rms: 0.1331E+00   max: 0.5077E+00   D at   70  2
       a = 16.250      CL =  1.4851
      Cm = -0.0036     CD =  0.06329   =>   CDf =  0.00744    CDp =  0.05585

 Side 1  free  transition at x/c =  0.0462   44
 Side 2 forced transition at x/c =  1.0000   59

  13   rms: 0.9986E-02   max: 0.7038E-01   D at   73  2
       a = 16.250      CL =  1.4907
      Cm = -0.0043     CD =  0.06235   =>   CDf =  0.00676    CDp =  0.05559

 Side 1  free  transition at x/c =  0.0462   44
 Side 2 forced transition at x/c =  1.0000   59

  14   rms: 0.1471E-02   max: -.7369E-02   D at   73  2
       a = 16.250      CL =  1.4918
      Cm = -0.0043     CD =  0.06227   =>   CDf =  0.00677    CDp =  0.05551

 Side 1  free  transition at x/c =  0.0462   44
 Side 2 forced transition at x/c =  1.0000   59

  15   rms: 0.3240E-04   max: -.3305E-03   D at   73  2
       a = 16.250      CL =  1.4919
      Cm = -0.0043     CD =  0.06229   =>   CDf =  0.00677    CDp =  0.05552
 plradd ia,ip,cpol            1           0  9.31582786E-03

 Point added to stored polar  1
 Point written to save file  pt40_Re300k.ext.pol                             
 Dump file unspecified or not available
 Calculating wake trajectory ...
 Calculating source influence matrix ...

 Solving BL system ...

 Side 1  free  transition at x/c =  0.0462   44
 Side 2 forced transition at x/c =  1.0000   59

   1   rms: 0.2734E-01   max: 0.7585E-01   D at   79  1   RLX: 0.596
       a = 16.500      CL =  1.4946
      Cm = -0.0043     CD =  0.06392   =>   CDf =  0.00678    CDp =  0.05715

 Side 1  free  transition at x/c =  0.0460   44
 Side 2 forced transition at x/c =  1.0000   59

   2   rms: 0.1115E-01   max: 0.3771E-01   D at   82  1
       a = 16.500      CL =  1.4945
      Cm = -0.0042     CD =  0.06506   =>   CDf =  0.00633    CDp =  0.05873

 Side 1  free  transition at x/c =  0.0459   45
 Side 2 forced transition at x/c =  1.0000   58

   3   rms: 0.5829E-02   max: -.9648E-01   D at    2  1
       a = 16.500      CL =  1.4929
      Cm = -0.0042     CD =  0.06504   =>   CDf =  0.00666    CDp =  0.05838

 Side 1  free  transition at x/c =  0.0459   45
 Side 2 forced transition at x/c =  1.0000   58

   4   rms: 0.1506E-01   max: -.2687E+00   D at    2  1
       a = 16.500      CL =  1.4929
      Cm = -0.0042     CD =  0.06501   =>   CDf =  0.00665    CDp =  0.05836

 Side 1  free  transition at x/c =  0.0459   45
 Side 2 forced transition at x/c =  1.0000   58

   5   rms: 0.1925E-02   max: -.3282E-01   D at    2  1
       a = 16.500      CL =  1.4929
      Cm = -0.0042     CD =  0.06501   =>   CDf =  0.00665    CDp =  0.05836

 Side 1  free  transition at x/c =  0.0459   45
 Side 2 forced transition at x/c =  1.0000   58

   6   rms: 0.2998E-04   max: -.4510E-03   D at    4  1
       a = 16.500      CL =  1.4929
      Cm = -0.0042     CD =  0.06501   =>   CDf =  0.00665    CDp =  0.05836
 plradd ia,ip,cpol            2           0  9.31582786E-03

 Point added to stored polar  1
 Point written to save file  pt40_Re300k.ext.pol                             
 Dump file unspecified or not available
 Calculating wake trajectory ...
 Calculating source influence matrix ...

 Solving BL system ...

 Side 1  free  transition at x/c =  0.0459   45
 Side 2 forced transition at x/c =  1.0000   58

   1   rms: 0.2919E-01   max: -.1595E+00   T at    2  1   RLX: 0.576
       a = 16.750      CL =  1.4951
      Cm = -0.0042     CD =  0.06670   =>   CDf =  0.00666    CDp =  0.06004

 Side 1  free  transition at x/c =  0.0458   45
 Side 2 forced transition at x/c =  1.0000   58

   2   rms: 0.1172E-01   max: 0.3953E-01   D at   82  1
       a = 16.750      CL =  1.4946
      Cm = -0.0042     CD =  0.06795   =>   CDf =  0.00660    CDp =  0.06135

 Side 1  free  transition at x/c =  0.0457   45
 Side 2 forced transition at x/c =  1.0000   58

   3   rms: 0.1887E-02   max: 0.7708E-02   D at   73  2
       a = 16.750      CL =  1.4931
      Cm = -0.0042     CD =  0.06790   =>   CDf =  0.00655    CDp =  0.06136

 Side 1  free  transition at x/c =  0.0457   45
 Side 2 forced transition at x/c =  1.0000   58

   4   rms: 0.4480E-04   max: 0.4993E-03   D at   73  2
       a = 16.750      CL =  1.4930
      Cm = -0.0042     CD =  0.06788   =>   CDf =  0.00655    CDp =  0.06133
 plradd ia,ip,cpol            3           0  9.31582786E-03

 Point added to stored polar  1
 Point written to save file  pt40_Re300k.ext.pol                             
 Dump file unspecified or not available
 Calculating wake trajectory ...
 Calculating source influence matrix ...

 Solving BL system ...

 Side 1  free  transition at x/c =  0.0457   45
 Side 2 forced transition at x/c =  1.0000   58

   1   rms: 0.2677E-01   max: 0.7855E-01   D at   79  1   RLX: 0.558
       a = 17.000      CL =  1.4948
      Cm = -0.0043     CD =  0.06958   =>   CDf =  0.00655    CDp =  0.06303

 Side 1  free  transition at x/c =  0.0456   45
 Side 2 forced transition at x/c =  1.0000   58

   2   rms: 0.1213E-01   max: 0.4259E-01   D at   82  1
       a = 17.000      CL =  1.4941
      Cm = -0.0044     CD =  0.07098   =>   CDf =  0.00649    CDp =  0.06449

 Side 1  free  transition at x/c =  0.0455   45
 Side 2 forced transition at x/c =  1.0000   58

   3   rms: 0.2073E-02   max: 0.7641E-02   D at   74  2
       a = 17.000      CL =  1.4924
      Cm = -0.0044     CD =  0.07094   =>   CDf =  0.00644    CDp =  0.06450

 Side 1  free  transition at x/c =  0.0455   45
 Side 2 forced transition at x/c =  1.0000   58

   4   rms: 0.5408E-04   max: 0.5585E-03   D at   73  2
       a = 17.000      CL =  1.4923
      Cm = -0.0044     CD =  0.07091   =>   CDf =  0.00643    CDp =  0.06447
 plradd ia,ip,cpol            4           0  7.56592443E-03

 Point added to stored polar  1
 Point written to save file  pt40_Re300k.ext.pol                             
 Dump file unspecified or not available
 Calculating wake trajectory ...
 Calculating source influence matrix ...

 Solving BL system ...

 Side 1  free  transition at x/c =  0.0455   45
 Side 2 forced transition at x/c =  1.0000   58

   1   rms: 0.2652E-01   max: 0.7846E-01   D at   78  1   RLX: 0.540
       a = 17.250      CL =  1.4939
      Cm = -0.0045     CD =  0.07263   =>   CDf =  0.00644    CDp =  0.06619

 Side 1  free  transition at x/c =  0.0454   45
 Side 2 forced transition at x/c =  1.0000   58

   2   rms: 0.1238E-01   max: 0.4515E-01   D at   81  1
       a = 17.250      CL =  1.4929
      Cm = -0.0047     CD =  0.07417   =>   CDf =  0.00638    CDp =  0.06779

 Side 1  free  transition at x/c =  0.0453   45
 Side 2 forced transition at x/c =  1.0000   58

   3   rms: 0.2297E-02   max: 0.9012E-02   D at   81  1
       a = 17.250      CL =  1.4910
      Cm = -0.0047     CD =  0.07412   =>   CDf =  0.00633    CDp =  0.06779

 Side 1  free  transition at x/c =  0.0453   45
 Side 2 forced transition at x/c =  1.0000   58

   4   rms: 0.7567E-04   max: 0.5803E-03   D at   74  2
       a = 17.250      CL =  1.4910
      Cm = -0.0047     CD =  0.07408   =>   CDf =  0.00633    CDp =  0.06775
 plradd ia,ip,cpol            5           0  7.56592443E-03

 Point added to stored polar  1
 Point written to save file  pt40_Re300k.ext.pol                             
 Dump file unspecified or not available
 Calculating wake trajectory ...
 Calculating source influence matrix ...

 Solving BL system ...

 Side 1  free  transition at x/c =  0.0453   45
 Side 2 forced transition at x/c =  1.0000   58

   1   rms: 0.2624E-01   max: 0.7831E-01   D at   77  1   RLX: 0.523
       a = 17.500      CL =  1.4923
      Cm = -0.0049     CD =  0.07581   =>   CDf =  0.00633    CDp =  0.06947

 Side 1  free  transition at x/c =  0.0452   45
 Side 2 forced transition at x/c =  1.0000   58

   2   rms: 0.1238E-01   max: 0.4020E-01   D at   80  1
       a = 17.500      CL =  1.4920
      Cm = -0.0050     CD =  0.07733   =>   CDf =  0.00628    CDp =  0.07104

 Side 1  free  transition at x/c =  0.0451   45
 Side 2 forced transition at x/c =  1.0000   58

   3   rms: 0.2459E-02   max: 0.1074E-01   D at   80  1
       a = 17.500      CL =  1.4900
      Cm = -0.0051     CD =  0.07731   =>   CDf =  0.00624    CDp =  0.07108

 Side 1  free  transition at x/c =  0.0451   45
 Side 2 forced transition at x/c =  1.0000   58

   4   rms: 0.7519E-04   max: 0.1000E-02   D at   74  2
       a = 17.500      CL =  1.4900
      Cm = -0.0051     CD =  0.07726   =>   CDf =  0.00623    CDp =  0.07103
 plradd ia,ip,cpol            6           0  7.56592443E-03

 Point added to stored polar  1
 Point written to save file  pt40_Re300k.ext.pol                             
 Dump file unspecified or not available
 Calculating wake trajectory ...
 Calculating source influence matrix ...

 Solving BL system ...

 Side 1  free  transition at x/c =  0.0451   45
 Side 2 forced transition at x/c =  1.0000   58

   1   rms: 0.2597E-01   max: 0.7505E-01   D at   76  1   RLX: 0.507
       a = 17.750      CL =  1.4914
      Cm = -0.0053     CD =  0.07895   =>   CDf =  0.00624    CDp =  0.07271

 Side 1  free  transition at x/c =  0.0449   45
 Side 2 forced transition at x/c =  1.0000   58

   2   rms: 0.1264E-01   max: 0.3958E-01   D at   79  1
       a = 17.750      CL =  1.4913
      Cm = -0.0055     CD =  0.08054   =>   CDf =  0.00620    CDp =  0.07434

 Side 1  free  transition at x/c =  0.0448   45
 Side 2 forced transition at x/c =  1.0000   58

   3   rms: 0.2356E-02   max: 0.8627E-02   D at   74  2
       a = 17.750      CL =  1.4893
      Cm = -0.0055     CD =  0.08049   =>   CDf =  0.00615    CDp =  0.07434

 Side 1  free  transition at x/c =  0.0448   45
 Side 2 forced transition at x/c =  1.0000   58

   4   rms: 0.7402E-04   max: 0.5272E-03   D at   74  2
       a = 17.750      CL =  1.4893
      Cm = -0.0055     CD =  0.08044   =>   CDf =  0.00615    CDp =  0.07430
 plradd ia,ip,cpol            7           0  7.56592443E-03

 Point added to stored polar  1
 Point written to save file  pt40_Re300k.ext.pol                             
 Dump file unspecified or not available
 Calculating wake trajectory ...
 Calculating source influence matrix ...

 Solving BL system ...

 Side 1  free  transition at x/c =  0.0448   45
 Side 2 forced transition at x/c =  1.0000   58

   1   rms: 0.2614E-01   max: 0.8107E-01   T at   45  1   RLX: 0.493
       a = 18.000      CL =  1.4915
      Cm = -0.0056     CD =  0.08199   =>   CDf =  0.00615    CDp =  0.07583

 Side 1  free  transition at x/c =  0.0447   45
 Side 2 forced transition at x/c =  1.0000   58

   2   rms: 0.1313E-01   max: 0.4058E-01   T at   45  1
       a = 18.000      CL =  1.4923
      Cm = -0.0057     CD =  0.08357   =>   CDf =  0.00574    CDp =  0.07783

 Side 1  free  transition at x/c =  0.0446   46
 Side 2 forced transition at x/c =  1.0000   57

   3   rms: 0.3670E-02   max: -.2838E-01   T at    2  1
       a = 18.000      CL =  1.4896
      Cm = -0.0058     CD =  0.08365   =>   CDf =  0.00608    CDp =  0.07757

 Side 1  free  transition at x/c =  0.0446   46
 Side 2 forced transition at x/c =  1.0000   57

   4   rms: 0.9042E-03   max: -.1131E-01   D at    4  1
       a = 18.000      CL =  1.4896
      Cm = -0.0058     CD =  0.08358   =>   CDf =  0.00607    CDp =  0.07751

 Side 1  free  transition at x/c =  0.0446   46
 Side 2 forced transition at x/c =  1.0000   57

   5   rms: 0.1385E-04   max: 0.8317E-04   C at   57  2
       a = 18.000      CL =  1.4896
      Cm = -0.0058     CD =  0.08358   =>   CDf =  0.00607    CDp =  0.07751
 plradd ia,ip,cpol            8           0  7.56592443E-03

 Point added to stored polar  1
 Point written to save file  pt40_Re300k.ext.pol                             
 Dump file unspecified or not available

.OPERva   c>   Calculating wake trajectory ...
 Calculating source influence matrix ...

 Solving BL system ...

 Side 1  free  transition at x/c =  0.0446   46
 Side 2 forced transition at x/c =  1.0000   57

   1   rms: 0.2777E-01   max: 0.9984E-01   T at   46  1   RLX: 0.481
       a = 18.250      CL =  1.4926
      Cm = -0.0057     CD =  0.08498   =>   CDf =  0.00608    CDp =  0.07890

 Side 1  free  transition at x/c =  0.0444   46
 Side 2 forced transition at x/c =  1.0000   57

   2   rms: 0.1464E-01   max: 0.4969E-01   T at   46  1
       a = 18.250      CL =  1.4932
      Cm = -0.0058     CD =  0.08680   =>   CDf =  0.00605    CDp =  0.08075

 Side 1  free  transition at x/c =  0.0443   46
 Side 2 forced transition at x/c =  1.0000   57

   3   rms: 0.5761E-02   max: 0.1959E-01   D at   80  1
       a = 18.250      CL =  1.4887
      Cm = -0.0062     CD =  0.08715   =>   CDf =  0.00601    CDp =  0.08114

 Side 1  free  transition at x/c =  0.0443   46
 Side 2 forced transition at x/c =  1.0000   57

   4   rms: 0.2147E-03   max: 0.1661E-02   D at   74  2
       a = 18.250      CL =  1.4887
      Cm = -0.0061     CD =  0.08699   =>   CDf =  0.00599    CDp =  0.08100

 Side 1  free  transition at x/c =  0.0443   46
 Side 2 forced transition at x/c =  1.0000   57

   5   rms: 0.1219E-04   max: -.6096E-04   D at   73  2
       a = 18.250      CL =  1.4887
      Cm = -0.0061     CD =  0.08700   =>   CDf =  0.00599    CDp =  0.08101
 plradd ia,ip,cpol            9           0  7.56592443E-03

 Point added to stored polar  1
 Point written to save file  pt40_Re300k.ext.pol                             
 Dump file unspecified or not available
 Calculating wake trajectory ...
 Calculating source influence matrix ...

 Solving BL system ...

 Side 1  free  transition at x/c =  0.0443   46
 Side 2 forced transition at x/c =  1.0000   57

   1   rms: 0.6073E-01   max: 0.2014E+00   T at   46  1   RLX: 0.456
       a = 18.750      CL =  1.4918
      Cm = -0.0061     CD =  0.09033   =>   CDf =  0.00601    CDp =  0.08432

 Side 1  free  transition at x/c =  0.0441   45
 Side 2 forced transition at x/c =  1.0000   57

   2   rms: 0.6333E-01   max: 0.2771E+00   D at   80  1
       a = 18.750      CL =  1.4652
      Cm = -0.0109     CD =  0.09962   =>   CDf =  0.00590    CDp =  0.09372

 Side 1  free  transition at x/c =  0.0441   45
 Side 2 forced transition at x/c =  1.0000   57

   3   rms: 0.1356E-01   max: 0.1012E+00   D at   78  1
       a = 18.750      CL =  1.4567
      Cm = -0.0111     CD =  0.09867   =>   CDf =  0.00561    CDp =  0.09306

 Side 1  free  transition at x/c =  0.0442   45
 Side 2 forced transition at x/c =  1.0000   57

   4   rms: 0.8190E-03   max: 0.1034E-01   D at   77  1
       a = 18.750      CL =  1.4564
      Cm = -0.0110     CD =  0.09828   =>   CDf =  0.00560    CDp =  0.09268

 Side 1  free  transition at x/c =  0.0442   45
 Side 2 forced transition at x/c =  1.0000   57

   5   rms: 0.3004E-04   max: -.1428E-03   D at   76  2
       a = 18.750      CL =  1.4564
      Cm = -0.0110     CD =  0.09827   =>   CDf =  0.00560    CDp =  0.09267
 plradd ia,ip,cpol           10           0  7.56592443E-03

 Point added to stored polar  1
 Point written to save file  pt40_Re300k.ext.pol                             
 Dump file unspecified or not available
 Calculating wake trajectory ...
 Calculating source influence matrix ...

 Solving BL system ...

 Side 1  free  transition at x/c =  0.0442   45
 Side 2 forced transition at x/c =  1.0000   57

   1   rms: 0.7451E-01   max: 0.3169E+00   D at   74  1   RLX: 0.408
       a = 19.250      CL =  1.4429
      Cm = -0.0139     CD =  0.10457   =>   CDf =  0.00561    CDp =  0.09896

 Side 1  free  transition at x/c =  0.0441   45
 Side 2 forced transition at x/c =  1.0000   57

   2   rms: 0.4945E-01   max: 0.2180E+00   D at   76  1
       a = 19.250      CL =  1.4197
      Cm = -0.0188     CD =  0.11387   =>   CDf =  0.00543    CDp =  0.10844

 Side 1  free  transition at x/c =  0.0441   45
 Side 2 forced transition at x/c =  1.0000   57

   3   rms: 0.1023E-01   max: 0.7539E-01   D at   75  1
       a = 19.250      CL =  1.4132
      Cm = -0.0191     CD =  0.11277   =>   CDf =  0.00517    CDp =  0.10761

 Side 1  free  transition at x/c =  0.0442   45
 Side 2 forced transition at x/c =  1.0000   57

   4   rms: 0.4448E-03   max: -.4031E-02   D at   75  1
       a = 19.250      CL =  1.4132
      Cm = -0.0190     CD =  0.11242   =>   CDf =  0.00516    CDp =  0.10726

 Side 1  free  transition at x/c =  0.0442   45
 Side 2 forced transition at x/c =  1.0000   57

   5   rms: 0.2792E-04   max: -.1491E-03   D at   76  2
       a = 19.250      CL =  1.4132
      Cm = -0.0190     CD =  0.11242   =>   CDf =  0.00516    CDp =  0.10726
 plradd ia,ip,cpol           11           0  7.56592443E-03

 Point added to stored polar  1
 Point written to save file  pt40_Re300k.ext.pol                             
 Dump file unspecified or not available
 Calculating wake trajectory ...
 Calculating source influence matrix ...

 Solving BL system ...

 Side 1  free  transition at x/c =  0.0442   45
 Side 2 forced transition at x/c =  1.0000   57

   1   rms: 0.8591E-01   max: 0.3668E+00   D at   70  1   RLX: 0.376
       a = 19.750      CL =  1.3984
      Cm = -0.0227     CD =  0.11961   =>   CDf =  0.00518    CDp =  0.11443

 Side 1  free  transition at x/c =  0.0442   45
 Side 2 forced transition at x/c =  1.0000   57

   2   rms: 0.6464E-01   max: 0.2739E+00   D at   73  1
       a = 19.750      CL =  1.3678
      Cm = -0.0302     CD =  0.13264   =>   CDf =  0.00500    CDp =  0.12764

 Side 1  free  transition at x/c =  0.0442   45
 Side 2 forced transition at x/c =  1.0000   57

   3   rms: 0.1610E-01   max: 0.1180E+00   D at   71  1
       a = 19.750      CL =  1.3586
      Cm = -0.0307     CD =  0.13094   =>   CDf =  0.00472    CDp =  0.12623

 Side 1  free  transition at x/c =  0.0443   46
 Side 2 forced transition at x/c =  1.0000   57

   4   rms: 0.1658E-01   max: 0.6825E-01   D at   70  1
       a = 19.750      CL =  1.3516
      Cm = -0.0325     CD =  0.13304   =>   CDf =  0.00471    CDp =  0.12833

 Side 1  free  transition at x/c =  0.0444   46
 Side 2 forced transition at x/c =  1.0000   57
 idif Ue xi dudx           1  6.66778311E-02  3.89838219E-03   17.103975    
 Uenew xinew           2  2.18371837E-03  1.27673149E-04

   5   rms: 0.8394E-02   max: 0.2958E-01   D at   69  1
       a = 19.750      CL =  1.3465
      Cm = -0.0332     CD =  0.13341   =>   CDf =  0.00495    CDp =  0.12846

 Side 1  free  transition at x/c =  0.0444   45
 Side 2 forced transition at x/c =  1.0000   58

   6   rms: 0.6515E-02   max: -.8689E-01   T at    2  2
       a = 19.750      CL =  1.3442
      Cm = -0.0336     CD =  0.13366   =>   CDf =  0.00462    CDp =  0.12905

 Side 1  free  transition at x/c =  0.0444   45
 Side 2 forced transition at x/c =  1.0000   58

   7   rms: 0.1068E-02   max: 0.2888E-02   D at   67  1
       a = 19.750      CL =  1.3435
      Cm = -0.0337     CD =  0.13365   =>   CDf =  0.00460    CDp =  0.12904

 Side 1  free  transition at x/c =  0.0444   45
 Side 2 forced transition at x/c =  1.0000   58

   8   rms: 0.1463E-03   max: 0.6005E-03   D at   75  2
       a = 19.750      CL =  1.3434
      Cm = -0.0337     CD =  0.13362   =>   CDf =  0.00460    CDp =  0.12902

 Side 1  free  transition at x/c =  0.0444   45
 Side 2 forced transition at x/c =  1.0000   58

   9   rms: 0.1161E-04   max: 0.5395E-04   D at   75  2
       a = 19.750      CL =  1.3434
      Cm = -0.0337     CD =  0.13361   =>   CDf =  0.00460    CDp =  0.12901
 plradd ia,ip,cpol           12           0  7.56592443E-03

 Point added to stored polar  1
 Point written to save file  pt40_Re300k.ext.pol                             
 Dump file unspecified or not available
 Calculating wake trajectory ...
 Calculating source influence matrix ...

 Solving BL system ...

 Side 1  free  transition at x/c =  0.0444   45
 Side 2 forced transition at x/c =  1.0000   58

   1   rms: 0.4137E+00   max: 0.1505E+01   D at   66  1   RLX: 0.311
       a = 20.250      CL =  1.2795
      Cm = -0.0500     CD =  0.15953   =>   CDf =  0.00461    CDp =  0.15491

 Side 1  free  transition at x/c =  0.0450   45
 Side 2 forced transition at x/c =  1.0000   58

   2   rms: 0.1542E+00   max: -.5204E+00   D at   60  1   RLX: 0.961
       a = 20.250      CL =  1.3519
      Cm = -0.0350     CD =  0.13171   =>   CDf =  0.00384    CDp =  0.12787

 Side 1  free  transition at x/c =  0.0442   45
 Side 2 forced transition at x/c =  1.0000   57
 idif Ue xi dudx           1  9.79943126E-02  5.59282303E-03   17.521441    
 Uenew xinew           2  3.19260620E-02  1.82211399E-03

   3   rms: 0.1564E+00   max: 0.5962E+00   D at   69  1
       a = 20.250      CL =  1.2743
      Cm = -0.0520     CD =  0.16447   =>   CDf =  0.00472    CDp =  0.15975

 Side 1  free  transition at x/c =  0.0449   45
 Side 2 forced transition at x/c =  1.0000   58

   4   rms: 0.4351E+00   max: -.1401E+01   D at   62  1   RLX: 0.357
       a = 20.250      CL =  1.3216
      Cm = -0.0196     CD =  0.12638   =>   CDf =  0.00399    CDp =  0.12239

 Side 1  free  transition at x/c =  0.0442   45
 Side 2 forced transition at x/c =  1.0000   57
 idif Ue xi dudx           1  7.97925815E-02  4.61316109E-03   17.296726    
 Uenew xinew           2  1.45716621E-02  8.42452049E-04

   5   rms: 0.1521E+00   max: 0.6544E+00   D at   68  1
       a = 20.250      CL =  1.2990
      Cm = -0.0481     CD =  0.16159   =>   CDf =  0.00499    CDp =  0.15660

 Side 1  free  transition at x/c =  0.0446   45
 Side 2 forced transition at x/c =  1.0000   58

   6   rms: 0.5630E+00   max: -.1902E+01   D at   63  1   RLX: 0.263
       a = 20.250      CL =  1.3559
      Cm = -0.0219     CD =  0.12134   =>   CDf =  0.00402    CDp =  0.11732

 Side 1  free  transition at x/c =  0.0441   45
 Side 2 forced transition at x/c =  1.0000   57
 idif Ue xi dudx           1  7.76941031E-02  4.49895859E-03   17.269352    
 Uenew xinew           2  1.25763975E-02  7.28249550E-04

   7   rms: 0.1827E+00   max: 0.7854E+00   D at   69  1
       a = 20.250      CL =  1.3014
      Cm = -0.0479     CD =  0.16300   =>   CDf =  0.00507    CDp =  0.15793

 Side 1  free  transition at x/c =  0.0446   45
 Side 2 forced transition at x/c =  1.0000   58

   8   rms: 0.6207E+00   max: -.2054E+01   D at   64  1   RLX: 0.243
       a = 20.250      CL =  1.3608
      Cm = -0.0207     CD =  0.11961   =>   CDf =  0.00403    CDp =  0.11557

 Side 1  free  transition at x/c =  0.0440   45
 Side 2 forced transition at x/c =  1.0000   57
 idif Ue xi dudx           1  7.59436712E-02  4.40466404E-03   17.241650    
 Uenew xinew           2  1.09304301E-02  6.33955002E-04

   9   rms: 0.1864E+00   max: 0.8405E+00   D at   70  1
       a = 20.250      CL =  1.3034
      Cm = -0.0472     CD =  0.16214   =>   CDf =  0.00510    CDp =  0.15703

 Side 1  free  transition at x/c =  0.0446   45
 Side 2 forced transition at x/c =  1.0000   58

  10   rms: 0.6580E+00   max: -.2179E+01   D at   64  1   RLX: 0.229
       a = 20.250      CL =  1.3637
      Cm = -0.0204     CD =  0.11898   =>   CDf =  0.00405    CDp =  0.11493

 Side 1  free  transition at x/c =  0.0440   45
 Side 2 forced transition at x/c =  1.0000   57
 idif Ue xi dudx           1  7.63713717E-02  4.42671776E-03   17.252369    
 Uenew xinew           2  1.13177048E-02  6.56008720E-04

  11   rms: 0.1923E+00   max: 0.9483E+00   D at   70  1
       a = 20.250      CL =  1.3026
      Cm = -0.0474     CD =  0.16272   =>   CDf =  0.00512    CDp =  0.15759

 Side 1  free  transition at x/c =  0.0446   45
 Side 2 forced transition at x/c =  1.0000   58

  12   rms: 0.6718E+00   max: -.2225E+01   D at   64  1   RLX: 0.225
       a = 20.250      CL =  1.3620
      Cm = -0.0198     CD =  0.11899   =>   CDf =  0.00405    CDp =  0.11494

 Side 1  free  transition at x/c =  0.0440   45
 Side 2 forced transition at x/c =  1.0000   57
 idif Ue xi dudx           1  7.50139579E-02  4.35411930E-03   17.228273    
 Uenew xinew           2  1.00511517E-02  5.83410263E-04

  13   rms: 0.1877E+00   max: 0.9635E+00   D at   70  1
       a = 20.250      CL =  1.3042
      Cm = -0.0468     CD =  0.16172   =>   CDf =  0.00513    CDp =  0.15659

 Side 1  free  transition at x/c =  0.0446   45
 Side 2 forced transition at x/c =  1.0000   58

  14   rms: 0.7373E+00   max: -.2427E+01   D at   64  1   RLX: 0.206
       a = 20.250      CL =  1.3651
      Cm = -0.0195     CD =  0.11837   =>   CDf =  0.00406    CDp =  0.11431

 Side 1  free  transition at x/c =  0.0440   45
 Side 2 forced transition at x/c =  1.0000   57
 idif Ue xi dudx           1  7.29124919E-02  4.24087048E-03   17.192812    
 Uenew xinew           2  8.08339752E-03  4.70161438E-04

  15   rms: 0.1885E+00   max: 0.9568E+00   D at   70  1
       a = 20.250      CL =  1.3071
      Cm = -0.0462     CD =  0.16118   =>   CDf =  0.00515    CDp =  0.15603

 Side 1  free  transition at x/c =  0.0445   45
 Side 2 forced transition at x/c =  1.0000   58

  16   rms: 0.8647E+00   max: 0.3111E+01   T at    2  2   RLX: 0.177
       a = 20.250      CL =  1.3701
      Cm = -0.0196     CD =  0.11745   =>   CDf =  0.00406    CDp =  0.11338

 Side 1  free  transition at x/c =  0.0440   45
 Side 2 forced transition at x/c =  1.0000   57
 idif Ue xi dudx           1  6.95509091E-02  4.06038761E-03   17.129131    
 Uenew xinew           2  4.96194232E-03  2.89678574E-04

  17   rms: 0.1863E+00   max: 0.9350E+00   D at   70  1
       a = 20.250      CL =  1.3122
      Cm = -0.0453     CD =  0.15979   =>   CDf =  0.00516    CDp =  0.15463

 Side 1  free  transition at x/c =  0.0445   45
 Side 2 forced transition at x/c =  1.0000   58

  18   rms: 0.1045E+01   max: 0.6121E+01   D at    2  2   RLX: 0.152
       a = 20.250      CL =  1.3782
      Cm = -0.0207     CD =  0.11649   =>   CDf =  0.00406    CDp =  0.11243

 Side 1  free  transition at x/c =  0.0440   45
 Side 2 forced transition at x/c =  1.0000   57
 idif Ue xi dudx           1  7.15223551E-02  4.15909290E-03   17.196623    
 Uenew xinew           2  6.67889090E-03  3.88383865E-04

  19   rms: 0.1983E+00   max: 0.9717E+00   D at   71  1
       a = 20.250      CL =  1.3092
      Cm = -0.0459     CD =  0.16123   =>   CDf =  0.00518    CDp =  0.15605

 Side 1  free  transition at x/c =  0.0445   45
 Side 2 forced transition at x/c =  1.0000   58

  20   rms: 0.8937E+00   max: 0.3905E+01   T at    2  2   RLX: 0.173
       a = 20.250      CL =  1.3732
      Cm = -0.0196     CD =  0.11670   =>   CDf =  0.00407    CDp =  0.11263

 Side 1  free  transition at x/c =  0.0440   45
 Side 2 forced transition at x/c =  1.0000   57
 idif Ue xi dudx           1  6.69281408E-02  3.91936302E-03   17.076281    
 Uenew xinew           2  2.53845705E-03  1.48653984E-04

  21   rms: 0.1834E+00   max: 0.9861E+00   D at   71  1
       a = 20.250      CL =  1.3158
      Cm = -0.0444     CD =  0.15862   =>   CDf =  0.00518    CDp =  0.15344

 Side 1  free  transition at x/c =  0.0444   45
 Side 2 forced transition at x/c =  1.0000   58

  22   rms: 0.1417E+01   max: 0.1427E+02   D at    2  2   RLX: 0.071
       a = 20.250      CL =  1.3510
      Cm = -0.0292     CD =  0.12656   =>   CDf =  0.00407    CDp =  0.12249

 Side 1  free  transition at x/c =  0.0441   45
 Side 2 forced transition at x/c =  1.0000   57
 idif Ue xi dudx           1  7.14029223E-02  4.16171551E-03   17.157089    
 Uenew xinew           2  6.70853304E-03  3.91006470E-04

  23   rms: 0.1331E+00   max: 0.8296E+00   D at   70  1
       a = 20.250      CL =  1.3097
      Cm = -0.0445     CD =  0.15751   =>   CDf =  0.00498    CDp =  0.15253

 Side 1  free  transition at x/c =  0.0445   45
 Side 2 forced transition at x/c =  1.0000   58

  24   rms: 0.1225E+01   max: 0.5650E+01   D at    2  2   RLX: 0.127
       a = 20.250      CL =  1.3762
      Cm = -0.0209     CD =  0.11746   =>   CDf =  0.00405    CDp =  0.11340

 Side 1  free  transition at x/c =  0.0440   45
 Side 2 forced transition at x/c =  1.0000   57
 idif Ue xi dudx           1  7.37056211E-02  4.27627563E-03   17.235937    
 Uenew xinew           2  8.71391408E-03  5.05566597E-04

  25   rms: 0.2033E+00   max: 0.9929E+00   D at   71  1
       a = 20.250      CL =  1.3061
      Cm = -0.0467     CD =  0.16240   =>   CDf =  0.00518    CDp =  0.15722

 Side 1  free  transition at x/c =  0.0445   45
 Side 2 forced transition at x/c =  1.0000   58

  26   rms: 0.7461E+00   max: -.2457E+01   D at   65  1   RLX: 0.203
       a = 20.250      CL =  1.3665
      Cm = -0.0191     CD =  0.11742   =>   CDf =  0.00407    CDp =  0.11335

 Side 1  free  transition at x/c =  0.0440   45
 Side 2 forced transition at x/c =  1.0000   57
 idif Ue xi dudx           1  6.57647848E-02  3.86023521E-03   17.036470    
 Uenew xinew           2  1.52521010E-03  8.95261765E-05

  27   rms: 0.1731E+00   max: 0.9422E+00   D at   71  1
       a = 20.250      CL =  1.3172
      Cm = -0.0437     CD =  0.15721   =>   CDf =  0.00517    CDp =  0.15205

 Side 1  free  transition at x/c =  0.0444   45
 Side 2 forced transition at x/c =  1.0000   58

  28   rms: 0.3152E+01   max: 0.4184E+02   T at    2  2   RLX: 0.025
       a = 20.250      CL =  1.3396
      Cm = -0.0331     CD =  0.13141   =>   CDf =  0.00407    CDp =  0.12734

 Side 1  free  transition at x/c =  0.0442   45
 Side 2 forced transition at x/c =  1.0000   57
 idif Ue xi dudx           1  8.54684561E-02  4.90152836E-03   17.437103    
 Uenew xinew           2  1.97182130E-02  1.13081932E-03

  29   rms: 0.1343E+00   max: 0.8057E+00   D at   70  1
       a = 20.250      CL =  1.2893
      Cm = -0.0481     CD =  0.16199   =>   CDf =  0.00487    CDp =  0.15712

 Side 1  free  transition at x/c =  0.0447   45
 Side 2 forced transition at x/c =  1.0000   58

  30   rms: 0.8145E+00   max: -.2721E+01   D at   64  1   RLX: 0.184
       a = 20.250      CL =  1.3363
      Cm = -0.0163     CD =  0.12166   =>   CDf =  0.00406    CDp =  0.11760

 Side 1  free  transition at x/c =  0.0441   45
 Side 2 forced transition at x/c =  1.0000   57
 idif Ue xi dudx           1  6.86259642E-02  4.01854515E-03   17.077316    
 Uenew xinew           2  4.23237588E-03  2.47836113E-04

  31   rms: 0.1585E+00   max: 0.8398E+00   D at   70  1
       a = 20.250      CL =  1.3140
      Cm = -0.0448     CD =  0.15793   =>   CDf =  0.00512    CDp =  0.15281

 Side 1  free  transition at x/c =  0.0445   45
 Side 2 forced transition at x/c =  1.0000   58

  32   rms: 0.1243E+01   max: 0.8521E+01   D at    2  2   RLX: 0.112
       a = 20.250      CL =  1.3702
      Cm = -0.0241     CD =  0.12023   =>   CDf =  0.00405    CDp =  0.11617

 Side 1  free  transition at x/c =  0.0440   45
 Side 2 forced transition at x/c =  1.0000   57
 idif Ue xi dudx           1  7.73018450E-02  4.47070599E-03   17.290747    
 Uenew xinew           2  1.21034700E-02  6.99996948E-04

  33   rms: 0.1914E+00   max: 0.9798E+00   D at   70  1
       a = 20.250      CL =  1.3013
      Cm = -0.0475     CD =  0.16312   =>   CDf =  0.00511    CDp =  0.15801

 Side 1  free  transition at x/c =  0.0446   45
 Side 2 forced transition at x/c =  1.0000   58

  34   rms: 0.6774E+00   max: -.2224E+01   D at   64  1   RLX: 0.225
       a = 20.250      CL =  1.3610
      Cm = -0.0190     CD =  0.11877   =>   CDf =  0.00406    CDp =  0.11472

 Side 1  free  transition at x/c =  0.0440   45
 Side 2 forced transition at x/c =  1.0000   57
 idif Ue xi dudx           1  7.42867142E-02  4.31585312E-03   17.212521    
 Uenew xinew           2  9.38330404E-03  5.45144081E-04

  35   rms: 0.1877E+00   max: 0.9650E+00   D at   70  1
       a = 20.250      CL =  1.3051
      Cm = -0.0466     CD =  0.16159   =>   CDf =  0.00514    CDp =  0.15645

 Side 1  free  transition at x/c =  0.0445   45
 Side 2 forced transition at x/c =  1.0000   58

  36   rms: 0.9569E+00   max: -.3155E+01   D at   65  1   RLX: 0.158
       a = 20.250      CL =  1.3653
      Cm = -0.0192     CD =  0.11785   =>   CDf =  0.00406    CDp =  0.11379

 Side 1  free  transition at x/c =  0.0440   45
 Side 2 forced transition at x/c =  1.0000   57
 idif Ue xi dudx           1  7.06707686E-02  4.12178040E-03   17.145689    
 Uenew xinew           2  6.01936039E-03  3.51071358E-04

  37   rms: 0.1849E+00   max: 0.9502E+00   D at   70  1
       a = 20.250      CL =  1.3104
      Cm = -0.0455     CD =  0.16017   =>   CDf =  0.00515    CDp =  0.15502

 Side 1  free  transition at x/c =  0.0445   45
 Side 2 forced transition at x/c =  1.0000   58

  38   rms: 0.9305E+00   max: 0.4547E+01   D at    2  2   RLX: 0.168
       a = 20.250      CL =  1.3757
      Cm = -0.0201     CD =  0.11695   =>   CDf =  0.00406    CDp =  0.11289

 Side 1  free  transition at x/c =  0.0440   45
 Side 2 forced transition at x/c =  1.0000   57
 idif Ue xi dudx           1  7.20038414E-02  4.18686867E-03   17.197540    
 Uenew xinew           2  7.15692202E-03  4.16159630E-04

  39   rms: 0.1979E+00   max: 0.9631E+00   D at   70  1
       a = 20.250      CL =  1.3087
      Cm = -0.0462     CD =  0.16152   =>   CDf =  0.00517    CDp =  0.15635

 Side 1  free  transition at x/c =  0.0445   45
 Side 2 forced transition at x/c =  1.0000   58

  40   rms: 0.9410E+00   max: 0.3818E+01   T at    2  2   RLX: 0.163
       a = 20.250      CL =  1.3718
      Cm = -0.0200     CD =  0.11704   =>   CDf =  0.00406    CDp =  0.11297

 Side 1  free  transition at x/c =  0.0440   45
 Side 2 forced transition at x/c =  1.0000   57
 idif Ue xi dudx           1  6.56256601E-02  3.85248661E-03   17.034624    
 Uenew xinew           2  1.39305019E-03  8.17775726E-05

  41   rms: 0.1777E+00   max: 0.9231E+00   D at   71  1
       a = 20.250      CL =  1.3178
      Cm = -0.0439     CD =  0.15780   =>   CDf =  0.00517    CDp =  0.15263

 Side 1  free  transition at x/c =  0.0444   45
 Side 2 forced transition at x/c =  1.0000   58

  42   rms: 0.2309E+01   max: 0.3178E+02   T at    2  2   RLX: 0.033
       a = 20.250      CL =  1.3383
      Cm = -0.0340     CD =  0.13204   =>   CDf =  0.00406    CDp =  0.12797

 Side 1  free  transition at x/c =  0.0442   45
 Side 2 forced transition at x/c =  1.0000   57
 idif Ue xi dudx           1  8.34085345E-02  4.79292870E-03   17.402414    
 Uenew xinew           2  1.77890901E-02  1.02221966E-03

  43   rms: 0.1249E+00   max: 0.7686E+00   D at   70  1
       a = 20.250      CL =  1.2928
      Cm = -0.0476     CD =  0.16086   =>   CDf =  0.00485    CDp =  0.15602

 Side 1  free  transition at x/c =  0.0447   45
 Side 2 forced transition at x/c =  1.0000   58

  44   rms: 0.8856E+00   max: -.2970E+01   D at   63  1   RLX: 0.168
       a = 20.250      CL =  1.3417
      Cm = -0.0174     CD =  0.12133   =>   CDf =  0.00405    CDp =  0.11727

 Side 1  free  transition at x/c =  0.0441   45
 Side 2 forced transition at x/c =  1.0000   57
 idif Ue xi dudx           1  7.15478361E-02  4.17256355E-03   17.147213    
 Uenew xinew           2  6.89068483E-03  4.01854515E-04

  45   rms: 0.1694E+00   max: 0.8676E+00   D at   70  1
       a = 20.250      CL =  1.3097
      Cm = -0.0458     CD =  0.15987   =>   CDf =  0.00512    CDp =  0.15475

 Side 1  free  transition at x/c =  0.0445   45
 Side 2 forced transition at x/c =  1.0000   58

  46   rms: 0.9701E+00   max: 0.4163E+01   D at    2  2   RLX: 0.158
       a = 20.250      CL =  1.3728
      Cm = -0.0206     CD =  0.11767   =>   CDf =  0.00406    CDp =  0.11362

 Side 1  free  transition at x/c =  0.0440   45
 Side 2 forced transition at x/c =  1.0000   57
 idif Ue xi dudx           1  7.34747946E-02  4.26840782E-03   17.213631    
 Uenew xinew           2  8.56720284E-03  4.97698784E-04

  47   rms: 0.1977E+00   max: 0.9683E+00   D at   70  1
       a = 20.250      CL =  1.3067
      Cm = -0.0467     CD =  0.16222   =>   CDf =  0.00516    CDp =  0.15706

 Side 1  free  transition at x/c =  0.0445   45
 Side 2 forced transition at x/c =  1.0000   58

  48   rms: 0.7424E+00   max: 0.2502E+01   D at    2  2   RLX: 0.206
       a = 20.250      CL =  1.3690
      Cm = -0.0197     CD =  0.11752   =>   CDf =  0.00406    CDp =  0.11346

 Side 1  free  transition at x/c =  0.0440   45
 Side 2 forced transition at x/c =  1.0000   57
 idif Ue xi dudx           1  6.90625310E-02  4.03547287E-03   17.113863    
 Uenew xinew           2  4.53113206E-03  2.64763832E-04

  49   rms: 0.1821E+00   max: 0.9219E+00   D at   70  1
       a = 20.250      CL =  1.3128
      Cm = -0.0450     CD =  0.15926   =>   CDf =  0.00515    CDp =  0.15411

 Side 1  free  transition at x/c =  0.0445   45
 Side 2 forced transition at x/c =  1.0000   58

  50   rms: 0.1264E+01   max: 0.8066E+01   D at    2  2   RLX: 0.117
       a = 20.250      CL =  1.3741
      Cm = -0.0224     CD =  0.11816   =>   CDf =  0.00406    CDp =  0.11410

 Side 1  free  transition at x/c =  0.0440   45
 Side 2 forced transition at x/c =  1.0000   57
 idif Ue xi dudx           1  6.93409815E-02  4.04632092E-03   17.136797    
 Uenew xinew           2  4.72310465E-03  2.75611877E-04

  51   rms: 0.1823E+00   max: 0.9270E+00   D at   70  1
       a = 20.250      CL =  1.3125
      Cm = -0.0450     CD =  0.15947   =>   CDf =  0.00515    CDp =  0.15432

 Side 1  free  transition at x/c =  0.0445   45
 Side 2 forced transition at x/c =  1.0000   58

  52   rms: 0.1113E+01   max: 0.6890E+01   T at    2  2   RLX: 0.136
       a = 20.250      CL =  1.3753
      Cm = -0.0213     CD =  0.11728   =>   CDf =  0.00407    CDp =  0.11321

 Side 1  free  transition at x/c =  0.0440   45
 Side 2 forced transition at x/c =  1.0000   57
 idif Ue xi dudx           1  6.96929693E-02  4.06336784E-03   17.151529    
 Uenew xinew           2  5.01954602E-03  2.92658806E-04

  53   rms: 0.1878E+00   max: 0.9818E+00   D at   71  1
       a = 20.250      CL =  1.3118
      Cm = -0.0451     CD =  0.15989   =>   CDf =  0.00517    CDp =  0.15472

 Side 1  free  transition at x/c =  0.0445   45
 Side 2 forced transition at x/c =  1.0000   58

  54   rms: 0.1036E+01   max: 0.6024E+01   T at    2  2   RLX: 0.153
       a = 20.250      CL =  1.3779
      Cm = -0.0200     CD =  0.11612   =>   CDf =  0.00407    CDp =  0.11205

 Side 1  free  transition at x/c =  0.0440   45
 Side 2 forced transition at x/c =  1.0000   57
 idif Ue xi dudx           1  7.09864423E-02  4.12976742E-03   17.188969    
 Uenew xinew           2  6.17184304E-03  3.59058380E-04

  55   rms: 0.1981E+00   max: 0.1058E+01   D at   71  1
       a = 20.250      CL =  1.3098
      Cm = -0.0457     CD =  0.16102   =>   CDf =  0.00519    CDp =  0.15583

 Side 1  free  transition at x/c =  0.0445   45
 Side 2 forced transition at x/c =  1.0000   58

  56   rms: 0.9257E+00   max: 0.4345E+01   D at    2  2   RLX: 0.168
       a = 20.250      CL =  1.3754
      Cm = -0.0196     CD =  0.11663   =>   CDf =  0.00407    CDp =  0.11256

 Side 1  free  transition at x/c =  0.0440   45
 Side 2 forced transition at x/c =  1.0000   57
 idif Ue xi dudx           1  6.80857822E-02  3.97861004E-03   17.112957    
 Uenew xinew           2  3.55780078E-03  2.07901001E-04

  57   rms: 0.1886E+00   max: 0.1047E+01   D at   71  1
       a = 20.250      CL =  1.3141
      Cm = -0.0447     CD =  0.15921   =>   CDf =  0.00518    CDp =  0.15404

 Side 1  free  transition at x/c =  0.0445   45
 Side 2 forced transition at x/c =  1.0000   58

  58   rms: 0.1380E+01   max: 0.1075E+02   D at    2  2   RLX: 0.090
       a = 20.250      CL =  1.3624
      Cm = -0.0252     CD =  0.12196   =>   CDf =  0.00407    CDp =  0.11789

 Side 1  free  transition at x/c =  0.0441   45
 Side 2 forced transition at x/c =  1.0000   57

  59   rms: 0.1433E+00   max: 0.9141E+00   D at   71  1
       a = 20.250      CL =  1.3227
      Cm = -0.0423     CD =  0.15486   =>   CDf =  0.00475    CDp =  0.15011

 Side 1  free  transition at x/c =  0.0444   46
 Side 2 forced transition at x/c =  1.0000   57

  60   rms: 0.1852E+01   max: -.6229E+01   D at   67  1   RLX: 0.080
       a = 20.250      CL =  1.4022
      Cm = -0.0242     CD =  0.11510   =>   CDf =  0.00435    CDp =  0.11075

 Side 1  free  transition at x/c =  0.0439   45
 Side 2 forced transition at x/c =  1.0000   57
 idif Ue xi dudx           1  6.97765350E-02  4.07552719E-03   17.120861    
 Uenew xinew           2  5.21874940E-03  3.04818153E-04

  61   rms: 0.2166E+00   max: 0.1101E+01   D at   71  1
       a = 20.250      CL =  1.3111
      Cm = -0.0460     CD =  0.16233   =>   CDf =  0.00523    CDp =  0.15711

 Side 1  free  transition at x/c =  0.0445   45
 Side 2 forced transition at x/c =  1.0000   58

  62   rms: 0.8683E+00   max: 0.4674E+01   T at    2  2   RLX: 0.182
       a = 20.250      CL =  1.3766
      Cm = -0.0193     CD =  0.11591   =>   CDf =  0.00408    CDp =  0.11184

 Side 1  free  transition at x/c =  0.0440   45
 Side 2 forced transition at x/c =  1.0000   57

  63   rms: 0.1749E+00   max: 0.9797E+00   D at   71  1
       a = 20.250      CL =  1.3224
      Cm = -0.0424     CD =  0.15603   =>   CDf =  0.00486    CDp =  0.15117

 Side 1  free  transition at x/c =  0.0444   46
 Side 2 forced transition at x/c =  1.0000   57
 idif Ue xi dudx           1  8.29615518E-02  4.77051735E-03   17.390472    
 Uenew xinew           2  1.73871387E-02  9.99808311E-04

  64   rms: 0.8313E+02   max: 0.2974E+03   D at   69  1   RLX: 0.001
       a = 20.250      CL =  1.2995
      Cm = -0.0482     CD =  0.15018   =>   CDf =  0.00467    CDp =  0.14551

 Side 1  free  transition at x/c =  0.0447   45
 Side 2 forced transition at x/c =  1.0000   58

  65   rms: 0.1640E+00   max: -.6065E+00   D at   61  1   RLX: 0.824
       a = 20.250      CL =  1.3614
      Cm = -0.0325     CD =  0.12917   =>   CDf =  0.00388    CDp =  0.12529

 Side 1  free  transition at x/c =  0.0441   45
 Side 2 forced transition at x/c =  1.0000   57
 idif Ue xi dudx           1  9.00963545E-02  5.16390800E-03   17.447319    
 Uenew xinew           2  2.43075863E-02  1.39319897E-03

  66   rms: 0.1667E+00   max: 0.7181E+00   D at   70  1
       a = 20.250      CL =  1.2846
      Cm = -0.0503     CD =  0.16338   =>   CDf =  0.00489    CDp =  0.15849

 Side 1  free  transition at x/c =  0.0448   45
 Side 2 forced transition at x/c =  1.0000   58

  67   rms: 0.4431E+00   max: -.1448E+01   D at   63  1   RLX: 0.345
       a = 20.250      CL =  1.3378
      Cm = -0.0206     CD =  0.12397   =>   CDf =  0.00400    CDp =  0.11997

 Side 1  free  transition at x/c =  0.0441   45
 Side 2 forced transition at x/c =  1.0000   57
 idif Ue xi dudx           1  7.94903338E-02  4.59623337E-03   17.294668    
 Uenew xinew           2  1.42771695E-02  8.25524330E-04

  68   rms: 0.1653E+00   max: 0.7761E+00   D at   69  1
       a = 20.250      CL =  1.2988
      Cm = -0.0480     CD =  0.16183   =>   CDf =  0.00503    CDp =  0.15681

 Side 1  free  transition at x/c =  0.0446   45
 Side 2 forced transition at x/c =  1.0000   58

  69   rms: 0.5476E+00   max: -.1821E+01   D at   63  1   RLX: 0.275
       a = 20.250      CL =  1.3573
      Cm = -0.0209     CD =  0.12066   =>   CDf =  0.00403    CDp =  0.11663

 Side 1  free  transition at x/c =  0.0440   45
 Side 2 forced transition at x/c =  1.0000   57
 idif Ue xi dudx           1  7.64978603E-02  4.43470478E-03   17.249821    
 Uenew xinew           2  1.14538074E-02  6.63995743E-04

  70   rms: 0.1834E+00   max: 0.8330E+00   D at   69  1
       a = 20.250      CL =  1.3030
      Cm = -0.0475     CD =  0.16235   =>   CDf =  0.00509    CDp =  0.15726

 Side 1  free  transition at x/c =  0.0446   45
 Side 2 forced transition at x/c =  1.0000   58

  71   rms: 0.6304E+00   max: -.2081E+01   D at   64  1   RLX: 0.240
       a = 20.250      CL =  1.3635
      Cm = -0.0205     CD =  0.11916   =>   CDf =  0.00404    CDp =  0.11512

 Side 1  free  transition at x/c =  0.0440   45
 Side 2 forced transition at x/c =  1.0000   57
 idif Ue xi dudx           1  7.65929744E-02  4.43875790E-03   17.255497    
 Uenew xinew           2  1.15275150E-02  6.68048859E-04

  72   rms: 0.1918E+00   max: 0.9004E+00   D at   70  1
       a = 20.250      CL =  1.3023
      Cm = -0.0475     CD =  0.16271   =>   CDf =  0.00512    CDp =  0.15759

 Side 1  free  transition at x/c =  0.0446   45
 Side 2 forced transition at x/c =  1.0000   58

  73   rms: 0.6292E+00   max: -.2077E+01   D at   64  1   RLX: 0.241
       a = 20.250      CL =  1.3624
      Cm = -0.0198     CD =  0.11906   =>   CDf =  0.00405    CDp =  0.11501

 Side 1  free  transition at x/c =  0.0440   45
 Side 2 forced transition at x/c =  1.0000   57
 idif Ue xi dudx           1  7.55300224E-02  4.38177586E-03   17.237309    
 Uenew xinew           2  1.05331475E-02  6.11066818E-04

  74   rms: 0.1896E+00   max: 0.9459E+00   D at   70  1
       a = 20.250      CL =  1.3035
      Cm = -0.0470     CD =  0.16202   =>   CDf =  0.00513    CDp =  0.15689

 Side 1  free  transition at x/c =  0.0446   45
 Side 2 forced transition at x/c =  1.0000   58

  75   rms: 0.8216E+00   max: -.2713E+01   D at   64  1   RLX: 0.184
       a = 20.250      CL =  1.3631
      Cm = -0.0192     CD =  0.11834   =>   CDf =  0.00406    CDp =  0.11428

 Side 1  free  transition at x/c =  0.0440   45
 Side 2 forced transition at x/c =  1.0000   57
 idif Ue xi dudx           1  7.35491291E-02  4.27556038E-03   17.202219    
 Uenew xinew           2  8.68456345E-03  5.04851341E-04

  76   rms: 0.1885E+00   max: 0.9648E+00   D at   70  1
       a = 20.250      CL =  1.3062
      Cm = -0.0464     CD =  0.16141   =>   CDf =  0.00514    CDp =  0.15627

 Side 1  free  transition at x/c =  0.0445   45
 Side 2 forced transition at x/c =  1.0000   58

  77   rms: 0.8046E+00   max: 0.2680E+01   T at    2  2   RLX: 0.190
       a = 20.250      CL =  1.3686
      Cm = -0.0196     CD =  0.11793   =>   CDf =  0.00406    CDp =  0.11387

 Side 1  free  transition at x/c =  0.0440   45
 Side 2 forced transition at x/c =  1.0000   57
 idif Ue xi dudx           1  6.99785054E-02  4.08387184E-03   17.135334    
 Uenew xinew           2  5.36614936E-03  3.13162804E-04

  78   rms: 0.1856E+00   max: 0.9374E+00   D at   70  1
       a = 20.250      CL =  1.3116
      Cm = -0.0454     CD =  0.15991   =>   CDf =  0.00515    CDp =  0.15475

 Side 1  free  transition at x/c =  0.0445   45
 Side 2 forced transition at x/c =  1.0000   58

  79   rms: 0.1115E+01   max: 0.6071E+01   T at    2  2   RLX: 0.141
       a = 20.250      CL =  1.3771
      Cm = -0.0207     CD =  0.11643   =>   CDf =  0.00406    CDp =  0.11237

 Side 1  free  transition at x/c =  0.0440   45
 Side 2 forced transition at x/c =  1.0000   57
 idif Ue xi dudx           1  7.04146549E-02  4.10187244E-03   17.166466    
 Uenew xinew           2  5.68490522E-03  3.31163406E-04

  80   rms: 0.1946E+00   max: 0.9468E+00   D at   70  1
       a = 20.250      CL =  1.3108
      Cm = -0.0456     CD =  0.16072   =>   CDf =  0.00517    CDp =  0.15554

 Side 1  free  transition at x/c =  0.0445   45
 Side 2 forced transition at x/c =  1.0000   58

  81   rms: 0.9627E+00   max: 0.4942E+01   D at    2  2   RLX: 0.162
       a = 20.250      CL =  1.3760
      Cm = -0.0200     CD =  0.11648   =>   CDf =  0.00407    CDp =  0.11241

 Side 1  free  transition at x/c =  0.0440   45
 Side 2 forced transition at x/c =  1.0000   57
 idif Ue xi dudx           1  6.88237101E-02  4.01782990E-03   17.129574    
 Uenew xinew           2  4.23307484E-03  2.47120857E-04

  82   rms: 0.1903E+00   max: 0.9920E+00   D at   71  1
       a = 20.250      CL =  1.3129
      Cm = -0.0449     CD =  0.15960   =>   CDf =  0.00518    CDp =  0.15442

 Side 1  free  transition at x/c =  0.0445   45
 Side 2 forced transition at x/c =  1.0000   58

  83   rms: 0.1221E+01   max: 0.8234E+01   T at    2  2   RLX: 0.116
       a = 20.250      CL =  1.3693
      Cm = -0.0223     CD =  0.11898   =>   CDf =  0.00407    CDp =  0.11490

 Side 1  free  transition at x/c =  0.0440   45
 Side 2 forced transition at x/c =  1.0000   57
 idif Ue xi dudx           1  6.42756671E-02  3.78203392E-03   16.995001    
 Uenew xinew           2  1.92466381E-04  1.13248825E-05

  84   rms: 0.1644E+00   max: 0.9493E+00   D at   71  1
       a = 20.250      CL =  1.3199
      Cm = -0.0432     CD =  0.15656   =>   CDf =  0.00514    CDp =  0.15142

 Side 1  free  transition at x/c =  0.0444   45
 Side 2 forced transition at x/c =  1.0000   58

  85   rms: 0.1166E+02   max: 0.2049E+03   T at    2  2   RLX: 0.006
       a = 20.250      CL =  1.3265
      Cm = -0.0397     CD =  0.13833   =>   CDf =  0.00406    CDp =  0.13427

 Side 1  free  transition at x/c =  0.0444   46
 Side 2 forced transition at x/c =  1.0000   57
 idif Ue xi dudx           1  6.62275031E-02  4.08232212E-03   16.222998    
 Uenew xinew           2  5.05529810E-03  3.11613083E-04

  86   rms: 0.2018E+01   max: -.2674E+02   T at    2  1   RLX: 0.019
       a = 20.250      CL =  1.3151
      Cm = -0.0427     CD =  0.14339   =>   CDf =  0.00469    CDp =  0.13870

 Side 1  free  transition at x/c =  0.0445   45
 Side 2 forced transition at x/c =  1.0000   58

  87   rms: 0.4383E+00   max: 0.3433E+01   D at    2  2   RLX: 0.275
       a = 20.250      CL =  1.3674
      Cm = -0.0301     CD =  0.12499   =>   CDf =  0.00401    CDp =  0.12097

 Side 1  free  transition at x/c =  0.0441   45
 Side 2 forced transition at x/c =  1.0000   57
 idif Ue xi dudx           1  7.39785805E-02  4.29069996E-03   17.241611    
 Uenew xinew           2  8.96548107E-03  5.19990921E-04

  88   rms: 0.1523E+00   max: 0.8341E+00   D at   70  1
       a = 20.250      CL =  1.3066
      Cm = -0.0455     CD =  0.15883   =>   CDf =  0.00501    CDp =  0.15382

 Side 1  free  transition at x/c =  0.0445   45
 Side 2 forced transition at x/c =  1.0000   58

  89   rms: 0.7454E+00   max: 0.2545E+01   D at    2  2   RLX: 0.205
       a = 20.250      CL =  1.3713
      Cm = -0.0210     CD =  0.11866   =>   CDf =  0.00404    CDp =  0.11461

 Side 1  free  transition at x/c =  0.0440   45
 Side 2 forced transition at x/c =  1.0000   57
 idif Ue xi dudx           1  7.33130351E-02  4.25839424E-03   17.216122    
 Uenew xinew           2  8.39604810E-03  4.87685204E-04

  90   rms: 0.1939E+00   max: 0.9379E+00   D at   70  1
       a = 20.250      CL =  1.3066
      Cm = -0.0465     CD =  0.16167   =>   CDf =  0.00516    CDp =  0.15651

 Side 1  free  transition at x/c =  0.0445   45
 Side 2 forced transition at x/c =  1.0000   58

  91   rms: 0.8618E+00   max: 0.2930E+01   T at    2  2   RLX: 0.176
       a = 20.250      CL =  1.3674
      Cm = -0.0195     CD =  0.11736   =>   CDf =  0.00406    CDp =  0.11330

 Side 1  free  transition at x/c =  0.0440   45
 Side 2 forced transition at x/c =  1.0000   57

  92   rms: 0.1700E+00   max: 0.9146E+00   D at   71  1
       a = 20.250      CL =  1.3202
      Cm = -0.0434     CD =  0.15668   =>   CDf =  0.00483    CDp =  0.15185

 Side 1  free  transition at x/c =  0.0444   46
 Side 2 forced transition at x/c =  1.0000   57

  93   rms: 0.2342E+01   max: -.2487E+02   D at    3  1   RLX: 0.020
       a = 20.250      CL =  1.3382
      Cm = -0.0368     CD =  0.13410   =>   CDf =  0.00436    CDp =  0.12974

 Side 1  free  transition at x/c =  0.0442   46
 Side 2 forced transition at x/c =  1.0000   57
 idif Ue xi dudx           1  0.11760172      6.75082207E-03   17.420355    
 Uenew xinew           2  5.19146249E-02  2.98011303E-03

  94   rms: 0.2017E+00   max: 0.1021E+01   D at   70  1
       a = 20.250      CL =  1.2478
      Cm = -0.0615     CD =  0.17977   =>   CDf =  0.00479    CDp =  0.17498

 MRCHDU: Convergence failed at  61  side 1    Res =  0.2710E+01
 MRCHDU: Convergence failed at  62  side 1    Res =  0.1804E+01
 MRCHDU: Convergence failed at  63  side 1    Res =  0.1083E+01
 MRCHDU: Convergence failed at  64  side 1    Res =  0.1915E+01
 MRCHDU: Convergence failed at  65  side 1    Res =  0.9019E+01
 MRCHDU: Convergence failed at  66  side 1    Res =  0.2095E+01
 MRCHDU: Convergence failed at  67  side 1    Res =  0.1200E+01
 Side 1  free  transition at x/c =  0.0452   45
 Side 2 forced transition at x/c =  1.0000   58

  95   rms: 0.2029E+00   max: -.7253E+00   D at   57  1   RLX: 0.689
       a = 20.250      CL =  1.3636
      Cm = -0.0676     CD =  0.14298   =>   CDf =  0.00395    CDp =  0.13903

 Side 1  free  transition at x/c =  0.0447   45
 Side 2 forced transition at x/c =  1.0000   58

  96   rms: 0.1557E+00   max: -.6344E+00   D at   59  1   RLX: 0.788
       a = 20.250      CL =  1.3686
      Cm = -0.0345     CD =  0.12834   =>   CDf =  0.00393    CDp =  0.12441

 Side 1  free  transition at x/c =  0.0441   45
 Side 2 forced transition at x/c =  1.0000   57
 idif Ue xi dudx           1  9.00320187E-02  5.16295433E-03   17.438082    
 Uenew xinew           2  2.42780875E-02  1.39224529E-03

  97   rms: 0.1587E+00   max: 0.6470E+00   D at   68  1
       a = 20.250      CL =  1.2845
      Cm = -0.0498     CD =  0.16168   =>   CDf =  0.00485    CDp =  0.15683

 Side 1  free  transition at x/c =  0.0448   45
 Side 2 forced transition at x/c =  1.0000   58

  98   rms: 0.4801E+00   max: -.1566E+01   D at   63  1   RLX: 0.319
       a = 20.250      CL =  1.3378
      Cm = -0.0200     CD =  0.12391   =>   CDf =  0.00401    CDp =  0.11990

 Side 1  free  transition at x/c =  0.0441   45
 Side 2 forced transition at x/c =  1.0000   57
 idif Ue xi dudx           1  7.87165016E-02  4.55510616E-03   17.280937    
 Uenew xinew           2  1.35551179E-02  7.84397125E-04

  99   rms: 0.1677E+00   max: 0.7311E+00   D at   69  1
       a = 20.250      CL =  1.3002
      Cm = -0.0480     CD =  0.16203   =>   CDf =  0.00504    CDp =  0.15699

 Side 1  free  transition at x/c =  0.0446   45
 Side 2 forced transition at x/c =  1.0000   58

 100   rms: 0.5668E+00   max: -.1891E+01   D at   63  1   RLX: 0.264
       a = 20.250      CL =  1.3585
      Cm = -0.0212     CD =  0.12043   =>   CDf =  0.00403    CDp =  0.11640

 Side 1  free  transition at x/c =  0.0440   45
 Side 2 forced transition at x/c =  1.0000   57
 idif Ue xi dudx           1  7.60368481E-02  4.41002846E-03   17.241804    
 Uenew xinew           2  1.10230204E-02  6.39319420E-04

 101   rms: 0.1828E+00   max: 0.8247E+00   D at   69  1
       a = 20.250      CL =  1.3035
      Cm = -0.0474     CD =  0.16206   =>   CDf =  0.00509    CDp =  0.15697

 Side 1  free  transition at x/c =  0.0446   45
 Side 2 forced transition at x/c =  1.0000   58

 102   rms: 0.6620E+00   max: -.2192E+01   D at   64  1   RLX: 0.228
       a = 20.250      CL =  1.3641
      Cm = -0.0208     CD =  0.11905   =>   CDf =  0.00404    CDp =  0.11501

 Side 1  free  transition at x/c =  0.0440   45
 Side 2 forced transition at x/c =  1.0000   57
 idif Ue xi dudx           1  7.66946599E-02  4.44412231E-03   17.257549    
 Uenew xinew           2  1.16214631E-02  6.73413277E-04

 103   rms: 0.1923E+00   max: 0.9092E+00   D at   70  1
       a = 20.250      CL =  1.3021
      Cm = -0.0475     CD =  0.16281   =>   CDf =  0.00512    CDp =  0.15769

 Side 1  free  transition at x/c =  0.0446   45
 Side 2 forced transition at x/c =  1.0000   58

 104   rms: 0.6407E+00   max: -.2120E+01   D at   64  1   RLX: 0.236
       a = 20.250      CL =  1.3617
      Cm = -0.0199     CD =  0.11904   =>   CDf =  0.00405    CDp =  0.11499

 Side 1  free  transition at x/c =  0.0440   45
 Side 2 forced transition at x/c =  1.0000   57
 idif Ue xi dudx           1  7.59300739E-02  4.40347195E-03   17.243229    
 Uenew xinew           2  1.09108761E-02  6.32762909E-04

 105   rms: 0.1894E+00   max: 0.9594E+00   D at   70  1
       a = 20.250      CL =  1.3031
      Cm = -0.0472     CD =  0.16225   =>   CDf =  0.00512    CDp =  0.15713

 Side 1  free  transition at x/c =  0.0446   45
 Side 2 forced transition at x/c =  1.0000   58

 106   rms: 0.6695E+00   max: -.2209E+01   D at   64  1   RLX: 0.226
       a = 20.250      CL =  1.3633
      Cm = -0.0197     CD =  0.11883   =>   CDf =  0.00405    CDp =  0.11478

 Side 1  free  transition at x/c =  0.0440   45
 Side 2 forced transition at x/c =  1.0000   57
 idif Ue xi dudx           1  7.47988522E-02  4.34243679E-03   17.225086    
 Uenew xinew           2  9.84806009E-03  5.71727753E-04

 107   rms: 0.1896E+00   max: 0.9696E+00   D at   70  1
       a = 20.250      CL =  1.3045
      Cm = -0.0468     CD =  0.16182   =>   CDf =  0.00513    CDp =  0.15669

 Side 1  free  transition at x/c =  0.0446   45
 Side 2 forced transition at x/c =  1.0000   58

 108   rms: 0.6889E+00   max: -.2262E+01   D at   64  1   RLX: 0.221
       a = 20.250      CL =  1.3661
      Cm = -0.0196     CD =  0.11832   =>   CDf =  0.00406    CDp =  0.11426

 Side 1  free  transition at x/c =  0.0440   45
 Side 2 forced transition at x/c =  1.0000   57
 idif Ue xi dudx           1  7.15982914E-02  4.17077541E-03   17.166662    
 Uenew xinew           2  6.86780456E-03  4.00066376E-04

 109   rms: 0.1855E+00   max: 0.9415E+00   D at   70  1
       a = 20.250      CL =  1.3091
      Cm = -0.0458     CD =  0.16041   =>   CDf =  0.00514    CDp =  0.15527

 Side 1  free  transition at x/c =  0.0445   45
 Side 2 forced transition at x/c =  1.0000   58

 110   rms: 0.1075E+01   max: 0.4695E+01   T at    2  2   RLX: 0.142
       a = 20.250      CL =  1.3712
      Cm = -0.0199     CD =  0.11678   =>   CDf =  0.00406    CDp =  0.11272

 Side 1  free  transition at x/c =  0.0440   45
 Side 2 forced transition at x/c =  1.0000   57
 idif Ue xi dudx           1  6.89842626E-02  4.02963161E-03   17.119247    
 Uenew xinew           2  4.43255948E-03  2.58922577E-04

 111   rms: 0.1859E+00   max: 0.9329E+00   D at   70  1
       a = 20.250      CL =  1.3129
      Cm = -0.0451     CD =  0.15968   =>   CDf =  0.00517    CDp =  0.15451

 Side 1  free  transition at x/c =  0.0445   45
 Side 2 forced transition at x/c =  1.0000   58

 112   rms: 0.1106E+01   max: 0.7208E+01   T at    2  2   RLX: 0.131
       a = 20.250      CL =  1.3720
      Cm = -0.0222     CD =  0.11838   =>   CDf =  0.00407    CDp =  0.11431

 Side 1  free  transition at x/c =  0.0440   45
 Side 2 forced transition at x/c =  1.0000   57
 idif Ue xi dudx           1  6.76532686E-02  3.95834446E-03   17.091305    
 Uenew xinew           2  3.20693408E-03  1.87635422E-04

 113   rms: 0.1752E+00   max: 0.9029E+00   D at   71  1
       a = 20.250      CL =  1.3149
      Cm = -0.0443     CD =  0.15834   =>   CDf =  0.00514    CDp =  0.15320

 Side 1  free  transition at x/c =  0.0444   45
 Side 2 forced transition at x/c =  1.0000   58

 114   rms: 0.1369E+01   max: 0.1180E+02   D at    2  2   RLX: 0.083
       a = 20.250      CL =  1.3588
      Cm = -0.0272     CD =  0.12401   =>   CDf =  0.00406    CDp =  0.11995

 Side 1  free  transition at x/c =  0.0441   45
 Side 2 forced transition at x/c =  1.0000   57
 idif Ue xi dudx           1  6.97167963E-02  4.07159328E-03   17.122730    
 Uenew xinew           2  5.15195960E-03  3.00884247E-04

 115   rms: 0.1464E+00   max: 0.8629E+00   D at   70  1
       a = 20.250      CL =  1.3122
      Cm = -0.0443     CD =  0.15781   =>   CDf =  0.00504    CDp =  0.15277

 Side 1  free  transition at x/c =  0.0445   45
 Side 2 forced transition at x/c =  1.0000   58

 116   rms: 0.1337E+01   max: 0.7878E+01   T at    2  2   RLX: 0.119
       a = 20.250      CL =  1.3801
      Cm = -0.0212     CD =  0.11695   =>   CDf =  0.00406    CDp =  0.11290

 Side 1  free  transition at x/c =  0.0440   45
 Side 2 forced transition at x/c =  1.0000   57
 idif Ue xi dudx           1  7.35240281E-02  4.26423550E-03   17.242018    
 Uenew xinew           2  8.50939192E-03  4.93526459E-04

 117   rms: 0.2055E+00   max: 0.1009E+01   D at   71  1
       a = 20.250      CL =  1.3061
      Cm = -0.0465     CD =  0.16233   =>   CDf =  0.00519    CDp =  0.15714

 Side 1  free  transition at x/c =  0.0445   45
 Side 2 forced transition at x/c =  1.0000   58

 118   rms: 0.8202E+00   max: 0.2761E+01   T at    2  2   RLX: 0.186
       a = 20.250      CL =  1.3668
      Cm = -0.0185     CD =  0.11701   =>   CDf =  0.00408    CDp =  0.11293

 Side 1  free  transition at x/c =  0.0440   45
 Side 2 forced transition at x/c =  1.0000   57
 idif Ue xi dudx           1  6.76509365E-02  3.95870209E-03   17.089170    
 Uenew xinew           2  3.21264518E-03  1.87993050E-04

 119   rms: 0.1791E+00   max: 0.9905E+00   D at   71  1
       a = 20.250      CL =  1.3145
      Cm = -0.0444     CD =  0.15844   =>   CDf =  0.00517    CDp =  0.15327

 Side 1  free  transition at x/c =  0.0445   45
 Side 2 forced transition at x/c =  1.0000   58

 120   rms: 0.1680E+01   max: 0.1423E+02   D at    2  2   RLX: 0.069
       a = 20.250      CL =  1.3585
      Cm = -0.0266     CD =  0.12368   =>   CDf =  0.00407    CDp =  0.11962

 Side 1  free  transition at x/c =  0.0441   45
 Side 2 forced transition at x/c =  1.0000   57
 idif Ue xi dudx           1  6.53940961E-02  3.84533405E-03   17.006090    
 Uenew xinew           2  1.26907974E-03  7.46250153E-05

 121   rms: 0.1399E+00   max: 0.8608E+00   D at   71  1
       a = 20.250      CL =  1.3186
      Cm = -0.0431     CD =  0.15592   =>   CDf =  0.00505    CDp =  0.15087

 Side 1  free  transition at x/c =  0.0444   45
 Side 2 forced transition at x/c =  1.0000   58

 122   rms: 0.2729E+01   max: 0.3930E+02   T at    2  2   RLX: 0.027
       a = 20.250      CL =  1.3409
      Cm = -0.0363     CD =  0.13355   =>   CDf =  0.00405    CDp =  0.12950

 Side 1  free  transition at x/c =  0.0442   45
 Side 2 forced transition at x/c =  1.0000   57
 idif Ue xi dudx           1  8.38347748E-02  4.81355190E-03   17.416407    
 Uenew xinew           2  1.81625746E-02  1.04284286E-03

 123   rms: 0.1201E+00   max: 0.6781E+00   D at   70  1
       a = 20.250      CL =  1.2929
      Cm = -0.0479     CD =  0.16082   =>   CDf =  0.00481    CDp =  0.15601

 Side 1  free  transition at x/c =  0.0447   45
 Side 2 forced transition at x/c =  1.0000   58

 124   rms: 0.9508E+00   max: -.3214E+01   D at   63  1   RLX: 0.156
       a = 20.250      CL =  1.3403
      Cm = -0.0181     CD =  0.12150   =>   CDf =  0.00404    CDp =  0.11746

 Side 1  free  transition at x/c =  0.0441   45
 Side 2 forced transition at x/c =  1.0000   57
 idif Ue xi dudx           1  7.17998594E-02  4.18591499E-03   17.152727    
 Uenew xinew           2  7.12191453E-03  4.15205956E-04

 125   rms: 0.1671E+00   max: 0.8055E+00   D at   70  1
       a = 20.250      CL =  1.3095
      Cm = -0.0459     CD =  0.15988   =>   CDf =  0.00511    CDp =  0.15478

 Side 1  free  transition at x/c =  0.0445   45
 Side 2 forced transition at x/c =  1.0000   58

 126   rms: 0.9029E+00   max: 0.3742E+01   D at    2  2   RLX: 0.169
       a = 20.250      CL =  1.3726
      Cm = -0.0209     CD =  0.11802   =>   CDf =  0.00405    CDp =  0.11397

 Side 1  free  transition at x/c =  0.0440   45
 Side 2 forced transition at x/c =  1.0000   57
 idif Ue xi dudx           1  7.45719969E-02  4.32682037E-03   17.234827    
 Uenew xinew           2  9.58448276E-03  5.56111336E-04

 127   rms: 0.1999E+00   max: 0.9565E+00   D at   70  1
       a = 20.250      CL =  1.3053
      Cm = -0.0472     CD =  0.16284   =>   CDf =  0.00515    CDp =  0.15769

 Side 1  free  transition at x/c =  0.0445   45
 Side 2 forced transition at x/c =  1.0000   58

 128   rms: 0.7527E+00   max: -.2472E+01   D at   64  1   RLX: 0.202
       a = 20.250      CL =  1.3663
      Cm = -0.0197     CD =  0.11784   =>   CDf =  0.00406    CDp =  0.11378

 Side 1  free  transition at x/c =  0.0440   45
 Side 2 forced transition at x/c =  1.0000   57
 idif Ue xi dudx           1  6.83396533E-02  3.99851799E-03   17.091246    
 Uenew xinew           2  3.89353884E-03  2.27808952E-04

 129   rms: 0.1770E+00   max: 0.9068E+00   D at   70  1
       a = 20.250      CL =  1.3138
      Cm = -0.0447     CD =  0.15863   =>   CDf =  0.00514    CDp =  0.15349

 Side 1  free  transition at x/c =  0.0445   45
 Side 2 forced transition at x/c =  1.0000   58

 130   rms: 0.1353E+01   max: 0.9893E+01   T at    2  2   RLX: 0.097
       a = 20.250      CL =  1.3667
      Cm = -0.0248     CD =  0.12108   =>   CDf =  0.00406    CDp =  0.11702

 Side 1  free  transition at x/c =  0.0440   45
 Side 2 forced transition at x/c =  1.0000   57
 idif Ue xi dudx           1  7.06215501E-02  4.11677361E-03   17.154587    
 Uenew xinew           2  5.93659468E-03  3.46064568E-04

 131   rms: 0.1672E+00   max: 0.9120E+00   D at   70  1
       a = 20.250      CL =  1.3106
      Cm = -0.0450     CD =  0.15919   =>   CDf =  0.00509    CDp =  0.15410

 Side 1  free  transition at x/c =  0.0445   45
 Side 2 forced transition at x/c =  1.0000   58

 132   rms: 0.1123E+01   max: 0.5686E+01   T at    2  2   RLX: 0.139
       a = 20.250      CL =  1.3767
      Cm = -0.0205     CD =  0.11683   =>   CDf =  0.00406    CDp =  0.11277

 Side 1  free  transition at x/c =  0.0440   45
 Side 2 forced transition at x/c =  1.0000   57
 idif Ue xi dudx           1  7.31277987E-02  4.24516201E-03   17.226151    
 Uenew xinew           2  8.17299820E-03  4.74452972E-04

 133   rms: 0.2019E+00   max: 0.9726E+00   D at   71  1
       a = 20.250      CL =  1.3067
      Cm = -0.0464     CD =  0.16198   =>   CDf =  0.00518    CDp =  0.15680

 Side 1  free  transition at x/c =  0.0445   45
 Side 2 forced transition at x/c =  1.0000   58

 134   rms: 0.8251E+00   max: 0.2898E+01   T at    2  2   RLX: 0.185
       a = 20.250      CL =  1.3681
      Cm = -0.0189     CD =  0.11710   =>   CDf =  0.00407    CDp =  0.11303

 Side 1  free  transition at x/c =  0.0440   45
 Side 2 forced transition at x/c =  1.0000   57
 idif Ue xi dudx           1  6.47753924E-02  3.80837917E-03   17.008652    
 Uenew xinew           2  6.40718208E-04  3.76701355E-05

 135   rms: 0.1736E+00   max: 0.9470E+00   D at   71  1
       a = 20.250      CL =  1.3190
      Cm = -0.0436     CD =  0.15715   =>   CDf =  0.00517    CDp =  0.15198

 Side 1  free  transition at x/c =  0.0444   45
 Side 2 forced transition at x/c =  1.0000   58

 136   rms: 0.4679E+01   max: 0.7678E+02   D at    2  2   RLX: 0.014
       a = 20.250      CL =  1.3306
      Cm = -0.0375     CD =  0.13593   =>   CDf =  0.00406    CDp =  0.13187

 Side 1  free  transition at x/c =  0.0443   46
 Side 2 forced transition at x/c =  1.0000   57
 idif Ue xi dudx           1  8.44866484E-02  4.95541096E-03   17.049374    
 Uenew xinew           2  2.01984253E-02  1.18470192E-03

 137   rms: 0.4081E+00   max: -.2163E+01   T at    2  1   RLX: 0.231
       a = 20.250      CL =  1.2895
      Cm = -0.0488     CD =  0.15533   =>   CDf =  0.00475    CDp =  0.15058

 Side 1  free  transition at x/c =  0.0447   45
 Side 2 forced transition at x/c =  1.0000   58

 138   rms: 0.1631E+00   max: -.5987E+00   D at   60  1   RLX: 0.835
       a = 20.250      CL =  1.3569
      Cm = -0.0334     CD =  0.12996   =>   CDf =  0.00387    CDp =  0.12609

 Side 1  free  transition at x/c =  0.0442   45
 Side 2 forced transition at x/c =  1.0000   57
 idif Ue xi dudx           1  8.98052976E-02  5.14483452E-03   17.455429    
 Uenew xinew           2  2.39859503E-02  1.37412548E-03

 139   rms: 0.1528E+00   max: 0.6426E+00   D at   69  1
       a = 20.250      CL =  1.2852
      Cm = -0.0499     CD =  0.16206   =>   CDf =  0.00484    CDp =  0.15721

 Side 1  free  transition at x/c =  0.0448   45
 Side 2 forced transition at x/c =  1.0000   58

 140   rms: 0.4762E+00   max: -.1561E+01   D at   63  1   RLX: 0.320
       a = 20.250      CL =  1.3379
      Cm = -0.0204     CD =  0.12414   =>   CDf =  0.00400    CDp =  0.12014

 Side 1  free  transition at x/c =  0.0441   45
 Side 2 forced transition at x/c =  1.0000   57
 idif Ue xi dudx           1  7.96139613E-02  4.60326672E-03   17.295101    
 Uenew xinew           2  1.43991690E-02  8.32557678E-04

 141   rms: 0.1689E+00   max: 0.7667E+00   D at   69  1
       a = 20.250      CL =  1.2989
[...]
       a = 21.750      CL =  0.7090
      Cm = -0.0739     CD =  0.23982   =>   CDf =  0.00305    CDp =  0.23677

 Side 1  free  transition at x/c =  0.0487   40
 Side 2 forced transition at x/c =  1.0000   63

  99   rms: 0.4378E+00   max: -.3083E+01   T at   41  1   RLX: 0.162
       a = 21.750      CL =  0.7059
      Cm = -0.0785     CD =  0.23245   =>   CDf =  0.00306    CDp =  0.22939

 Side 1  free  transition at x/c =  0.0469   40
 Side 2 forced transition at x/c =  1.0000   63
 idif Ue xi dudx           1  8.17602277E-02  2.98166275E-03   27.421019    
 Uenew xinew           2  4.08605032E-04  1.49011612E-05

 100   rms: 0.6348E-01   max: -.3753E+00   D at   41  1
       a = 21.750      CL =  0.6838
      Cm = -0.0733     CD =  0.21892   =>   CDf =  0.00313    CDp =  0.21579

 Side 1  free  transition at x/c =  0.0482   39
 Side 2 forced transition at x/c =  1.0000   64

 101   rms: 0.9181E-01   max: 0.1041E+01   T at    2  2   RLX: 0.825
       a = 21.750      CL =  0.6948
      Cm = -0.0711     CD =  0.22613   =>   CDf =  0.00297    CDp =  0.22316

 Side 1  free  transition at x/c =  0.0478   40
 Side 2 forced transition at x/c =  1.0000   63

 102   rms: 0.3456E-01   max: -.3894E+00   D at   40  1
       a = 21.750      CL =  0.7072
      Cm = -0.0733     CD =  0.23403   =>   CDf =  0.00306    CDp =  0.23097

 Side 1  free  transition at x/c =  0.0489   40
 Side 2 forced transition at x/c =  1.0000   63

 103   rms: 0.7377E-01   max: -.4844E+00   T at   41  1
       a = 21.750      CL =  0.6943
      Cm = -0.0746     CD =  0.23058   =>   CDf =  0.00306    CDp =  0.22752

 Side 1  free  transition at x/c =  0.0478   40
 Side 2 forced transition at x/c =  1.0000   63

 104   rms: 0.5367E-01   max: -.3179E+00   T at   40  1
       a = 21.750      CL =  0.6895
      Cm = -0.0726     CD =  0.21844   =>   CDf =  0.00305    CDp =  0.21539

 Side 1  free  transition at x/c =  0.0485   40
 Side 2 forced transition at x/c =  1.0000   63

 105   rms: 0.7076E-01   max: -.4069E+00   T at   40  1
       a = 21.750      CL =  0.7059
      Cm = -0.0709     CD =  0.22167   =>   CDf =  0.00306    CDp =  0.21861

 Side 1  free  transition at x/c =  0.0484   40
 Side 2 forced transition at x/c =  1.0000   63

 106   rms: 0.5936E-01   max: 0.4098E+00   D at   41  1
       a = 21.750      CL =  0.7137
      Cm = -0.0733     CD =  0.23900   =>   CDf =  0.00307    CDp =  0.23593

 Side 1  free  transition at x/c =  0.0489   40
 Side 2 forced transition at x/c =  1.0000   63

 107   rms: 0.1713E+00   max: -.9288E+00   T at   41  1   RLX: 0.538
       a = 21.750      CL =  0.6901
      Cm = -0.0746     CD =  0.23390   =>   CDf =  0.00306    CDp =  0.23084

 Side 1  free  transition at x/c =  0.0470   40
 Side 2 forced transition at x/c =  1.0000   63

 108   rms: 0.5738E-01   max: -.2944E+00   T at   40  1
       a = 21.750      CL =  0.6857
      Cm = -0.0730     CD =  0.21812   =>   CDf =  0.00305    CDp =  0.21507

 Side 1  free  transition at x/c =  0.0484   40
 Side 2 forced transition at x/c =  1.0000   63

 109   rms: 0.1117E+00   max: -.9204E+00   T at   40  1   RLX: 0.543
       a = 21.750      CL =  0.6913
      Cm = -0.0698     CD =  0.23054   =>   CDf =  0.00306    CDp =  0.22748

 Side 1  free  transition at x/c =  0.0478   40
 Side 2 forced transition at x/c =  1.0000   63

 110   rms: 0.5158E-01   max: -.4137E+00   D at   40  1
       a = 21.750      CL =  0.7084
      Cm = -0.0738     CD =  0.23732   =>   CDf =  0.00307    CDp =  0.23425

 Side 1  free  transition at x/c =  0.0487   40
 Side 2 forced transition at x/c =  1.0000   63

 111   rms: 0.1822E+00   max: -.1232E+01   T at   41  1   RLX: 0.406
       a = 21.750      CL =  0.6902
      Cm = -0.0738     CD =  0.23356   =>   CDf =  0.00306    CDp =  0.23050

 Side 1  free  transition at x/c =  0.0468   40
 Side 2 forced transition at x/c =  1.0000   63

 112   rms: 0.5645E-01   max: -.3429E+00   D at   41  1
       a = 21.750      CL =  0.6862
      Cm = -0.0733     CD =  0.22082   =>   CDf =  0.00305    CDp =  0.21778

 Side 1  free  transition at x/c =  0.0482   40
 Side 2 forced transition at x/c =  1.0000   63

 113   rms: 0.6552E-01   max: -.5520E+00   T at   40  1   RLX: 0.906
       a = 21.750      CL =  0.6982
      Cm = -0.0716     CD =  0.22448   =>   CDf =  0.00306    CDp =  0.22142

 Side 1  free  transition at x/c =  0.0478   40
 Side 2 forced transition at x/c =  1.0000   63

 114   rms: 0.3825E-01   max: -.3886E+00   D at   40  1
       a = 21.750      CL =  0.7080
      Cm = -0.0735     CD =  0.23515   =>   CDf =  0.00306    CDp =  0.23209

 Side 1  free  transition at x/c =  0.0488   40
 Side 2 forced transition at x/c =  1.0000   63

 115   rms: 0.8299E-01   max: -.5485E+00   T at   41  1   RLX: 0.912
       a = 21.750      CL =  0.6944
      Cm = -0.0749     CD =  0.23209   =>   CDf =  0.00306    CDp =  0.22903

 Side 1  free  transition at x/c =  0.0475   40
 Side 2 forced transition at x/c =  1.0000   63

 116   rms: 0.5554E-01   max: -.3013E+00   T at   40  1
       a = 21.750      CL =  0.6877
      Cm = -0.0728     CD =  0.21835   =>   CDf =  0.00305    CDp =  0.21530

 Side 1  free  transition at x/c =  0.0485   40
 Side 2 forced transition at x/c =  1.0000   63

 117   rms: 0.9851E-01   max: -.6824E+00   T at   40  1   RLX: 0.733
       a = 21.750      CL =  0.6992
      Cm = -0.0702     CD =  0.22597   =>   CDf =  0.00306    CDp =  0.22291

 Side 1  free  transition at x/c =  0.0478   40
 Side 2 forced transition at x/c =  1.0000   63

 118   rms: 0.7870E-01   max: 0.5339E+00   D at   41  1
       a = 21.750      CL =  0.7097
      Cm = -0.0745     CD =  0.24271   =>   CDf =  0.00307    CDp =  0.23964

 Side 1  free  transition at x/c =  0.0483   40
 Side 2 forced transition at x/c =  1.0000   63

 119   rms: 0.5336E-01   max: -.4723E+00   T at   40  1
       a = 21.750      CL =  0.7128
      Cm = -0.0722     CD =  0.23366   =>   CDf =  0.00305    CDp =  0.23061

 Side 1  free  transition at x/c =  0.0480   40
 Side 2 forced transition at x/c =  1.0000   63

 120   rms: 0.5576E-01   max: -.3499E+00   D at   40  1
       a = 21.750      CL =  0.7110
      Cm = -0.0738     CD =  0.23969   =>   CDf =  0.00306    CDp =  0.23662

 Side 1  free  transition at x/c =  0.0488   40
 Side 2 forced transition at x/c =  1.0000   63

 121   rms: 0.1806E+00   max: -.1140E+01   T at   41  1   RLX: 0.439
       a = 21.750      CL =  0.6916
      Cm = -0.0744     CD =  0.23319   =>   CDf =  0.00306    CDp =  0.23013

 Side 1  free  transition at x/c =  0.0469   40
 Side 2 forced transition at x/c =  1.0000   63

 122   rms: 0.5664E-01   max: -.3193E+00   T at   40  1
       a = 21.750      CL =  0.6861
      Cm = -0.0732     CD =  0.21997   =>   CDf =  0.00305    CDp =  0.21692

 Side 1  free  transition at x/c =  0.0483   40
 Side 2 forced transition at x/c =  1.0000   63

 123   rms: 0.7646E-01   max: -.6432E+00   T at   40  1   RLX: 0.777
       a = 21.750      CL =  0.6959
      Cm = -0.0709     CD =  0.22618   =>   CDf =  0.00306    CDp =  0.22313

 Side 1  free  transition at x/c =  0.0478   40
 Side 2 forced transition at x/c =  1.0000   63

 124   rms: 0.4309E-01   max: -.4004E+00   D at   40  1
       a = 21.750      CL =  0.7081
      Cm = -0.0736     CD =  0.23596   =>   CDf =  0.00306    CDp =  0.23290

 Side 1  free  transition at x/c =  0.0488   40
 Side 2 forced transition at x/c =  1.0000   63

 125   rms: 0.9860E-01   max: -.6635E+00   T at   41  1   RLX: 0.754
       a = 21.750      CL =  0.6942
      Cm = -0.0749     CD =  0.23336   =>   CDf =  0.00306    CDp =  0.23030

 Side 1  free  transition at x/c =  0.0473   40
 Side 2 forced transition at x/c =  1.0000   63

 126   rms: 0.5602E-01   max: -.3123E+00   D at   41  1
       a = 21.750      CL =  0.6870
      Cm = -0.0731     CD =  0.21905   =>   CDf =  0.00305    CDp =  0.21600

 Side 1  free  transition at x/c =  0.0484   40
 Side 2 forced transition at x/c =  1.0000   63

 127   rms: 0.9276E-01   max: -.7245E+00   T at   40  1   RLX: 0.690
       a = 21.750      CL =  0.6960
      Cm = -0.0704     CD =  0.22742   =>   CDf =  0.00306    CDp =  0.22436

 Side 1  free  transition at x/c =  0.0478   40
 Side 2 forced transition at x/c =  1.0000   63

 128   rms: 0.5768E-01   max: -.4083E+00   D at   40  1
       a = 21.750      CL =  0.7090
      Cm = -0.0740     CD =  0.23871   =>   CDf =  0.00307    CDp =  0.23564

 Side 1  free  transition at x/c =  0.0486   40
 Side 2 forced transition at x/c =  1.0000   63

 129   rms: 0.1848E+01   max: 0.1285E+02   T at   40  1   RLX: 0.040
       a = 21.750      CL =  0.6834
      Cm = -0.0718     CD =  0.23121   =>   CDf =  0.00306    CDp =  0.22815

 Side 1  free  transition at x/c =  0.0465   40
 Side 2 forced transition at x/c =  1.0000   63

 130   rms: 0.5512E-01   max: -.3797E+00   T at   40  1
       a = 21.750      CL =  0.6866
      Cm = -0.0735     CD =  0.22251   =>   CDf =  0.00304    CDp =  0.21947

 Side 1  free  transition at x/c =  0.0480   40
 Side 2 forced transition at x/c =  1.0000   63

 131   rms: 0.5331E-01   max: -.4423E+00   T at   40  1
       a = 21.750      CL =  0.6991
      Cm = -0.0722     CD =  0.22318   =>   CDf =  0.00306    CDp =  0.22013

 Side 1  free  transition at x/c =  0.0482   40
 Side 2 forced transition at x/c =  1.0000   63

 132   rms: 0.2500E-01   max: -.3030E+00   D at   40  1
       a = 21.750      CL =  0.7074
      Cm = -0.0727     CD =  0.23098   =>   CDf =  0.00306    CDp =  0.22792

 Side 1  free  transition at x/c =  0.0488   40
 Side 2 forced transition at x/c =  1.0000   63

 133   rms: 0.3580E+00   max: 0.2065E+01   T at   41  1   RLX: 0.318
       a = 21.750      CL =  0.7262
      Cm = -0.0696     CD =  0.22347   =>   CDf =  0.00306    CDp =  0.22041

 Side 1  free  transition at x/c =  0.0480   40
 Side 2 forced transition at x/c =  1.0000   63
 idif Ue xi dudx           1  8.97410884E-02  3.28588486E-03   27.311087    
 Uenew xinew           2  8.71560350E-03  3.19123268E-04

 134   rms: 0.2689E+00   max: 0.1462E+01   D at   41  1
       a = 21.750      CL =  0.7005
      Cm = -0.0793     CD =  0.27385   =>   CDf =  0.00317    CDp =  0.27068

 Side 1  free  transition at x/c =  0.0454   39
 Side 2 forced transition at x/c =  1.0000   64

 135   rms: 0.1286E+00   max: -.5775E+00   D at   39  1   RLX: 0.866
       a = 21.750      CL =  0.6874
      Cm = -0.0703     CD =  0.25030   =>   CDf =  0.00295    CDp =  0.24734

 Side 1  free  transition at x/c =  0.0472   40
 Side 2 forced transition at x/c =  1.0000   63

 136   rms: 0.3091E-01   max: -.2909E+00   T at   40  1
       a = 21.750      CL =  0.6991
      Cm = -0.0735     CD =  0.23155   =>   CDf =  0.00305    CDp =  0.22850

 Side 1  free  transition at x/c =  0.0485   40
 Side 2 forced transition at x/c =  1.0000   63

 137   rms: 0.2910E+00   max: -.2196E+01   T at   40  1   RLX: 0.228
       a = 21.750      CL =  0.7070
      Cm = -0.0724     CD =  0.22957   =>   CDf =  0.00306    CDp =  0.22651

 Side 1  free  transition at x/c =  0.0478   40
 Side 2 forced transition at x/c =  1.0000   63

 138   rms: 0.7309E-01   max: 0.4543E+00   D at   41  1
       a = 21.750      CL =  0.7097
      Cm = -0.0745     CD =  0.24234   =>   CDf =  0.00307    CDp =  0.23928

 Side 1  free  transition at x/c =  0.0484   40
 Side 2 forced transition at x/c =  1.0000   63

 139   rms: 0.7045E-01   max: -.6287E+00   T at   40  1   RLX: 0.795
       a = 21.750      CL =  0.7080
      Cm = -0.0705     CD =  0.22993   =>   CDf =  0.00305    CDp =  0.22688

 Side 1  free  transition at x/c =  0.0478   40
 Side 2 forced transition at x/c =  1.0000   63

 140   rms: 0.7740E-01   max: 0.4537E+00   D at   41  1
       a = 21.750      CL =  0.7103
      Cm = -0.0746     CD =  0.24416   =>   CDf =  0.00306    CDp =  0.24110

 Side 1  free  transition at x/c =  0.0484   40
 Side 2 forced transition at x/c =  1.0000   63

 141   rms: 0.6987E-01   max: -.6098E+00   T at   40  1   RLX: 0.820
       a = 21.750      CL =  0.7088
      Cm = -0.0706     CD =  0.23013   =>   CDf =  0.00305    CDp =  0.22708

 Side 1  free  transition at x/c =  0.0478   40
 Side 2 forced transition at x/c =  1.0000   63

 142   rms: 0.8011E-01   max: 0.4700E+00   D at   41  1
       a = 21.750      CL =  0.7104
      Cm = -0.0747     CD =  0.24459   =>   CDf =  0.00307    CDp =  0.24152

 Side 1  free  transition at x/c =  0.0483   40
 Side 2 forced transition at x/c =  1.0000   63

 143   rms: 0.6037E-01   max: -.5316E+00   T at   40  1   RLX: 0.941
       a = 21.750      CL =  0.7115
      Cm = -0.0715     CD =  0.23200   =>   CDf =  0.00305    CDp =  0.22894

 Side 1  free  transition at x/c =  0.0479   40
 Side 2 forced transition at x/c =  1.0000   63

 144   rms: 0.7220E-01   max: 0.4202E+00   D at   41  1
       a = 21.750      CL =  0.7106
      Cm = -0.0744     CD =  0.24288   =>   CDf =  0.00307    CDp =  0.23982

 Side 1  free  transition at x/c =  0.0485   40
 Side 2 forced transition at x/c =  1.0000   63

 145   rms: 0.1217E+00   max: -.9670E+00   T at   40  1   RLX: 0.517
       a = 21.750      CL =  0.7037
      Cm = -0.0684     CD =  0.22517   =>   CDf =  0.00306    CDp =  0.22212

 Side 1  free  transition at x/c =  0.0478   40
 Side 2 forced transition at x/c =  1.0000   63

 146   rms: 0.1081E+00   max: 0.6365E+00   D at   41  1
       a = 21.750      CL =  0.7099
      Cm = -0.0757     CD =  0.25010   =>   CDf =  0.00307    CDp =  0.24704

 Side 1  free  transition at x/c =  0.0478   40
 Side 2 forced transition at x/c =  1.0000   63

 147   rms: 0.4382E-01   max: -.2810E+00   T at   40  1
       a = 21.750      CL =  0.7093
      Cm = -0.0737     CD =  0.23873   =>   CDf =  0.00305    CDp =  0.23568

 Side 1  free  transition at x/c =  0.0487   40
 Side 2 forced transition at x/c =  1.0000   63

 148   rms: 0.1586E+00   max: 0.1055E+01   T at   41  1   RLX: 0.553
       a = 21.750      CL =  0.7202
      Cm = -0.0716     CD =  0.22332   =>   CDf =  0.00306    CDp =  0.22026

 Side 1  free  transition at x/c =  0.0479   40
 Side 2 forced transition at x/c =  1.0000   63

 149   rms: 0.1608E+00   max: 0.9465E+00   D at   41  1
       a = 21.750      CL =  0.7081
      Cm = -0.0767     CD =  0.25693   =>   CDf =  0.00307    CDp =  0.25386

 Side 1  free  transition at x/c =  0.0470   40
 Side 2 forced transition at x/c =  1.0000   63

 150   rms: 0.7300E-01   max: -.3500E+00   D at   40  1
       a = 21.750      CL =  0.7102
      Cm = -0.0748     CD =  0.24600   =>   CDf =  0.00305    CDp =  0.24295

 Side 1  free  transition at x/c =  0.0485   40
 Side 2 forced transition at x/c =  1.0000   63

 151   rms: 0.1672E+01   max: 0.1427E+02   T at   40  1   RLX: 0.039
       a = 21.750      CL =  0.7059
      Cm = -0.0781     CD =  0.22995   =>   CDf =  0.00306    CDp =  0.22690

 Side 1  free  transition at x/c =  0.0466   40
 Side 2 forced transition at x/c =  1.0000   63
 idif Ue xi dudx           1  8.28122273E-02  3.02064419E-03   27.415419    
 Uenew xinew           2  1.47721404E-03  5.38825989E-05

 152   rms: 0.6417E-01   max: -.4137E+00   D at   41  1
       a = 21.750      CL =  0.6839
      Cm = -0.0735     CD =  0.22090   =>   CDf =  0.00313    CDp =  0.21777

 Side 1  free  transition at x/c =  0.0480   39
 Side 2 forced transition at x/c =  1.0000   64

 153   rms: 0.5789E-01   max: -.4661E+00   T at   39  1
       a = 21.750      CL =  0.6982
      Cm = -0.0722     CD =  0.22254   =>   CDf =  0.00297    CDp =  0.21957

 Side 1  free  transition at x/c =  0.0481   40
 Side 2 forced transition at x/c =  1.0000   63

 154   rms: 0.2419E-01   max: -.3207E+00   D at   40  1
       a = 21.750      CL =  0.7066
      Cm = -0.0728     CD =  0.23103   =>   CDf =  0.00306    CDp =  0.22797

 Side 1  free  transition at x/c =  0.0487   40
 Side 2 forced transition at x/c =  1.0000   63

 155   rms: 0.1187E+00   max: 0.7071E+00   T at   41  1   RLX: 0.848
       a = 21.750      CL =  0.7198
      Cm = -0.0692     CD =  0.22278   =>   CDf =  0.00306    CDp =  0.21972
 VISCAL:  Convergence failed
 Calculating wake trajectory ...
 Calculating source influence matrix ...

 Solving BL system ...

 Side 1  free  transition at x/c =  0.0481   40
 Side 2 forced transition at x/c =  1.0000   63

   1   rms: 0.2586E+00   max: 0.1451E+01   D at   41  1   RLX: 0.219
       a = 22.250      CL =  0.6806
      Cm = -0.0575     CD =  0.22873   =>   CDf =  0.00308    CDp =  0.22566

 Side 1  free  transition at x/c =  0.0480   40
 Side 2 forced transition at x/c =  1.0000   63

   2   rms: 0.1620E+00   max: 0.8929E+00   D at   41  1
       a = 22.250      CL =  0.7126
      Cm = -0.0806     CD =  0.26875   =>   CDf =  0.00306    CDp =  0.26569

 Side 1  free  transition at x/c =  0.0442   39
 Side 2 forced transition at x/c =  1.0000   63

   3   rms: 0.2857E+01   max: -.2577E+02   T at   40  1   RLX: 0.019
       a = 22.250      CL =  0.6793
      Cm = -0.0754     CD =  0.23459   =>   CDf =  0.00304    CDp =  0.23156

 Side 1  free  transition at x/c =  0.0438   39
 Side 2 forced transition at x/c =  1.0000   63

   4   rms: 0.1495E+00   max: 0.2748E+01   T at   40  1   RLX: 0.546
       a = 22.250      CL =  0.6896
      Cm = -0.0759     CD =  0.23034   =>   CDf =  0.00303    CDp =  0.22732

 Side 1  free  transition at x/c =  0.0435   39
 Side 2 forced transition at x/c =  1.0000   63

   5   rms: 0.6458E-01   max: 0.4653E+00   T at   40  1
       a = 22.250      CL =  0.7079
      Cm = -0.0744     CD =  0.23114   =>   CDf =  0.00304    CDp =  0.22810

 Side 1  free  transition at x/c =  0.0507   41
 Side 2 forced transition at x/c =  1.0000   63

   6   rms: 0.1619E+00   max: 0.1651E+01   D at   41  1   RLX: 0.909
       a = 22.250      CL =  0.7121
      Cm = -0.0722     CD =  0.24706   =>   CDf =  0.00304    CDp =  0.24402

 Side 1  free  transition at x/c =  0.0475   40
 Side 2 forced transition at x/c =  1.0000   63

   7   rms: 0.1108E+00   max: 0.7966E+00   D at   41  1
       a = 22.250      CL =  0.7147
      Cm = -0.0788     CD =  0.25792   =>   CDf =  0.00304    CDp =  0.25488

 Side 1  free  transition at x/c =  0.0447   40
 Side 2 forced transition at x/c =  1.0000   63

   8   rms: 0.5805E-01   max: -.4815E+00   D at   40  1
       a = 22.250      CL =  0.7015
      Cm = -0.0764     CD =  0.23661   =>   CDf =  0.00303    CDp =  0.23358

 Side 1  free  transition at x/c =  0.0455   40
 Side 2 forced transition at x/c =  1.0000   63

   9   rms: 0.3424E-01   max: -.2685E+00   D at   40  1
       a = 22.250      CL =  0.7004
      Cm = -0.0755     CD =  0.22878   =>   CDf =  0.00303    CDp =  0.22575

 Side 1  free  transition at x/c =  0.0461   40
 Side 2 forced transition at x/c =  1.0000   63

  10   rms: 0.1468E-01   max: -.5444E-01   D at   83  2
       a = 22.250      CL =  0.7066
      Cm = -0.0756     CD =  0.23418   =>   CDf =  0.00303    CDp =  0.23115

 Side 1  free  transition at x/c =  0.0462   40
 Side 2 forced transition at x/c =  1.0000   63

  11   rms: 0.2508E-02   max: -.1588E-01   D at   83  2
       a = 22.250      CL =  0.7081
      Cm = -0.0758     CD =  0.23608   =>   CDf =  0.00303    CDp =  0.23305

 Side 1  free  transition at x/c =  0.0462   40
 Side 2 forced transition at x/c =  1.0000   63

  12   rms: 0.2156E-03   max: -.1770E-02   D at   84  2
       a = 22.250      CL =  0.7082
      Cm = -0.0758     CD =  0.23630   =>   CDf =  0.00303    CDp =  0.23327

 Side 1  free  transition at x/c =  0.0462   40
 Side 2 forced transition at x/c =  1.0000   63

  13   rms: 0.5233E-05   max: -.5196E-04   D at   84  2
       a = 22.250      CL =  0.7082
      Cm = -0.0758     CD =  0.23631   =>   CDf =  0.00303    CDp =  0.23328
 plradd ia,ip,cpol           14           0  3.52817727E-03

 Point added to stored polar  1
 Point written to save file  pt40_Re300k.ext.pol                             
 Dump file unspecified or not available

.OPERva   c>  
 Polar accumulation disabled

.OPERv   c>  
 XFOIL   c>  
 XFOIL   c>  