  
       XFOIL         Version 6.99
  
 Calculated polar for: RONCZ 1082 VOYAGER ROOT OUTER AFT WING AIRFOIL  
  
 1 1 Reynolds number fixed          Mach number fixed         
  
 xtrf =   1.000 (top)        1.000 (bottom)  
 Mach =   0.000     Re =     0.500 e 6     Ncrit =   9.000
  
   alpha    CL        CD       CDp       CM     Top_Xtr  Bot_Xtr
  ------ -------- --------- --------- -------- -------- --------
  -4.000  -0.0599   0.01103   0.00420  -0.0716   0.6333   0.2740
  -3.500  -0.0316   0.00961   0.00371  -0.0675   0.6296   0.5056
  -3.000   0.0080   0.00913   0.00394  -0.0642   0.6262   0.7063
  -2.500   0.0640   0.00955   0.00424  -0.0642   0.6227   0.7436
  -2.000   0.1186   0.00985   0.00449  -0.0638   0.6195   0.7642
  -1.500   0.1744   0.01017   0.00479  -0.0637   0.6163   0.7779
  -1.000   0.2302   0.01048   0.00506  -0.0635   0.6133   0.7900
  -0.500   0.2853   0.01090   0.00544  -0.0631   0.6105   0.8044
   0.000   0.3414   0.01134   0.00579  -0.0632   0.6073   0.8166
   0.500   0.3956   0.01153   0.00601  -0.0629   0.6048   0.8224
   1.000   0.4498   0.01165   0.00615  -0.0630   0.6019   0.8283
   1.500   0.5058   0.01174   0.00621  -0.0637   0.5987   0.8337
   2.000   0.5606   0.01178   0.00625  -0.0639   0.5956   0.8374
   2.500   0.6174   0.01190   0.00635  -0.0645   0.5925   0.8409
   3.000   0.6738   0.01213   0.00657  -0.0653   0.5890   0.8447
   3.500   0.7268   0.01217   0.00668  -0.0654   0.5850   0.8485
   4.000   0.7819   0.01219   0.00674  -0.0660   0.5805   0.8513
   4.500   0.8383   0.01220   0.00675  -0.0666   0.5760   0.8541
   5.000   0.8915   0.01233   0.00695  -0.0667   0.5709   0.8569
   5.500   0.9427   0.01229   0.00701  -0.0664   0.5646   0.8600
   6.000   1.0003   0.01228   0.00697  -0.0673   0.5580   0.8635
   6.500   1.0475   0.01222   0.00704  -0.0663   0.5498   0.8668
   7.000   1.1008   0.01210   0.00693  -0.0662   0.5415   0.8696
   7.500   1.1421   0.01200   0.00703  -0.0639   0.5316   0.8734
   8.000   1.1852   0.01194   0.00707  -0.0619   0.5207   0.8781
   8.500   1.2240   0.01191   0.00714  -0.0592   0.5067   0.8828
   9.000   1.2493   0.01188   0.00726  -0.0537   0.4873   0.8884
   9.500   1.2681   0.01220   0.00763  -0.0473   0.4591   0.8959
  10.000   1.2668   0.01316   0.00848  -0.0379   0.4143   0.9065
  10.000   1.2668   0.01316   0.00849  -0.0379   0.4143   0.9065
  10.250   1.2570   0.01411   0.00933  -0.0323   0.3895   0.9141
  10.500   1.2485   0.01512   0.01032  -0.0271   0.3677   0.9229
  10.750   1.2376   0.01644   0.01161  -0.0222   0.3454   0.9358
  11.000   1.2354   0.01810   0.01324  -0.0198   0.3216   0.9569
  11.500   1.2349   0.02240   0.01738  -0.0178   0.2736   1.0000
  11.750   1.2289   0.02463   0.01953  -0.0156   0.2534   1.0000
  12.000   1.2225   0.02695   0.02176  -0.0136   0.2349   1.0000
  12.250   1.2166   0.02929   0.02402  -0.0117   0.2159   1.0000
  12.500   1.2140   0.03146   0.02613  -0.0101   0.1999   1.0000
  12.750   1.2101   0.03379   0.02838  -0.0086   0.1821   1.0000
  13.000   1.2074   0.03608   0.03059  -0.0072   0.1660   1.0000
  13.250   1.2071   0.03825   0.03271  -0.0061   0.1523   1.0000
  13.500   1.2058   0.04055   0.03493  -0.0050   0.1370   1.0000
  13.750   1.2080   0.04261   0.03696  -0.0042   0.1262   1.0000
  14.000   1.2096   0.04476   0.03907  -0.0034   0.1156   1.0000
  14.250   1.2121   0.04688   0.04115  -0.0028   0.1057   1.0000
  14.500   1.2170   0.04884   0.04311  -0.0023   0.0975   1.0000
  14.750   1.2206   0.05093   0.04519  -0.0018   0.0905   1.0000
  15.000   1.2241   0.05307   0.04730  -0.0014   0.0830   1.0000
  15.250   1.2292   0.05511   0.04936  -0.0011   0.0772   1.0000
  15.500   1.2322   0.05737   0.05161  -0.0008   0.0711   1.0000
  15.750   1.2380   0.05943   0.05371  -0.0006   0.0665   1.0000
  16.000   1.2403   0.06183   0.05609  -0.0004   0.0613   1.0000
