  
       XFOIL         Version 6.99
  
 Calculated polar for: RONCZ R1145MS AIRFOIL                           
  
 1 1 Reynolds number fixed          Mach number fixed         
  
 xtrf =   1.000 (top)        1.000 (bottom)  
 Mach =   0.000     Re =     0.200 e 6     Ncrit =   9.000
  
   alpha    CL        CD       CDp       CM     Top_Xtr  Bot_Xtr
  ------ -------- --------- --------- -------- -------- --------
  16.250   1.5084   0.06037   0.05227  -0.0233   0.1461   1.0000
  16.500   1.5145   0.06229   0.05434  -0.0227   0.1443   1.0000
  16.750   1.5219   0.06410   0.05627  -0.0221   0.1424   1.0000
  17.000   1.5309   0.06574   0.05799  -0.0216   0.1406   1.0000
  17.250   1.5420   0.06719   0.05948  -0.0212   0.1388   1.0000
  17.500   1.5572   0.06827   0.06055  -0.0209   0.1372   1.0000
  17.750   1.5806   0.06875   0.06098  -0.0207   0.1354   1.0000
  18.000   1.5862   0.07085   0.06323  -0.0201   0.1341   1.0000
  18.250   1.5829   0.07373   0.06631  -0.0196   0.1329   1.0000
  18.750   1.5777   0.07955   0.07247  -0.0190   0.1302   1.0000
  19.250   1.5785   0.08494   0.07811  -0.0188   0.1276   1.0000
  19.750   1.5921   0.08894   0.08223  -0.0188   0.1252   1.0000
  20.250   1.6113   0.09256   0.08594  -0.0186   0.1225   1.0000
  20.750   1.5543   0.10531   0.09927  -0.0211   0.1209   1.0000
