  
       XFOIL         Version 6.99
  
 Calculated polar for: RONCZ R1145MS MAIN ELEMENT                      
  
 1 1 Reynolds number fixed          Mach number fixed         
  
 xtrf =   1.000 (top)        1.000 (bottom)  
 Mach =   0.000     Re =     0.500 e 6     Ncrit =   9.000
  
   alpha    CL        CD       CDp       CM     Top_Xtr  Bot_Xtr
  ------ -------- --------- --------- -------- -------- --------
  16.250   0.8546   0.04115   0.03559   0.0483   0.2196   0.8319
  16.500   0.8569   0.04185   0.03627   0.0501   0.2154   0.8319
  16.750   0.8615   0.04244   0.03686   0.0517   0.2115   0.8318
  17.000   0.8685   0.04286   0.03734   0.0532   0.2090   0.8318
  17.250   0.8742   0.04337   0.03788   0.0547   0.2062   0.8317
  17.500   0.8794   0.04393   0.03846   0.0562   0.2032   0.8316
  17.750   0.8839   0.04455   0.03909   0.0576   0.2003   0.8315
  18.000   0.8869   0.04529   0.03983   0.0592   0.1975   0.8314
  18.250   0.8904   0.04603   0.04055   0.0606   0.1942   0.8313
  18.750   0.9025   0.04716   0.04177   0.0632   0.1907   0.8311
  19.250   0.9125   0.04845   0.04316   0.0658   0.1870   0.8308
  19.750   0.9213   0.04985   0.04463   0.0682   0.1831   0.8304
  20.250   0.9264   0.05158   0.04634   0.0706   0.1773   0.8301
  20.750   0.9320   0.05331   0.04816   0.0728   0.1725   0.8298
  21.250   0.9355   0.05524   0.05020   0.0748   0.1677   0.8295
  21.750   0.9389   0.05726   0.05226   0.0767   0.1636   0.8292
  22.250   0.9427   0.05925   0.05424   0.0785   0.1589   0.8289
