  
       XFOIL         Version 6.99
  
 Calculated polar for: RONCZ R1145MS FLAP ELEMENT (LONG EZ PIVOT X=0.68
  
 1 1 Reynolds number fixed          Mach number fixed         
  
 xtrf =   1.000 (top)        1.000 (bottom)  
 Mach =   0.000     Re =     0.150 e 6     Ncrit =   9.000
  
   alpha    CL        CD       CDp       CM     Top_Xtr  Bot_Xtr
  ------ -------- --------- --------- -------- -------- --------
-4.000  -0.0217   0.07123   0.06952   0.0120   0.5708   0.3733
-3.500  -0.0271   0.07120   0.06950   0.0149   0.5578   0.3867
-3.000  -0.0717   0.07001   0.06830   0.0375   0.5559   0.4057
-2.500  -0.0524   0.06975   0.06809   0.0278   0.5351   0.4128
-2.000  -0.0482   0.06984   0.06819   0.0259   0.5209   0.4285
-1.500  -0.0650   0.06853   0.06688   0.0347   0.5176   0.4568
-1.000  -0.0986   0.06172   0.06000   0.0524   0.5206   0.5011
-0.500  -0.0816   0.06164   0.05995   0.0442   0.5060   0.5175
0.000  -0.0914   0.06114   0.05947   0.0496   0.4975   0.5561
0.500  -0.0666   0.06225   0.06060   0.0375   0.4857   0.6091
1.000  -0.0560   0.06234   0.06072   0.0323   0.4704   0.6611
1.500  -0.0528   0.06287   0.06129   0.0311   0.4566   0.7434
3.000   0.0812   0.06602   0.06449  -0.0425   0.4127   1.0002
3.500   0.0838   0.06639   0.06485  -0.0439   0.4066   1.0002
4.000   0.0768   0.06615   0.06462  -0.0406   0.3989   1.0002
4.500  -0.0354   0.06038   0.05819   0.0129   0.3975   0.3901
5.000  -0.0215   0.06119   0.05875   0.0050   0.3885   0.3601
5.500  -0.0162   0.06125   0.05879   0.0020   0.3808   0.3548
6.000  -0.0078   0.06175   0.05924  -0.0025   0.3747   0.3507
6.500   0.0045   0.06272   0.06013  -0.0090   0.3674   0.3458
7.000   0.0080   0.06251   0.05988  -0.0111   0.3603   0.3421
7.500   0.0246   0.06468   0.06194  -0.0197   0.3546   0.3395
8.000   0.0244   0.06372   0.06097  -0.0199   0.3478   0.3393
8.500   0.0380   0.06550   0.06267  -0.0269   0.3422   0.3387
9.000   0.0400   0.06528   0.06243  -0.0283   0.3362   0.3381
9.500   0.0506   0.06657   0.06367  -0.0338   0.3297   0.3383
10.000   0.0568   0.06748   0.06456  -0.0372   0.3257   0.3404
10.250   0.0583   0.06745   0.06453  -0.0381   0.3213   0.3415
10.500   0.0627   0.06802   0.06508  -0.0404   0.3177   0.3429
10.750   0.0687   0.06898   0.06602  -0.0435   0.3153   0.3443
11.000   0.0770   0.07083   0.06783  -0.0477   0.3138   0.3458
11.250   0.0739   0.06989   0.06689  -0.0464   0.3116   0.3464
11.500   0.0753   0.06993   0.06693  -0.0472   0.3073   0.3473
11.750   0.0793   0.07050   0.06749  -0.0493   0.3038   0.3487
12.000   0.0846   0.07141   0.06838  -0.0521   0.3013   0.3509
12.250   0.0918   0.07300   0.06994  -0.0557   0.2997   0.3540
12.500   0.0923   0.07310   0.07005  -0.0562   0.2984   0.3559
12.750   0.0915   0.07269   0.06964  -0.0560   0.2948   0.3575
13.000   0.0945   0.07315   0.07011  -0.0577   0.2911   0.3603
13.250   0.0988   0.07386   0.07083  -0.0599   0.2883   0.3645
13.500   0.1044   0.07495   0.07194  -0.0628   0.2862   0.3697
13.750   0.1117   0.07687   0.07386  -0.0665   0.2850   0.3764
14.000   0.1091   0.07607   0.07308  -0.0656   0.2835   0.3794
14.250   0.1098   0.07605   0.07309  -0.0662   0.2801   0.3846
14.500   0.1129   0.07657   0.07362  -0.0679   0.2768   0.3930
15.000   0.1227   0.07840   0.07558  -0.0730   0.2721   0.4397
15.250   0.1256   0.07878   0.07640  -0.0742   0.2710   1.0002
15.500   0.1242   0.07829   0.07589  -0.0738   0.2697   1.0002
15.750   0.1247   0.07827   0.07585  -0.0744   0.2668   1.0002
16.000   0.1276   0.07878   0.07633  -0.0760   0.2636   1.0002
