
 ===================================================
  XFOIL Version 6.99
  Copyright (C) 2000   Mark Drela, Harold Youngren

  This software comes with ABSOLUTELY NO WARRANTY,
    subject to the GNU General Public License.

  Caveat computor
 ===================================================

 File  xfoil.def  not found

   QUIT    Exit program

  .OPER    Direct operating point(s)
  .MDES    Complex mapping design routine
  .QDES    Surface speed design routine
  .GDES    Geometry design routine

   SAVE f  Write airfoil to labeled coordinate file
   PSAV f  Write airfoil to plain coordinate file
   ISAV f  Write airfoil to ISES coordinate file
   MSAV f  Write airfoil to MSES coordinate file
   REVE    Reverse written-airfoil node ordering

   LOAD f  Read buffer airfoil from coordinate file
   NACA i  Set NACA 4,5-digit airfoil and buffer airfoil
   INTE    Set buffer airfoil by interpolating two airfoils
   NORM    Buffer airfoil normalization toggle
   XYCM rr Change CM reference location, currently  0.25000 0.00000

   BEND    Display structural properties of current airfoil

   PCOP    Set current-airfoil panel nodes directly from buffer airfoil points
   PANE    Set current-airfoil panel nodes ( 160 ) based on curvature
  .PPAR    Show/change paneling

  .PLOP    Plotting options

   WDEF f  Write  current-settings file
   RDEF f  Reread current-settings file
   NAME s  Specify new airfoil name
   NINC    Increment name version number

   Z       Zoom    | (available in all menus)
   U       Unzoom  | 

 XFOIL   c>  
 Labeled airfoil file.  Name:  R140  12.04% (smoothed)                         

 Number of input coordinate points:  93
 Counterclockwise ordering
 Max thickness =     0.120410  at x =   0.393
 Max camber    =     0.004368  at x =   0.393

  LE  x,y  =  -0.00000   0.00001  |   Chord =   1.00000
  TE  x,y  =   1.00000   0.00000  |

 Current airfoil nodes set from buffer airfoil nodes (  93 )

 WARNING: Poor input coordinate distribution
          Excessive panel angle   64.6  at i =  47
          Repaneling with PANE and/or PPAR suggested
           (doing GDES,CADD before repaneling _may_
            improve excessively coarse LE spacing

 XFOIL   c>  
 XFOIL   c>  
 Sharp trailing edge

 Paneling parameters used...
   Number of panel nodes       160
   Panel bunching parameter    1.000
   TE/LE panel density ratio   0.150
   Refined-area/LE panel density ratio    0.200
   Top    side refined area x/c limits  1.000 1.000
   Bottom side refined area x/c limits  1.000 1.000

 XFOIL   c>  
.OPERi   c>  
 Xtr/c     =  1.0000    top    side
 Xtr/c     =  1.0000    bottom side
 Ncrit     =    9.00   ( 0.070 % turb. level )
 Vacc      =  0.0100

 Klag  =  5.6000     Uxwt  =    1.00
 A     =  6.7000     B     =  0.7500       KCt = 0.01485
 CtiniK=  1.8000     CtiniX=  3.3000

..VPAR   c>  
..VPAR   c>  
.OPERi   c>  
 M  =    0.0000
 Re =    200000

.OPERv   c>  
.OPERv   c>  
.OPERv   c>  
 Polar  1 newly created for accumulation
 Airfoil archived with polar: R140  12.04% (smoothed)                         

Enter  polar save filename  OR  <return> for no file   s>  
 New polar save file available

Enter  polar dump filename  OR  <return> for no file   s>  
 Polar dump file will NOT be written

 Polar accumulation enabled

.OPERva   c>   Calculating unit vorticity distributions ...
 Calculating wake trajectory ...
 Calculating source influence matrix ...

 Solving BL system ...

 Initializing BL ...
    side            1  ...
 MRCHUE: Inverse mode at  60     Hk =   3.912
 MRCHUE: Inverse mode at  61     Hk =   4.210
 MRCHUE: Inverse mode at  62     Hk =   4.503
 MRCHUE: Inverse mode at  63     Hk =   4.792
 MRCHUE: Inverse mode at  64     Hk =   5.078
 MRCHUE: Inverse mode at  65     Hk =   5.360
 MRCHUE: Inverse mode at  66     Hk =   5.640
 MRCHUE: Inverse mode at  67     Hk =   5.917
 MRCHUE: Inverse mode at  68     Hk =   6.193
 MRCHUE: Inverse mode at  69     Hk =   6.466
 MRCHUE: Inverse mode at  70     Hk =   6.737
 MRCHUE: Inverse mode at  71     Hk =   7.005
 MRCHUE: Inverse mode at  72     Hk =   7.269
 MRCHUE: Inverse mode at  73     Hk =   7.532
 MRCHUE: Inverse mode at  74     Hk =   7.792
 MRCHUE: Inverse mode at  75     Hk =   8.022
 MRCHUE: Inverse mode at  76     Hk =   8.209
 MRCHUE: Inverse mode at  77     Hk =   7.693
    side            2  ...
 MRCHUE: Inverse mode at  10     Hk =   3.982
 MRCHUE: Inverse mode at  11     Hk =   5.154
 MRCHUE: Inverse mode at  12     Hk =   6.532
 MRCHUE: Inverse mode at  13     Hk =   7.982
 MRCHUE: Inverse mode at  14     Hk =   9.375
 MRCHUE: Inverse mode at  15     Hk =   9.909
 MRCHUE: Inverse mode at  16     Hk =   4.153
 MRCHUE: Inverse mode at  17     Hk =   2.500
 MRCHUE: Inverse mode at  83     Hk =   2.500
 MRCHUE: Inverse mode at  84     Hk =   2.500
 MRCHUE: Convergence failed at  85  side 2    Res =  0.3594E+01

 MRCHDU: Convergence failed at  85  side 2    Res =  0.1503E+01
 Side 1  free  transition at x/c =  0.9945   77
 Side 2  free  transition at x/c =  0.0524   15

   1   rms: 0.3196E+00   max: 0.1918E+01   D at   88  2   RLX: 0.399
       a = -4.000      CL = -0.4473
      Cm = -0.0038     CD =  0.01002   =>   CDf =  0.00811    CDp =  0.00191

 MRCHDU: Convergence failed at  17  side 2    Res =  0.8072E+01
 Side 1  free  transition at x/c =  0.9888   76
 Side 2  free  transition at x/c =  0.0652   16

   2   rms: 0.2534E+00   max: -.2707E+01   T at   16  2   RLX: 0.185
       a = -4.000      CL = -0.4526
      Cm = -0.0041     CD =  0.01006   =>   CDf =  0.00801    CDp =  0.00206

 Side 1  free  transition at x/c =  0.9845   75
 Side 2  free  transition at x/c =  0.0835   18

   3   rms: 0.2069E+00   max: -.2216E+01   C at   18  2   RLX: 0.226
       a = -4.000      CL = -0.4563
      Cm = -0.0018     CD =  0.01038   =>   CDf =  0.00806    CDp =  0.00232

 Side 1  free  transition at x/c =  0.9773   75
 Side 2  free  transition at x/c =  0.0958   19

   4   rms: 0.2703E+00   max: -.3429E+01   C at   19  2   RLX: 0.146
       a = -4.000      CL = -0.4552
      Cm = -0.0012     CD =  0.01090   =>   CDf =  0.00796    CDp =  0.00294

 Side 1  free  transition at x/c =  0.9748   75
 Side 2  free  transition at x/c =  0.1085   20

   5   rms: 0.2753E+00   max: -.3906E+01   C at   20  2   RLX: 0.128
       a = -4.000      CL = -0.4538
      Cm = -0.0009     CD =  0.01124   =>   CDf =  0.00788    CDp =  0.00336

 Side 1  free  transition at x/c =  0.9733   75
 Side 2  free  transition at x/c =  0.1206   21

   6   rms: 0.2617E+00   max: -.3777E+01   C at   21  2   RLX: 0.132
       a = -4.000      CL = -0.4524
      Cm = -0.0007     CD =  0.01152   =>   CDf =  0.00782    CDp =  0.00371

 Side 1  free  transition at x/c =  0.9723   74
 Side 2  free  transition at x/c =  0.1352   22

   7   rms: 0.1612E+00   max: -.2497E+01   C at   22  2   RLX: 0.200
       a = -4.000      CL = -0.4568
      Cm =  0.0008     CD =  0.01191   =>   CDf =  0.00771    CDp =  0.00419

 Side 1  free  transition at x/c =  0.9676   74
 Side 2  free  transition at x/c =  0.1459   22

   8   rms: 0.9089E-01   max: -.9738E+00   T at   22  2   RLX: 0.513
       a = -4.000      CL = -0.4534
      Cm =  0.0011     CD =  0.01287   =>   CDf =  0.00765    CDp =  0.00522

 Side 1  free  transition at x/c =  0.9637   74
 Side 2  free  transition at x/c =  0.2566   31

   9   rms: 0.2999E+00   max: -.5307E+01   C at   31  2   RLX: 0.094
       a = -4.000      CL = -0.4625
      Cm =  0.0007     CD =  0.01228   =>   CDf =  0.00718    CDp =  0.00510

 Side 1  free  transition at x/c =  0.9631   74
 Side 2  free  transition at x/c =  0.2691   31

  10   rms: 0.3895E+00   max: -.7232E+01   C at   31  2   RLX: 0.069
       a = -4.000      CL = -0.4621
      Cm =  0.0009     CD =  0.01225   =>   CDf =  0.00703    CDp =  0.00522

 Side 1  free  transition at x/c =  0.9628   74
 Side 2  free  transition at x/c =  0.2769   32

  11   rms: 0.6662E+00   max: -.1199E+02   C at   32  2   RLX: 0.042
       a = -4.000      CL = -0.4626
      Cm =  0.0010     CD =  0.01218   =>   CDf =  0.00694    CDp =  0.00523

 Side 1  free  transition at x/c =  0.9625   74
 Side 2  free  transition at x/c =  0.2815   32

  12   rms: 0.8781E+00   max: -.1440E+02   C at   32  2   RLX: 0.035
       a = -4.000      CL = -0.4634
      Cm =  0.0011     CD =  0.01210   =>   CDf =  0.00683    CDp =  0.00527

 Side 1  free  transition at x/c =  0.9623   74
 Side 2  free  transition at x/c =  0.2841   33

  13   rms: 0.5326E+00   max: -.9703E+01   C at   33  2   RLX: 0.052
       a = -4.000      CL = -0.4627
      Cm =  0.0012     CD =  0.01218   =>   CDf =  0.00689    CDp =  0.00530

 Side 1  free  transition at x/c =  0.9621   74
 Side 2  free  transition at x/c =  0.2958   33

  14   rms: 0.9905E+00   max: -.1565E+02   C at   33  2   RLX: 0.032
       a = -4.000      CL = -0.4639
      Cm =  0.0014     CD =  0.01205   =>   CDf =  0.00672    CDp =  0.00534

 Side 1  free  transition at x/c =  0.9619   74
 Side 2  free  transition at x/c =  0.3259   36

  15   rms: 0.9065E+00   max: -.1497E+02   C at   36  2   RLX: 0.033
       a = -4.000      CL = -0.4651
      Cm =  0.0016     CD =  0.01190   =>   CDf =  0.00656    CDp =  0.00533

 Side 1  free  transition at x/c =  0.9617   74
 Side 2  free  transition at x/c =  0.3614   38

  16   rms: 0.5516E+00   max: -.9202E+01   C at   38  2   RLX: 0.054
       a = -4.000      CL = -0.4664
      Cm =  0.0019     CD =  0.01179   =>   CDf =  0.00643    CDp =  0.00536

 Side 1  free  transition at x/c =  0.9614   74
 Side 2  free  transition at x/c =  0.3873   40

  17   rms: 0.2590E+00   max: -.4400E+01   C at   40  2   RLX: 0.114
       a = -4.000      CL = -0.4676
      Cm =  0.0022     CD =  0.01173   =>   CDf =  0.00631    CDp =  0.00542

 Side 1  free  transition at x/c =  0.9611   74
 Side 2  free  transition at x/c =  0.4253   43

  18   rms: 0.1679E+00   max: -.2818E+01   C at   43  2   RLX: 0.177
       a = -4.000      CL = -0.4700
      Cm =  0.0028     CD =  0.01163   =>   CDf =  0.00613    CDp =  0.00551

 Side 1  free  transition at x/c =  0.9606   74
 Side 2  free  transition at x/c =  0.4579   45

  19   rms: 0.4475E-01   max: -.4575E+00   C at   45  2
       a = -4.000      CL = -0.4687
      Cm =  0.0034     CD =  0.01191   =>   CDf =  0.00597    CDp =  0.00594

 Side 1  free  transition at x/c =  0.9593   74
 Side 2  free  transition at x/c =  0.4761   47

  20   rms: 0.4836E-01   max: -.6598E+00   C at   47  2   RLX: 0.758
       a = -4.000      CL = -0.4686
      Cm =  0.0031     CD =  0.01182   =>   CDf =  0.00612    CDp =  0.00570

 Side 1  free  transition at x/c =  0.9596   74
 Side 2  free  transition at x/c =  0.4879   47

  21   rms: 0.1338E-01   max: -.2063E+00   C at   47  2
       a = -4.000      CL = -0.4686
      Cm =  0.0034     CD =  0.01190   =>   CDf =  0.00587    CDp =  0.00603

 Side 1  free  transition at x/c =  0.9595   74
 Side 2  free  transition at x/c =  0.4914   48

  22   rms: 0.1264E-02   max: 0.1892E-01   C at   48  2
       a = -4.000      CL = -0.4686
      Cm =  0.0034     CD =  0.01190   =>   CDf =  0.00578    CDp =  0.00611

 Side 1  free  transition at x/c =  0.9595   74
 Side 2  free  transition at x/c =  0.4903   48

  23   rms: 0.1930E-04   max: -.3091E-03   C at   48  2
       a = -4.000      CL = -0.4686
      Cm =  0.0034     CD =  0.01190   =>   CDf =  0.00579    CDp =  0.00611
 plradd ia,ip,cpol            1           0  4.84322547E-04

 Point added to stored polar  1
 Point written to save file  r140sm_Re200k.base.pol                          
 Dump file unspecified or not available
 Calculating wake trajectory ...
 Calculating source influence matrix ...

 Solving BL system ...

 Side 1  free  transition at x/c =  0.9595   74
 Side 2  free  transition at x/c =  0.4903   48

   1   rms: 0.6307E+00   max: -.9910E+01   C at   48  2   RLX: 0.050
       a = -3.500      CL = -0.4668
      Cm =  0.0035     CD =  0.01175   =>   CDf =  0.00579    CDp =  0.00596

 Side 1  free  transition at x/c =  0.9589   73
 Side 2  free  transition at x/c =  0.5112   49

   2   rms: 0.1444E+00   max: 0.1679E+01   T at   73  1   RLX: 0.365
       a = -3.500      CL = -0.4817
      Cm =  0.0106     CD =  0.01166   =>   CDf =  0.00570    CDp =  0.00596

 Side 1  free  transition at x/c =  0.9344   72
 Side 2  free  transition at x/c =  0.5460   52

   3   rms: 0.3245E+00   max: -.4388E+01   C at   52  2   RLX: 0.114
       a = -3.500      CL = -0.4789
      Cm =  0.0118     CD =  0.01298   =>   CDf =  0.00554    CDp =  0.00745

 Side 1  free  transition at x/c =  0.9350   72
 Side 2  free  transition at x/c =  0.5667   53

   4   rms: 0.1577E+00   max: 0.9913E+00   C at   54  2   RLX: 0.733
       a = -3.500      CL = -0.4275
      Cm =  0.0051     CD =  0.01213   =>   CDf =  0.00552    CDp =  0.00661

 MRCHDU: Convergence failed at  57  side 2    Res =  0.1447E+01
 MRCHDU: Convergence failed at  58  side 2    Res =  0.4124E+01
 MRCHDU: Convergence failed at  59  side 2    Res =  0.1485E+01
 MRCHDU: Convergence failed at  60  side 2    Res =  0.1633E+01
 MRCHDU: Convergence failed at  61  side 2    Res =  0.2176E+01
 MRCHDU: Convergence failed at  62  side 2    Res =  0.2710E+01
 MRCHDU: Convergence failed at  63  side 2    Res =  0.3185E+01
 MRCHDU: Convergence failed at  64  side 2    Res =  0.3526E+01
 MRCHDU: Convergence failed at  65  side 2    Res =  0.3718E+01
 MRCHDU: Convergence failed at  66  side 2    Res =  0.3818E+01
 MRCHDU: Convergence failed at  67  side 2    Res =  0.3856E+01
 MRCHDU: Convergence failed at  68  side 2    Res =  0.3851E+01
 MRCHDU: Convergence failed at  69  side 2    Res =  0.3825E+01
 MRCHDU: Convergence failed at  70  side 2    Res =  0.3787E+01
 MRCHDU: Convergence failed at  71  side 2    Res =  0.3751E+01
 MRCHDU: Convergence failed at  72  side 2    Res =  0.3690E+01
 MRCHDU: Convergence failed at  73  side 2    Res =  0.3646E+01
 MRCHDU: Convergence failed at  74  side 2    Res =  0.3610E+01
 MRCHDU: Convergence failed at  75  side 2    Res =  0.3579E+01
 MRCHDU: Convergence failed at  76  side 2    Res =  0.3553E+01
 MRCHDU: Convergence failed at  77  side 2    Res =  0.3531E+01
 MRCHDU: Convergence failed at  78  side 2    Res =  0.3511E+01
 MRCHDU: Convergence failed at  79  side 2    Res =  0.3481E+01
 MRCHDU: Convergence failed at  80  side 2    Res =  0.3433E+01
 MRCHDU: Convergence failed at  81  side 2    Res =  0.4267E+03
 MRCHDU: Convergence failed at  82  side 2    Res =  0.3364E+01
 MRCHDU: Convergence failed at  83  side 2    Res =  0.4277E+01
 MRCHDU: Convergence failed at  84  side 2    Res =  0.5891E+01
 MRCHDU: Convergence failed at  85  side 2    Res =  0.1652E+02
 Side 1  free  transition at x/c =  0.9396   72
 Side 2  free  transition at x/c =  0.9492   81

   5   rms: 0.1347E+02   max: -.9659E+02   D at   85  2   RLX: 0.005
       a = -3.500      CL = -0.5939
      Cm =  0.0874     CD =  0.00741   =>   CDf =  0.00483    CDp =  0.00259

 Side 1  free  transition at x/c =  0.9295   71
 Side 2  free  transition at x/c =  0.7799   69

   6   rms: 0.3159E+00   max: 0.3396E+01   C at   69  2   RLX: 0.442
       a = -3.500      CL = -0.5124
      Cm =  0.0485     CD =  0.00828   =>   CDf =  0.00544    CDp =  0.00284

 Side 1  free  transition at x/c =  0.9408   72
 Side 2  free  transition at x/c =  0.7470   66

   7   rms: 0.1867E+00   max: 0.1780E+01   C at   66  2   RLX: 0.842
       a = -3.500      CL = -0.4403
      Cm =  0.0134     CD =  0.00983   =>   CDf =  0.00519    CDp =  0.00464

 Side 1  free  transition at x/c =  0.9408   72
 Side 2  free  transition at x/c =  0.6987   63

   8   rms: 0.4603E-01   max: 0.2685E+00   D at   54  2
       a = -3.500      CL = -0.4101
      Cm =  0.0035     CD =  0.01124   =>   CDf =  0.00513    CDp =  0.00611

 Side 1  free  transition at x/c =  0.9435   72
 Side 2  free  transition at x/c =  0.6877   62

   9   rms: 0.9961E-02   max: -.8226E-01   D at   65  2
       a = -3.500      CL = -0.4072
      Cm =  0.0030     CD =  0.01138   =>   CDf =  0.00523    CDp =  0.00615

 Side 1  free  transition at x/c =  0.9450   72
 Side 2  free  transition at x/c =  0.6821   61

  10   rms: 0.2689E-02   max: -.2245E-01   C at   61  2
       a = -3.500      CL = -0.4072
      Cm =  0.0030     CD =  0.01139   =>   CDf =  0.00531    CDp =  0.00608

 Side 1  free  transition at x/c =  0.9450   72
 Side 2  free  transition at x/c =  0.6829   61

  11   rms: 0.1280E-03   max: -.9852E-03   T at   72  1
       a = -3.500      CL = -0.4072
      Cm =  0.0030     CD =  0.01139   =>   CDf =  0.00530    CDp =  0.00609

 Side 1  free  transition at x/c =  0.9450   72
 Side 2  free  transition at x/c =  0.6830   61

  12   rms: 0.9607E-05   max: -.5639E-04   T at   72  1
       a = -3.500      CL = -0.4072
      Cm =  0.0030     CD =  0.01139   =>   CDf =  0.00530    CDp =  0.00609
 plradd ia,ip,cpol            2           0  4.84322547E-04

 Point added to stored polar  1
 Point written to save file  r140sm_Re200k.base.pol                          
 Dump file unspecified or not available
 Calculating wake trajectory ...
 Calculating source influence matrix ...

 Solving BL system ...

 Side 1  free  transition at x/c =  0.9451   72
 Side 2  free  transition at x/c =  0.6830   61

   1   rms: 0.4361E+00   max: 0.4161E+01   T at   72  1   RLX: 0.155
       a = -3.000      CL = -0.4478
      Cm =  0.0133     CD =  0.01138   =>   CDf =  0.00530    CDp =  0.00609

 Side 1  free  transition at x/c =  0.9173   70
 Side 2  free  transition at x/c =  0.6512   59

   2   rms: 0.3922E+00   max: -.2436E+01   T at   59  2   RLX: 0.205
       a = -3.000      CL = -0.4100
      Cm =  0.0082     CD =  0.01354   =>   CDf =  0.00546    CDp =  0.00809

 Side 1  free  transition at x/c =  0.9312   71
 Side 2  free  transition at x/c =  0.6855   62

   3   rms: 0.1150E+00   max: 0.1102E+01   T at   71  1   RLX: 0.576
       a = -3.000      CL = -0.4213
      Cm =  0.0146     CD =  0.01161   =>   CDf =  0.00546    CDp =  0.00615

 Side 1  free  transition at x/c =  0.9039   69
 Side 2  free  transition at x/c =  0.6964   62

   4   rms: 0.6256E+00   max: 0.5807E+01   T at   69  1   RLX: 0.109
       a = -3.000      CL = -0.4700
      Cm =  0.0254     CD =  0.01403   =>   CDf =  0.00537    CDp =  0.00866

 Side 1  free  transition at x/c =  0.8805   68
 Side 2  free  transition at x/c =  0.6631   60

   5   rms: 0.2442E+00   max: -.1469E+01   T at   60  2   RLX: 0.340
       a = -3.000      CL = -0.4297
      Cm =  0.0189     CD =  0.01574   =>   CDf =  0.00544    CDp =  0.01030

 Side 1  free  transition at x/c =  0.8952   69
 Side 2  free  transition at x/c =  0.6873   62

   6   rms: 0.1299E+00   max: -.8249E+00   T at   62  2   RLX: 0.606
       a = -3.000      CL = -0.3878
      Cm =  0.0103     CD =  0.01228   =>   CDf =  0.00574    CDp =  0.00654

 Side 1  free  transition at x/c =  0.9068   71
 Side 2  free  transition at x/c =  0.7064   62

   7   rms: 0.1227E+00   max: -.1219E+01   D at    2  1   RLX: 0.410
       a = -3.000      CL = -0.3739
      Cm =  0.0074     CD =  0.01266   =>   CDf =  0.00562    CDp =  0.00703

 Side 1  free  transition at x/c =  0.9139   71
 Side 2  free  transition at x/c =  0.7237   63

   8   rms: 0.2739E+00   max: -.2148E+01   T at   71  1   RLX: 0.233
       a = -3.000      CL = -0.3293
      Cm = -0.0009     CD =  0.01204   =>   CDf =  0.00549    CDp =  0.00655

 MRCHDU: Convergence failed at  76  side 1    Res =  0.4872E+01
 MRCHDU: Convergence failed at  77  side 1    Res =  0.1549E+01
 MRCHDU: Convergence failed at  78  side 1    Res =  0.3172E+01
 Side 1  free  transition at x/c =  0.9453   74
 Side 2  free  transition at x/c =  0.7423   65

   9   rms: 0.6794E-01   max: 0.4573E+00   T at   78  1
       a = -3.000      CL = -0.3216
      Cm = -0.0024     CD =  0.01079   =>   CDf =  0.00537    CDp =  0.00542

 Side 1  free  transition at x/c =  0.9403   73
 Side 2  free  transition at x/c =  0.7414   65

  10   rms: 0.4943E-01   max: 0.3484E+00   T at   73  1
       a = -3.000      CL = -0.3543
      Cm =  0.0041     CD =  0.01126   =>   CDf =  0.00534    CDp =  0.00592

 Side 1  free  transition at x/c =  0.9213   72
 Side 2  free  transition at x/c =  0.7350   64

  11   rms: 0.3923E-01   max: -.2339E+00   D at   72  1
       a = -3.000      CL = -0.3330
      Cm = -0.0001     CD =  0.01114   =>   CDf =  0.00532    CDp =  0.00582

 Side 1  free  transition at x/c =  0.9334   73
 Side 2  free  transition at x/c =  0.7388   65

  12   rms: 0.6604E-02   max: -.5288E-01   D at   64  2
       a = -3.000      CL = -0.3347
      Cm =  0.0002     CD =  0.01120   =>   CDf =  0.00539    CDp =  0.00581

 Side 1  free  transition at x/c =  0.9321   73
 Side 2  free  transition at x/c =  0.7384   65

  13   rms: 0.4695E-03   max: 0.2842E-02   C at   65  2
       a = -3.000      CL = -0.3347
      Cm =  0.0002     CD =  0.01121   =>   CDf =  0.00536    CDp =  0.00585

 Side 1  free  transition at x/c =  0.9321   73
 Side 2  free  transition at x/c =  0.7383   65

  14   rms: 0.6533E-05   max: 0.3051E-04   D at   66  2
       a = -3.000      CL = -0.3347
      Cm =  0.0002     CD =  0.01121   =>   CDf =  0.00536    CDp =  0.00584
 plradd ia,ip,cpol            3           0  1.48169149E-03

 Point added to stored polar  1
 Point written to save file  r140sm_Re200k.base.pol                          
 Dump file unspecified or not available
 Calculating wake trajectory ...
 Calculating source influence matrix ...

 Solving BL system ...

 Side 1  free  transition at x/c =  0.9321   73
 Side 2  free  transition at x/c =  0.7383   65

   1   rms: 0.1553E+00   max: 0.8382E+00   D at   67  2   RLX: 0.704
       a = -2.500      CL = -0.2714
      Cm = -0.0035     CD =  0.01113   =>   CDf =  0.00536    CDp =  0.00577

 Side 1  free  transition at x/c =  0.9289   72
 Side 2  free  transition at x/c =  0.7594   66

   2   rms: 0.9940E-01   max: 0.6989E+00   T at   72  1
       a = -2.500      CL = -0.3217
      Cm =  0.0093     CD =  0.01135   =>   CDf =  0.00548    CDp =  0.00587

 MRCHDU: Convergence failed at  69  side 2    Res =  0.4413E+01
 MRCHDU: Convergence failed at  70  side 2    Res =  0.2511E+01
 MRCHDU: Convergence failed at  71  side 2    Res =  0.2822E+01
 MRCHDU: Convergence failed at  72  side 2    Res =  0.5457E+01
 MRCHDU: Convergence failed at  73  side 2    Res =  0.1499E+02
 MRCHDU: Convergence failed at  74  side 2    Res =  0.7177E+03
 MRCHDU: Convergence failed at  75  side 2    Res =  0.2349E+02
 MRCHDU: Convergence failed at  76  side 2    Res =  0.1448E+02
 MRCHDU: Convergence failed at  77  side 2    Res =  0.1206E+02
 MRCHDU: Convergence failed at  78  side 2    Res =  0.1158E+02
 MRCHDU: Convergence failed at  79  side 2    Res =  0.1190E+02
 MRCHDU: Convergence failed at  80  side 2    Res =  0.1313E+02
 MRCHDU: Convergence failed at  81  side 2    Res =  0.1746E+02
 MRCHDU: Convergence failed at  82  side 2    Res =  0.6588E+02
 MRCHDU: Convergence failed at  83  side 2    Res =  0.3045E+02
 MRCHDU: Convergence failed at  84  side 2    Res =  0.8796E+01
 Side 1  free  transition at x/c =  0.8922   70
 Side 2  free  transition at x/c =  0.7924   68

   3   rms: 0.3468E+00   max: 0.1488E+01   D at   84  2   RLX: 0.345
       a = -2.500      CL = -0.2648
      Cm =  0.0172     CD =  0.00927   =>   CDf =  0.00478    CDp =  0.00450

 Side 1  free  transition at x/c =  0.9198   72
 Side 2  free  transition at x/c =  0.7786   67

   4   rms: 0.1125E+00   max: 0.2736E+00   T at   85  2   RLX: 0.724
       a = -2.500      CL = -0.2896
      Cm =  0.0081     CD =  0.01020   =>   CDf =  0.00586    CDp =  0.00435

 Side 1  free  transition at x/c =  0.9160   71
 Side 2  free  transition at x/c =  0.7826   68

   5   rms: 0.4761E-01   max: 0.3028E+00   D at   83  2
       a = -2.500      CL = -0.2635
      Cm = -0.0020     CD =  0.01108   =>   CDf =  0.00548    CDp =  0.00560

 Side 1  free  transition at x/c =  0.9191   72
 Side 2  free  transition at x/c =  0.7819   68

   6   rms: 0.5867E-02   max: -.7060E-01   D at   72  2
       a = -2.500      CL = -0.2648
      Cm = -0.0016     CD =  0.01120   =>   CDf =  0.00539    CDp =  0.00581

 Side 1  free  transition at x/c =  0.9180   72
 Side 2  free  transition at x/c =  0.7815   68

   7   rms: 0.2200E-03   max: -.4231E-02   D at   72  2
       a = -2.500      CL = -0.2649
      Cm = -0.0016     CD =  0.01120   =>   CDf =  0.00540    CDp =  0.00580

 Side 1  free  transition at x/c =  0.9180   72
 Side 2  free  transition at x/c =  0.7815   68

   8   rms: 0.1305E-05   max: -.1353E-04   D at   72  2
       a = -2.500      CL = -0.2649
      Cm = -0.0016     CD =  0.01120   =>   CDf =  0.00540    CDp =  0.00580
 plradd ia,ip,cpol            4           0  3.26565909E-03

 Point added to stored polar  1
 Point written to save file  r140sm_Re200k.base.pol                          
 Dump file unspecified or not available
 Calculating wake trajectory ...
 Calculating source influence matrix ...

 Solving BL system ...

 Side 1  free  transition at x/c =  0.9180   72
 Side 2  free  transition at x/c =  0.7815   68

   1   rms: 0.1188E+00   max: -.4956E+00   T at   68  2
       a = -2.000      CL = -0.1782
      Cm = -0.0069     CD =  0.01113   =>   CDf =  0.00561    CDp =  0.00552

 Side 1  free  transition at x/c =  0.9113   72
 Side 2  free  transition at x/c =  0.7904   67

   2   rms: 0.1258E+00   max: -.8837E+00   T at   67  2   RLX: 0.566
       a = -2.000      CL = -0.2083
      Cm = -0.0034     CD =  0.01247   =>   CDf =  0.00566    CDp =  0.00681

 MRCHDU: Convergence failed at  70  side 2    Res =  0.5656E+02
 MRCHDU: Convergence failed at  71  side 2    Res =  0.3186E+01
 MRCHDU: Convergence failed at  72  side 2    Res =  0.4511E+01
 MRCHDU: Convergence failed at  73  side 2    Res =  0.1118E+02
 MRCHDU: Convergence failed at  74  side 2    Res =  0.8158E+02
 MRCHDU: Convergence failed at  75  side 2    Res =  0.3226E+02
 MRCHDU: Convergence failed at  76  side 2    Res =  0.1966E+02
 MRCHDU: Convergence failed at  77  side 2    Res =  0.1568E+02
 MRCHDU: Convergence failed at  78  side 2    Res =  0.1469E+02
 MRCHDU: Convergence failed at  79  side 2    Res =  0.1516E+02
 MRCHDU: Convergence failed at  80  side 2    Res =  0.1899E+02
 MRCHDU: Convergence failed at  81  side 2    Res =  0.4407E+02
 MRCHDU: Convergence failed at  82  side 2    Res =  0.9744E+02
 MRCHDU: Convergence failed at  83  side 2    Res =  0.1886E+02
 Side 1  free  transition at x/c =  0.8955   71
 Side 2  free  transition at x/c =  0.8173   69

   3   rms: 0.3100E+00   max: 0.1377E+01   T at   69  2   RLX: 0.519
       a = -2.000      CL = -0.1186
      Cm = -0.0072     CD =  0.00803   =>   CDf =  0.00517    CDp =  0.00286

 Side 1  free  transition at x/c =  0.9342   74
 Side 2  free  transition at x/c =  0.7791   66

   4   rms: 0.1756E+00   max: -.1029E+01   T at   66  2   RLX: 0.486
       a = -2.000      CL = -0.1252
      Cm = -0.0186     CD =  0.01226   =>   CDf =  0.00558    CDp =  0.00667

 MRCHDU: Convergence failed at  69  side 2    Res =  0.2469E+01
 MRCHDU: Convergence failed at  70  side 2    Res =  0.3809E+01
 MRCHDU: Convergence failed at  71  side 2    Res =  0.5204E+01
 MRCHDU: Convergence failed at  72  side 2    Res =  0.7875E+01
 MRCHDU: Convergence failed at  73  side 2    Res =  0.1491E+02
 MRCHDU: Convergence failed at  74  side 2    Res =  0.8681E+01
 MRCHDU: Convergence failed at  75  side 2    Res =  0.3775E+01
 MRCHDU: Convergence failed at  76  side 2    Res =  0.4131E+01
 MRCHDU: Convergence failed at  77  side 2    Res =  0.4196E+01
 MRCHDU: Convergence failed at  78  side 2    Res =  0.1025E+02
 MRCHDU: Convergence failed at  79  side 2    Res =  0.2320E+02
 MRCHDU: Convergence failed at  80  side 2    Res =  0.1567E+02
 MRCHDU: Convergence failed at  81  side 2    Res =  0.1046E+02
 MRCHDU: Convergence failed at  82  side 2    Res =  0.7543E+01
 MRCHDU: Convergence failed at  83  side 2    Res =  0.6432E+01
 Side 1  free  transition at x/c =  0.9266   73
 Side 2  free  transition at x/c =  0.8094   69

   5   rms: 0.2810E+00   max: 0.1260E+01   C at   69  2
       a = -2.000      CL = -0.0702
      Cm = -0.0298     CD =  0.00979   =>   CDf =  0.00529    CDp =  0.00450

 Side 1  free  transition at x/c =  0.9299   73
 Side 2  free  transition at x/c =  0.7793   66

   6   rms: 0.2074E+00   max: -.1173E+01   T at   66  2   RLX: 0.426
       a = -2.000      CL = -0.1231
      Cm = -0.0218     CD =  0.01214   =>   CDf =  0.00563    CDp =  0.00651

 MRCHDU: Convergence failed at  69  side 2    Res =  0.3832E+01
 MRCHDU: Convergence failed at  70  side 2    Res =  0.9318E+01
 MRCHDU: Convergence failed at  71  side 2    Res =  0.2406E+02
 MRCHDU: Convergence failed at  72  side 2    Res =  0.1082E+02
 MRCHDU: Convergence failed at  73  side 2    Res =  0.5573E+01
 MRCHDU: Convergence failed at  74  side 2    Res =  0.7663E+01
 MRCHDU: Convergence failed at  75  side 2    Res =  0.9241E+01
 MRCHDU: Convergence failed at  76  side 2    Res =  0.1031E+02
 MRCHDU: Convergence failed at  77  side 2    Res =  0.1089E+02
 MRCHDU: Convergence failed at  78  side 2    Res =  0.1115E+02
 MRCHDU: Convergence failed at  79  side 2    Res =  0.1109E+02
 MRCHDU: Convergence failed at  80  side 2    Res =  0.1082E+02
 MRCHDU: Convergence failed at  81  side 2    Res =  0.1006E+02
 MRCHDU: Convergence failed at  82  side 2    Res =  0.9275E+01
 MRCHDU: Convergence failed at  83  side 2    Res =  0.7973E+01
 MRCHDU: Convergence failed at  85  side 2    Res =  0.3705E+01
 Side 1  free  transition at x/c =  0.9098   72
 Side 2  free  transition at x/c =  0.8099   69

   7   rms: 0.2503E+00   max: 0.1295E+01   C at   69  2
       a = -2.000      CL = -0.0524
      Cm = -0.0335     CD =  0.01013   =>   CDf =  0.00528    CDp =  0.00485

 Side 1  free  transition at x/c =  0.9364   74
 Side 2  free  transition at x/c =  0.7778   66

   8   rms: 0.1738E+00   max: -.1002E+01   T at   66  2   RLX: 0.499
       a = -2.000      CL = -0.0948
      Cm = -0.0281     CD =  0.01163   =>   CDf =  0.00562    CDp =  0.00602

 MRCHDU: Convergence failed at  70  side 2    Res =  0.1423E+01
 MRCHDU: Convergence failed at  71  side 2    Res =  0.1250E+02
 MRCHDU: Convergence failed at  72  side 2    Res =  0.5803E+01
 MRCHDU: Convergence failed at  73  side 2    Res =  0.1891E+01
 MRCHDU: Convergence failed at  74  side 2    Res =  0.1342E+01
 MRCHDU: Convergence failed at  75  side 2    Res =  0.1856E+01
 MRCHDU: Convergence failed at  76  side 2    Res =  0.1974E+01
 MRCHDU: Convergence failed at  77  side 2    Res =  0.2038E+01
 MRCHDU: Convergence failed at  78  side 2    Res =  0.2068E+01
 MRCHDU: Convergence failed at  79  side 2    Res =  0.2077E+01
 MRCHDU: Convergence failed at  80  side 2    Res =  0.2091E+01
 MRCHDU: Convergence failed at  81  side 2    Res =  0.2172E+01
 MRCHDU: Convergence failed at  82  side 2    Res =  0.2336E+01
 MRCHDU: Convergence failed at  83  side 2    Res =  0.3396E+01
 Side 1  free  transition at x/c =  0.9264   73
 Side 2  free  transition at x/c =  0.8081   69

   9   rms: 0.1957E+00   max: 0.1401E+01   D at   83  2
       a = -2.000      CL = -0.0962
      Cm = -0.0247     CD =  0.00988   =>   CDf =  0.00541    CDp =  0.00447

 Side 1  free  transition at x/c =  0.9198   73
 Side 2  free  transition at x/c =  0.7936   68

  10   rms: 0.9993E-01   max: 0.3203E+00   D at   83  2
       a = -2.000      CL = -0.1996
      Cm = -0.0030     CD =  0.01088   =>   CDf =  0.00573    CDp =  0.00515

 Side 1  free  transition at x/c =  0.9053   72
 Side 2  free  transition at x/c =  0.8074   69

  11   rms: 0.1525E-01   max: -.1610E+00   D at   72  1
       a = -2.000      CL = -0.1985
      Cm = -0.0035     CD =  0.01106   =>   CDf =  0.00557    CDp =  0.00549

 Side 1  free  transition at x/c =  0.9005   71
 Side 2  free  transition at x/c =  0.8067   68

  12   rms: 0.8552E-02   max: -.5352E-01   C at   71  1
       a = -2.000      CL = -0.2057
      Cm = -0.0019     CD =  0.01108   =>   CDf =  0.00556    CDp =  0.00552

 Side 1  free  transition at x/c =  0.8970   71
 Side 2  free  transition at x/c =  0.8064   68

  13   rms: 0.3176E-02   max: -.2292E-01   D at   73  1
       a = -2.000      CL = -0.2038
      Cm = -0.0023     CD =  0.01107   =>   CDf =  0.00554    CDp =  0.00552

 Side 1  free  transition at x/c =  0.8982   71
 Side 2  free  transition at x/c =  0.8064   68

  14   rms: 0.1775E-03   max: -.1440E-02   D at   73  1
       a = -2.000      CL = -0.2037
      Cm = -0.0023     CD =  0.01107   =>   CDf =  0.00554    CDp =  0.00552

 Side 1  free  transition at x/c =  0.8982   71
 Side 2  free  transition at x/c =  0.8064   68

  15   rms: 0.1891E-05   max: 0.1207E-04   D at   70  2
       a = -2.000      CL = -0.2037
      Cm = -0.0023     CD =  0.01107   =>   CDf =  0.00554    CDp =  0.00552
 plradd ia,ip,cpol            5           0  3.26565909E-03

 Point added to stored polar  1
 Point written to save file  r140sm_Re200k.base.pol                          
 Dump file unspecified or not available
 Calculating wake trajectory ...
 Calculating source influence matrix ...

 Solving BL system ...

 Side 1  free  transition at x/c =  0.8982   71
 Side 2  free  transition at x/c =  0.8064   68

   1   rms: 0.8643E-01   max: -.4408E+00   T at   68  2
       a = -1.500      CL = -0.1592
      Cm = -0.0003     CD =  0.01078   =>   CDf =  0.00554    CDp =  0.00523

 MRCHDU: Convergence failed at  71  side 2    Res =  0.3300E+01
 MRCHDU: Convergence failed at  72  side 2    Res =  0.4640E+02
 MRCHDU: Convergence failed at  73  side 2    Res =  0.5342E+01
 MRCHDU: Convergence failed at  74  side 2    Res =  0.3763E+01
 MRCHDU: Convergence failed at  75  side 2    Res =  0.4579E+01
 MRCHDU: Convergence failed at  76  side 2    Res =  0.6471E+01
 MRCHDU: Convergence failed at  77  side 2    Res =  0.8860E+01
 MRCHDU: Convergence failed at  78  side 2    Res =  0.1154E+02
 MRCHDU: Convergence failed at  79  side 2    Res =  0.1396E+02
 MRCHDU: Convergence failed at  80  side 2    Res =  0.1456E+02
 MRCHDU: Convergence failed at  81  side 2    Res =  0.1233E+02
 MRCHDU: Convergence failed at  82  side 2    Res =  0.9686E+01
 MRCHDU: Convergence failed at  83  side 2    Res =  0.7952E+01
 Side 1  free  transition at x/c =  0.8752   69
 Side 2  free  transition at x/c =  0.8405   71

   2   rms: 0.2930E+00   max: 0.1364E+01   C at   71  2   RLX: 0.603
       a = -1.500      CL = -0.0617
      Cm = -0.0117     CD =  0.00818   =>   CDf =  0.00555    CDp =  0.00263

 MRCHDU: Convergence failed at  74  side 1    Res =  0.4132E+01
 MRCHDU: Convergence failed at  75  side 1    Res =  0.3028E+01
 MRCHDU: Convergence failed at  76  side 1    Res =  0.5363E+01
 MRCHDU: Convergence failed at  77  side 1    Res =  0.2207E+02
 MRCHDU: Convergence failed at  78  side 1    Res =  0.6608E+02
 MRCHDU: Convergence failed at  79  side 1    Res =  0.6281E+02
 MRCHDU: Convergence failed at  80  side 1    Res =  0.1142E+02
 Side 1  free  transition at x/c =  0.9184   74
 Side 2  free  transition at x/c =  0.8096   68
 idif Ue xi dudx           1  0.42949957      2.14493275E-03   200.23918    
 Uenew xinew           2  0.12121374      6.05344772E-04

   3   rms: 0.2409E+00   max: 0.1558E+01   C at   74  1   RLX: 0.853
       a = -1.500      CL = -0.1551
      Cm = -0.0010     CD =  0.00955   =>   CDf =  0.00575    CDp =  0.00380

 Side 1  free  transition at x/c =  0.8694   69
 Side 2  free  transition at x/c =  0.8269   70

   4   rms: 0.6081E-01   max: -.5803E+00   D at   72  1   RLX: 0.862
       a = -1.500      CL = -0.1442
      Cm = -0.0023     CD =  0.01113   =>   CDf =  0.00563    CDp =  0.00550

 Side 1  free  transition at x/c =  0.8809   70
 Side 2  free  transition at x/c =  0.8249   70

   5   rms: 0.1062E-01   max: -.1233E+00   D at   76  1
       a = -1.500      CL = -0.1400
      Cm = -0.0037     CD =  0.01089   =>   CDf =  0.00564    CDp =  0.00524

 Side 1  free  transition at x/c =  0.8798   70
 Side 2  free  transition at x/c =  0.8247   70

   6   rms: 0.7606E-03   max: -.1074E-01   D at   76  1
       a = -1.500      CL = -0.1394
      Cm = -0.0038     CD =  0.01089   =>   CDf =  0.00565    CDp =  0.00524

 Side 1  free  transition at x/c =  0.8798   70
 Side 2  free  transition at x/c =  0.8247   70

   7   rms: 0.6817E-05   max: -.9913E-04   D at   76  1
       a = -1.500      CL = -0.1394
      Cm = -0.0038     CD =  0.01089   =>   CDf =  0.00566    CDp =  0.00524
 plradd ia,ip,cpol            6           0  2.86316816E-02

 Point added to stored polar  1
 Point written to save file  r140sm_Re200k.base.pol                          
 Dump file unspecified or not available
 Calculating wake trajectory ...
 Calculating source influence matrix ...

 Solving BL system ...

 Side 1  free  transition at x/c =  0.8798   70
 Side 2  free  transition at x/c =  0.8247   70

   1   rms: 0.9693E-01   max: -.2872E+00   T at   70  2
       a = -1.000      CL = -0.0677
      Cm = -0.0066     CD =  0.01072   =>   CDf =  0.00581    CDp =  0.00491

 Side 1  free  transition at x/c =  0.8656   70
 Side 2  free  transition at x/c =  0.8402   70

   2   rms: 0.2199E-01   max: 0.1396E+00   D at    3  1
       a = -1.000      CL = -0.0794
      Cm = -0.0044     CD =  0.01079   =>   CDf =  0.00578    CDp =  0.00501

 Side 1  free  transition at x/c =  0.8597   69
 Side 2  free  transition at x/c =  0.8441   70

   3   rms: 0.4049E-02   max: -.4652E-01   D at   69  1
       a = -1.000      CL = -0.0794
      Cm = -0.0044     CD =  0.01078   =>   CDf =  0.00578    CDp =  0.00500

 Side 1  free  transition at x/c =  0.8603   69
 Side 2  free  transition at x/c =  0.8440   70

   4   rms: 0.3635E-03   max: 0.2653E-02   D at   71  1
       a = -1.000      CL = -0.0796
      Cm = -0.0043     CD =  0.01079   =>   CDf =  0.00577    CDp =  0.00501

 Side 1  free  transition at x/c =  0.8601   69
 Side 2  free  transition at x/c =  0.8441   70

   5   rms: 0.3692E-05   max: -.3363E-04   D at   71  1
       a = -1.000      CL = -0.0796
      Cm = -0.0043     CD =  0.01079   =>   CDf =  0.00577    CDp =  0.00501
 plradd ia,ip,cpol            7           0  0.31060332    

 Point added to stored polar  1
 Point written to save file  r140sm_Re200k.base.pol                          
 Dump file unspecified or not available
 Calculating wake trajectory ...
 Calculating source influence matrix ...

 Solving BL system ...

 Side 1  free  transition at x/c =  0.8601   69
 Side 2  free  transition at x/c =  0.8441   70

   1   rms: 0.7866E-01   max: -.3619E+00   T at   70  2
       a = -0.500      CL = -0.0412
      Cm = -0.0009     CD =  0.01077   =>   CDf =  0.00577    CDp =  0.00500

 Side 1  free  transition at x/c =  0.8321   67
 Side 2  free  transition at x/c =  0.8713   72

   2   rms: 0.3880E-01   max: -.3234E+00   D at   68  1
       a = -0.500      CL = -0.0271
      Cm = -0.0032     CD =  0.01064   =>   CDf =  0.00584    CDp =  0.00479

 Side 1  free  transition at x/c =  0.8440   68
 Side 2  free  transition at x/c =  0.8672   72

   3   rms: 0.2022E-01   max: 0.1829E+00   D at   69  1
       a = -0.500      CL = -0.0208
      Cm = -0.0047     CD =  0.01070   =>   CDf =  0.00580    CDp =  0.00491

 Side 1  free  transition at x/c =  0.8408   68
 Side 2  free  transition at x/c =  0.8639   72

   4   rms: 0.3580E-02   max: -.2697E-01   D at   80  1
       a = -0.500      CL = -0.0223
      Cm = -0.0044     CD =  0.01074   =>   CDf =  0.00584    CDp =  0.00490

 Side 1  free  transition at x/c =  0.8395   68
 Side 2  free  transition at x/c =  0.8642   72

   5   rms: 0.1596E-03   max: -.1631E-02   D at   69  1
       a = -0.500      CL = -0.0224
      Cm = -0.0044     CD =  0.01074   =>   CDf =  0.00585    CDp =  0.00490

 Side 1  free  transition at x/c =  0.8395   68
 Side 2  free  transition at x/c =  0.8642   72

   6   rms: 0.2261E-05   max: 0.1278E-04   D at   73  2
       a = -0.500      CL = -0.0224
      Cm = -0.0044     CD =  0.01074   =>   CDf =  0.00585    CDp =  0.00490
 plradd ia,ip,cpol            8           0  0.38063321    

 Point added to stored polar  1
 Point written to save file  r140sm_Re200k.base.pol                          
 Dump file unspecified or not available
 Calculating wake trajectory ...
 Calculating source influence matrix ...

 Solving BL system ...

 Side 1  free  transition at x/c =  0.8395   68
 Side 2  free  transition at x/c =  0.8642   72

   1   rms: 0.9770E-01   max: -.2745E+00   T at   72  2
       a =  0.000      CL =  0.0502
      Cm = -0.0074     CD =  0.01075   =>   CDf =  0.00593    CDp =  0.00482

 Side 1  free  transition at x/c =  0.8243   68
 Side 2  free  transition at x/c =  0.8766   72

   2   rms: 0.3356E-01   max: -.2271E+00   T at   74  2
       a =  0.000      CL =  0.0355
      Cm = -0.0045     CD =  0.01073   =>   CDf =  0.00594    CDp =  0.00479

 Side 1  free  transition at x/c =  0.8206   67
 Side 2  free  transition at x/c =  0.8830   72

   3   rms: 0.1001E-01   max: -.6262E-01   D at   73  2
       a =  0.000      CL =  0.0430
      Cm = -0.0061     CD =  0.01081   =>   CDf =  0.00593    CDp =  0.00488

 Side 1  free  transition at x/c =  0.8222   68
 Side 2  free  transition at x/c =  0.8817   72

   4   rms: 0.2709E-02   max: -.4105E-01   D at   67  1
       a =  0.000      CL =  0.0422
      Cm = -0.0060     CD =  0.01081   =>   CDf =  0.00594    CDp =  0.00486

 Side 1  free  transition at x/c =  0.8219   68
 Side 2  free  transition at x/c =  0.8820   72

   5   rms: 0.2137E-03   max: 0.1819E-02   D at   68  1
       a =  0.000      CL =  0.0422
      Cm = -0.0060     CD =  0.01081   =>   CDf =  0.00593    CDp =  0.00488

 Side 1  free  transition at x/c =  0.8218   68
 Side 2  free  transition at x/c =  0.8820   72

   6   rms: 0.1503E-05   max: -.9079E-05   D at   81  1
       a =  0.000      CL =  0.0422
      Cm = -0.0060     CD =  0.01081   =>   CDf =  0.00593    CDp =  0.00488
 plradd ia,ip,cpol            9           0  0.36695290    

 Point added to stored polar  1
 Point written to save file  r140sm_Re200k.base.pol                          
 Dump file unspecified or not available
 Calculating wake trajectory ...
 Calculating source influence matrix ...

 Solving BL system ...

 Side 1  free  transition at x/c =  0.8218   68
 Side 2  free  transition at x/c =  0.8820   72

   1   rms: 0.9690E-01   max: -.2550E+00   T at   72  2
       a =  0.500      CL =  0.1142
      Cm = -0.0089     CD =  0.01088   =>   CDf =  0.00597    CDp =  0.00491

 Side 1  free  transition at x/c =  0.8092   68
 Side 2  free  transition at x/c =  0.8975   72

   2   rms: 0.1720E-01   max: -.1449E+00   D at   68  1
       a =  0.500      CL =  0.1081
      Cm = -0.0079     CD =  0.01096   =>   CDf =  0.00592    CDp =  0.00504

 Side 1  free  transition at x/c =  0.8040   67
 Side 2  free  transition at x/c =  0.8998   72

   3   rms: 0.3906E-02   max: -.4670E-01   D at   67  1
       a =  0.500      CL =  0.1062
      Cm = -0.0076     CD =  0.01097   =>   CDf =  0.00597    CDp =  0.00501

 Side 1  free  transition at x/c =  0.8030   67
 Side 2  free  transition at x/c =  0.9002   72

   4   rms: 0.2685E-03   max: -.2370E-02   D at   68  1
       a =  0.500      CL =  0.1064
      Cm = -0.0076     CD =  0.01097   =>   CDf =  0.00595    CDp =  0.00502

 Side 1  free  transition at x/c =  0.8031   67
 Side 2  free  transition at x/c =  0.9001   72

   5   rms: 0.3255E-05   max: 0.1830E-04   T at   72  2
       a =  0.500      CL =  0.1064
      Cm = -0.0076     CD =  0.01097   =>   CDf =  0.00595    CDp =  0.00502
 plradd ia,ip,cpol           10           0  0.35326761    

 Point added to stored polar  1
 Point written to save file  r140sm_Re200k.base.pol                          
 Dump file unspecified or not available
 Calculating wake trajectory ...
 Calculating source influence matrix ...

 Solving BL system ...

 Side 1  free  transition at x/c =  0.8031   67
 Side 2  free  transition at x/c =  0.9001   72

   1   rms: 0.8240E-01   max: -.3979E+00   T at   72  2
       a =  1.000      CL =  0.1562
      Cm = -0.0065     CD =  0.01109   =>   CDf =  0.00595    CDp =  0.00513

 Side 1  free  transition at x/c =  0.7840   66
 Side 2  free  transition at x/c =  0.9287   74

   2   rms: 0.4872E-01   max: 0.3598E+00   C at   74  2
       a =  1.000      CL =  0.1647
      Cm = -0.0081     CD =  0.01093   =>   CDf =  0.00601    CDp =  0.00492

 Side 1  free  transition at x/c =  0.7863   66
 Side 2  free  transition at x/c =  0.9223   74

   3   rms: 0.2029E-01   max: 0.1101E+00   T at   74  2
       a =  1.000      CL =  0.1745
      Cm = -0.0102     CD =  0.01117   =>   CDf =  0.00597    CDp =  0.00520

 Side 1  free  transition at x/c =  0.7859   66
 Side 2  free  transition at x/c =  0.9168   73

   4   rms: 0.3208E-02   max: -.2385E-01   D at   73  2
       a =  1.000      CL =  0.1736
      Cm = -0.0100     CD =  0.01120   =>   CDf =  0.00598    CDp =  0.00522

 Side 1  free  transition at x/c =  0.7859   66
 Side 2  free  transition at x/c =  0.9175   73

   5   rms: 0.5504E-03   max: 0.4072E-02   T at   73  2
       a =  1.000      CL =  0.1741
      Cm = -0.0101     CD =  0.01120   =>   CDf =  0.00598    CDp =  0.00522

 Side 1  free  transition at x/c =  0.7859   66
 Side 2  free  transition at x/c =  0.9173   73

   6   rms: 0.4333E-04   max: -.2985E-03   T at   73  2
       a =  1.000      CL =  0.1741
      Cm = -0.0101     CD =  0.01120   =>   CDf =  0.00598    CDp =  0.00522
 plradd ia,ip,cpol           11           0  0.35326761    

 Point added to stored polar  1
 Point written to save file  r140sm_Re200k.base.pol                          
 Dump file unspecified or not available
 Calculating wake trajectory ...
 Calculating source influence matrix ...

 Solving BL system ...

 Side 1  free  transition at x/c =  0.7859   66
 Side 2  free  transition at x/c =  0.9173   73

   1   rms: 0.1521E+00   max: -.1580E+01   T at   73  2   RLX: 0.316
       a =  1.500      CL =  0.1507
      Cm = -0.0016     CD =  0.01107   =>   CDf =  0.00598    CDp =  0.00510

 MRCHDU: Convergence failed at  76  side 2    Res =  0.3088E+01
 MRCHDU: Convergence failed at  77  side 2    Res =  0.7798E+01
 MRCHDU: Convergence failed at  78  side 2    Res =  0.6619E+02
 MRCHDU: Convergence failed at  79  side 2    Res =  0.2570E+03
 MRCHDU: Convergence failed at  80  side 2    Res =  0.1573E+02
 Side 1  free  transition at x/c =  0.7796   65
 Side 2  free  transition at x/c =  0.9548   76

   2   rms: 0.2006E+00   max: 0.1332E+01   C at   76  2
       a =  1.500      CL =  0.2717
      Cm = -0.0187     CD =  0.01009   =>   CDf =  0.00599    CDp =  0.00411

 Side 1  free  transition at x/c =  0.7682   66
 Side 2  free  transition at x/c =  0.9142   72

   3   rms: 0.8274E-01   max: -.5758E+00   T at   72  2   RLX: 0.868
       a =  1.500      CL =  0.2292
      Cm = -0.0102     CD =  0.01205   =>   CDf =  0.00596    CDp =  0.00609

 Side 1  free  transition at x/c =  0.7692   66
 Side 2  free  transition at x/c =  0.9440   74

   4   rms: 0.1786E+00   max: 0.1369E+01   T at   74  2   RLX: 0.536
       a =  1.500      CL =  0.2997
      Cm = -0.0246     CD =  0.01146   =>   CDf =  0.00599    CDp =  0.00547

 Side 1  free  transition at x/c =  0.7706   66
 Side 2  free  transition at x/c =  0.9096   72

   5   rms: 0.8577E-01   max: -.5503E+00   T at   72  2   RLX: 0.909
       a =  1.500      CL =  0.2415
      Cm = -0.0128     CD =  0.01157   =>   CDf =  0.00592    CDp =  0.00566

 Side 1  free  transition at x/c =  0.7697   66
 Side 2  free  transition at x/c =  0.9381   74

   6   rms: 0.4038E-01   max: 0.3192E+00   D at   75  2
       a =  1.500      CL =  0.2467
      Cm = -0.0137     CD =  0.01139   =>   CDf =  0.00597    CDp =  0.00542

 Side 1  free  transition at x/c =  0.7699   66
 Side 2  free  transition at x/c =  0.9325   74

   7   rms: 0.6258E-02   max: 0.3693E-01   D at   76  2
       a =  1.500      CL =  0.2487
      Cm = -0.0142     CD =  0.01148   =>   CDf =  0.00596    CDp =  0.00553

 Side 1  free  transition at x/c =  0.7699   66
 Side 2  free  transition at x/c =  0.9313   73

   8   rms: 0.1633E+00   max: 0.1369E+01   T at   73  2   RLX: 0.503
       a =  1.500      CL =  0.3176
      Cm = -0.0286     CD =  0.01164   =>   CDf =  0.00596    CDp =  0.00568

 Side 1  free  transition at x/c =  0.7712   66
 Side 2  free  transition at x/c =  0.9009   71

   9   rms: 0.2480E+00   max: -.2022E+01   T at   71  2   RLX: 0.247
       a =  1.500      CL =  0.2684
      Cm = -0.0198     CD =  0.01323   =>   CDf =  0.00590    CDp =  0.00733

 Side 1  free  transition at x/c =  0.7701   66
 Side 2  free  transition at x/c =  0.9293   73

  10   rms: 0.4577E-01   max: 0.4351E+00   D at   73  2
       a =  1.500      CL =  0.2497
      Cm = -0.0144     CD =  0.01133   =>   CDf =  0.00595    CDp =  0.00538

 Side 1  free  transition at x/c =  0.7700   66
 Side 2  free  transition at x/c =  0.9314   73

  11   rms: 0.1829E+00   max: 0.1522E+01   T at   73  2   RLX: 0.473
       a =  1.500      CL =  0.3235
      Cm = -0.0299     CD =  0.01159   =>   CDf =  0.00595    CDp =  0.00564

 Side 1  free  transition at x/c =  0.7714   66
 Side 2  free  transition at x/c =  0.8996   71

  12   rms: 0.1868E+00   max: -.1421E+01   T at   71  2   RLX: 0.352
       a =  1.500      CL =  0.2714
      Cm = -0.0203     CD =  0.01307   =>   CDf =  0.00589    CDp =  0.00718

 Side 1  free  transition at x/c =  0.7701   66
 Side 2  free  transition at x/c =  0.9278   73

  13   rms: 0.3660E-01   max: 0.3946E+00   D at   73  2
       a =  1.500      CL =  0.2530
      Cm = -0.0151     CD =  0.01141   =>   CDf =  0.00595    CDp =  0.00546

 Side 1  free  transition at x/c =  0.7700   66
 Side 2  free  transition at x/c =  0.9294   73

  14   rms: 0.2781E-02   max: 0.2443E-01   T at   73  2
       a =  1.500      CL =  0.2552
      Cm = -0.0155     CD =  0.01150   =>   CDf =  0.00595    CDp =  0.00555

 Side 1  free  transition at x/c =  0.7700   66
 Side 2  free  transition at x/c =  0.9281   73

  15   rms: 0.6893E-03   max: -.4707E-02   T at   73  2
       a =  1.500      CL =  0.2547
      Cm = -0.0154     CD =  0.01150   =>   CDf =  0.00595    CDp =  0.00555

 Side 1  free  transition at x/c =  0.7700   66
 Side 2  free  transition at x/c =  0.9283   73

  16   rms: 0.2841E-04   max: -.2050E-03   T at   73  2
       a =  1.500      CL =  0.2547
      Cm = -0.0154     CD =  0.01150   =>   CDf =  0.00595    CDp =  0.00555
 plradd ia,ip,cpol           12           0  0.33958063    

 Point added to stored polar  1
 Point written to save file  r140sm_Re200k.base.pol                          
 Dump file unspecified or not available
 Calculating wake trajectory ...
 Calculating source influence matrix ...

 Solving BL system ...

 Side 1  free  transition at x/c =  0.7700   66
 Side 2  free  transition at x/c =  0.9283   73

   1   rms: 0.8730E-01   max: -.4315E+00   T at   73  2
       a =  2.000      CL =  0.3120
      Cm = -0.0158     CD =  0.01170   =>   CDf =  0.00595    CDp =  0.00575

 Side 1  free  transition at x/c =  0.7571   65
 Side 2  free  transition at x/c =  0.9549   75

   2   rms: 0.5870E-01   max: 0.4509E+00   D at   76  2
       a =  2.000      CL =  0.3215
      Cm = -0.0179     CD =  0.01162   =>   CDf =  0.00590    CDp =  0.00572

 Side 1  free  transition at x/c =  0.7541   65
 Side 2  free  transition at x/c =  0.9460   75

   3   rms: 0.1197E-01   max: 0.8157E-01   D at   78  2
       a =  2.000      CL =  0.3274
      Cm = -0.0192     CD =  0.01179   =>   CDf =  0.00579    CDp =  0.00601

 Side 1  free  transition at x/c =  0.7547   66
 Side 2  free  transition at x/c =  0.9438   73

   4   rms: 0.3520E+00   max: 0.6063E+01   T at    2  1   RLX: 0.181
       a =  2.000      CL =  0.3351
      Cm = -0.0208     CD =  0.01170   =>   CDf =  0.00588    CDp =  0.00582

 Side 1  free  transition at x/c =  0.7548   66
 Side 2  free  transition at x/c =  0.9398   73

   5   rms: 0.6514E-02   max: 0.5693E-01   D at    4  1
       a =  2.000      CL =  0.3378
      Cm = -0.0214     CD =  0.01180   =>   CDf =  0.00587    CDp =  0.00593

 Side 1  free  transition at x/c =  0.7548   66
 Side 2  free  transition at x/c =  0.9385   73

   6   rms: 0.6908E-03   max: -.4632E-02   D at   77  2
       a =  2.000      CL =  0.3374
      Cm = -0.0213     CD =  0.01180   =>   CDf =  0.00587    CDp =  0.00593

 Side 1  free  transition at x/c =  0.7548   66
 Side 2  free  transition at x/c =  0.9387   73

   7   rms: 0.1260E-04   max: -.8431E-04   D at   77  2
       a =  2.000      CL =  0.3374
      Cm = -0.0213     CD =  0.01180   =>   CDf =  0.00587    CDp =  0.00593
 plradd ia,ip,cpol           13           0  3.87658575E-03

 Point added to stored polar  1
 Point written to save file  r140sm_Re200k.base.pol                          
 Dump file unspecified or not available
 Calculating wake trajectory ...
 Calculating source influence matrix ...

 Solving BL system ...

 Side 1  free  transition at x/c =  0.7548   66
 Side 2  free  transition at x/c =  0.9387   73

   1   rms: 0.9974E-01   max: -.2427E+00   T at   73  2
       a =  2.500      CL =  0.4178
      Cm = -0.0266     CD =  0.01205   =>   CDf =  0.00587    CDp =  0.00618

 Side 1  free  transition at x/c =  0.7407   65
 Side 2  free  transition at x/c =  0.9507   74

   2   rms: 0.1382E-01   max: -.1904E+00   D at   65  1
       a =  2.500      CL =  0.4162
      Cm = -0.0265     CD =  0.01206   =>   CDf =  0.00572    CDp =  0.00634

 Side 1  free  transition at x/c =  0.7385   64
 Side 2  free  transition at x/c =  0.9512   74

   3   rms: 0.2868E-02   max: -.2969E-01   D at   65  1
       a =  2.500      CL =  0.4164
      Cm = -0.0265     CD =  0.01206   =>   CDf =  0.00578    CDp =  0.00627

 Side 1  free  transition at x/c =  0.7389   65
 Side 2  free  transition at x/c =  0.9511   74

   4   rms: 0.4696E-02   max: -.5547E-01   D at   64  1
       a =  2.500      CL =  0.4163
      Cm = -0.0265     CD =  0.01205   =>   CDf =  0.00581    CDp =  0.00624

 Side 1  free  transition at x/c =  0.7390   65
 Side 2  free  transition at x/c =  0.9512   74

   5   rms: 0.2842E-03   max: -.2426E-02   D at   68  1
       a =  2.500      CL =  0.4163
      Cm = -0.0265     CD =  0.01206   =>   CDf =  0.00578    CDp =  0.00628

 Side 1  free  transition at x/c =  0.7389   65
 Side 2  free  transition at x/c =  0.9512   74

   6   rms: 0.1394E-05   max: -.1120E-04   D at   68  1
       a =  2.500      CL =  0.4163
      Cm = -0.0265     CD =  0.01206   =>   CDf =  0.00578    CDp =  0.00628
 plradd ia,ip,cpol           14           0  3.87658575E-03

 Point added to stored polar  1
 Point written to save file  r140sm_Re200k.base.pol                          
 Dump file unspecified or not available
 Calculating wake trajectory ...
 Calculating source influence matrix ...

 Solving BL system ...

 Side 1  free  transition at x/c =  0.7389   65
 Side 2  free  transition at x/c =  0.9512   74

   1   rms: 0.1092E+00   max: -.2298E+00   T at   74  2
       a =  3.000      CL =  0.4994
      Cm = -0.0319     CD =  0.01223   =>   CDf =  0.00559    CDp =  0.00664

 Side 1  free  transition at x/c =  0.7023   63
 Side 2  free  transition at x/c =  0.9612   74

   2   rms: 0.5608E-01   max: -.4827E+00   D at   65  1
       a =  3.000      CL =  0.4921
      Cm = -0.0305     CD =  0.01205   =>   CDf =  0.00554    CDp =  0.00651

 Side 1  free  transition at x/c =  0.7074   63
 Side 2  free  transition at x/c =  0.9643   74

   3   rms: 0.6065E-02   max: -.5839E-01   D at   68  1
       a =  3.000      CL =  0.4906
      Cm = -0.0303     CD =  0.01209   =>   CDf =  0.00564    CDp =  0.00645

 Side 1  free  transition at x/c =  0.7062   63
 Side 2  free  transition at x/c =  0.9649   74

   4   rms: 0.1815E-03   max: -.2433E-02   D at   68  1
       a =  3.000      CL =  0.4906
      Cm = -0.0303     CD =  0.01209   =>   CDf =  0.00565    CDp =  0.00644

 Side 1  free  transition at x/c =  0.7062   63
 Side 2  free  transition at x/c =  0.9649   74

   5   rms: 0.1331E-05   max: 0.9621E-05   T at   74  2
       a =  3.000      CL =  0.4906
      Cm = -0.0303     CD =  0.01209   =>   CDf =  0.00565    CDp =  0.00644
 plradd ia,ip,cpol           15           0  1.82728760E-03

 Point added to stored polar  1
 Point written to save file  r140sm_Re200k.base.pol                          
 Dump file unspecified or not available
 Calculating wake trajectory ...
 Calculating source influence matrix ...

 Solving BL system ...

 Side 1  free  transition at x/c =  0.7062   63
 Side 2  free  transition at x/c =  0.9649   74

   1   rms: 0.1095E+00   max: 0.6278E+00   T at   63  1
       a =  3.500      CL =  0.5664
      Cm = -0.0346     CD =  0.01203   =>   CDf =  0.00565    CDp =  0.00638

 Side 1  free  transition at x/c =  0.6501   59
 Side 2  free  transition at x/c =  0.9779   75

   2   rms: 0.7699E-01   max: -.6365E+00   D at   62  1   RLX: 0.786
       a =  3.500      CL =  0.5637
      Cm = -0.0332     CD =  0.01233   =>   CDf =  0.00553    CDp =  0.00679

 Side 1  free  transition at x/c =  0.6594   60
 Side 2  free  transition at x/c =  0.9782   75

   3   rms: 0.1439E-01   max: -.1553E+00   D at   62  1
       a =  3.500      CL =  0.5637
      Cm = -0.0336     CD =  0.01193   =>   CDf =  0.00559    CDp =  0.00634

 Side 1  free  transition at x/c =  0.6589   60
 Side 2  free  transition at x/c =  0.9789   75

   4   rms: 0.6961E-03   max: -.1031E-01   D at   64  1
       a =  3.500      CL =  0.5637
      Cm = -0.0336     CD =  0.01195   =>   CDf =  0.00560    CDp =  0.00635

 Side 1  free  transition at x/c =  0.6587   60
 Side 2  free  transition at x/c =  0.9789   75

   5   rms: 0.5965E-05   max: -.8518E-04   D at   64  1
       a =  3.500      CL =  0.5637
      Cm = -0.0336     CD =  0.01195   =>   CDf =  0.00561    CDp =  0.00634
 plradd ia,ip,cpol           16           0  6.69644389E-04

 Point added to stored polar  1
 Point written to save file  r140sm_Re200k.base.pol                          
 Dump file unspecified or not available
 Calculating wake trajectory ...
 Calculating source influence matrix ...

 Solving BL system ...

 Side 1  free  transition at x/c =  0.6587   60
 Side 2  free  transition at x/c =  0.9789   75

   1   rms: 0.2027E+00   max: 0.1352E+01   T at   60  1   RLX: 0.404
       a =  4.000      CL =  0.5915
      Cm = -0.0342     CD =  0.01178   =>   CDf =  0.00561    CDp =  0.00617

 Side 1  free  transition at x/c =  0.6209   57
 Side 2  free  transition at x/c =  0.9844   75

   2   rms: 0.1029E+00   max: 0.6151E+00   T at   57  1   RLX: 0.882
       a =  4.000      CL =  0.6143
      Cm = -0.0331     CD =  0.01179   =>   CDf =  0.00564    CDp =  0.00614

 Side 1  free  transition at x/c =  0.5680   53
 Side 2 forced transition at x/c =  1.0000   77

   3   rms: 0.8020E-01   max: -.4841E+00   D at   55  1
       a =  4.000      CL =  0.6555
      Cm = -0.0409     CD =  0.01145   =>   CDf =  0.00552    CDp =  0.00593

 Side 1  free  transition at x/c =  0.4838   48
 Side 2  free  transition at x/c =  0.9839   74
 idif Ue xi dudx           1  0.22701198      5.48231602E-03   41.408043    
 Uenew xinew           2  1.47593080E-03  3.56435776E-05

   4   rms: 0.9750E-01   max: -.8617E+00   D at    2  1   RLX: 0.580
       a =  4.000      CL =  0.6360
      Cm = -0.0364     CD =  0.01253   =>   CDf =  0.00621    CDp =  0.00632

 Side 1  free  transition at x/c =  0.5421   51
 Side 2  free  transition at x/c =  0.9923   76

   5   rms: 0.5957E-01   max: -.9906E+00   T at    2  2   RLX: 0.505
       a =  4.000      CL =  0.6363
      Cm = -0.0369     CD =  0.01182   =>   CDf =  0.00576    CDp =  0.00606

 Side 1  free  transition at x/c =  0.5380   51
 Side 2  free  transition at x/c =  0.9931   76

   6   rms: 0.8984E-02   max: 0.8193E-01   D at   49  1
       a =  4.000      CL =  0.6321
      Cm = -0.0360     CD =  0.01176   =>   CDf =  0.00577    CDp =  0.00599

 Side 1  free  transition at x/c =  0.5348   51
 Side 2  free  transition at x/c =  0.9937   76

   7   rms: 0.3809E-03   max: -.5307E-02   D at   52  1
       a =  4.000      CL =  0.6319
      Cm = -0.0360     CD =  0.01177   =>   CDf =  0.00582    CDp =  0.00595

 Side 1  free  transition at x/c =  0.5347   51
 Side 2  free  transition at x/c =  0.9937   76

   8   rms: 0.4149E-05   max: 0.4265E-04   C at   51  1
       a =  4.000      CL =  0.6319
      Cm = -0.0360     CD =  0.01177   =>   CDf =  0.00582    CDp =  0.00595
 plradd ia,ip,cpol           17           0  6.69644389E-04

 Point added to stored polar  1
 Point written to save file  r140sm_Re200k.base.pol                          
 Dump file unspecified or not available
 Calculating wake trajectory ...
 Calculating source influence matrix ...

 Solving BL system ...

 Side 1  free  transition at x/c =  0.5347   51
 Side 2  free  transition at x/c =  0.9937   76

   1   rms: 0.2783E+00   max: 0.2951E+01   C at   51  1   RLX: 0.284
       a =  4.500      CL =  0.6476
      Cm = -0.0360     CD =  0.01197   =>   CDf =  0.00557    CDp =  0.00640

 Side 1  free  transition at x/c =  0.3554   39
 Side 2  free  transition at x/c =  0.9987   76

   2   rms: 0.1096E+01   max: 0.1922E+02   C at   39  1   RLX: 0.078
       a =  4.500      CL =  0.6469
      Cm = -0.0350     CD =  0.01290   =>   CDf =  0.00656    CDp =  0.00634

 Side 1  free  transition at x/c =  0.2813   33
 Side 2  free  transition at x/c =  0.9998   76

   3   rms: 0.1219E+01   max: 0.2183E+02   C at   33  1   RLX: 0.069
       a =  4.500      CL =  0.6459
      Cm = -0.0348     CD =  0.01342   =>   CDf =  0.00698    CDp =  0.00645

 Side 1  free  transition at x/c =  0.2209   29
 Side 2 forced transition at x/c =  1.0000   76

   4   rms: 0.6105E+00   max: 0.1154E+02   C at   29  1   RLX: 0.130
       a =  4.500      CL =  0.6422
      Cm = -0.0338     CD =  0.01401   =>   CDf =  0.00730    CDp =  0.00671

 Side 1  free  transition at x/c =  0.1474   23
 Side 2 forced transition at x/c =  1.0000   76

   5   rms: 0.7970E+00   max: 0.1536E+02   C at   23  1   RLX: 0.098
       a =  4.500      CL =  0.6392
      Cm = -0.0331     CD =  0.01449   =>   CDf =  0.00768    CDp =  0.00681

 Side 1  free  transition at x/c =  0.1182   21
 Side 2 forced transition at x/c =  1.0000   76

   6   rms: 0.5212E+00   max: 0.1075E+02   C at   21  1   RLX: 0.140
       a =  4.500      CL =  0.6368
      Cm = -0.0323     CD =  0.01483   =>   CDf =  0.00787    CDp =  0.00696

 Side 1  free  transition at x/c =  0.0932   19
 Side 2 forced transition at x/c =  1.0000   76

   7   rms: 0.3002E+00   max: 0.6184E+01   C at   19  1   RLX: 0.243
       a =  4.500      CL =  0.6350
      Cm = -0.0312     CD =  0.01524   =>   CDf =  0.00804    CDp =  0.00720

 Side 1  free  transition at x/c =  0.0651   17
 Side 2 forced transition at x/c =  1.0000   76

   8   rms: 0.8139E-01   max: 0.7278E+00   T at   17  1
       a =  4.500      CL =  0.6385
      Cm = -0.0287     CD =  0.01598   =>   CDf =  0.00824    CDp =  0.00774

 Side 1  free  transition at x/c =  0.0435   15
 Side 2 forced transition at x/c =  1.0000   76

   9   rms: 0.2700E-01   max: -.4463E+00   D at   17  1
       a =  4.500      CL =  0.6373
      Cm = -0.0289     CD =  0.01601   =>   CDf =  0.00832    CDp =  0.00769

 Side 1  free  transition at x/c =  0.0472   16
 Side 2 forced transition at x/c =  1.0000   76

  10   rms: 0.1002E-01   max: -.1381E+00   D at   15  1
       a =  4.500      CL =  0.6399
      Cm = -0.0293     CD =  0.01579   =>   CDf =  0.00834    CDp =  0.00745

 Side 1  free  transition at x/c =  0.0481   16
 Side 2 forced transition at x/c =  1.0000   76

  11   rms: 0.1849E-02   max: 0.2512E-01   D at   16  1
       a =  4.500      CL =  0.6399
      Cm = -0.0293     CD =  0.01579   =>   CDf =  0.00832    CDp =  0.00747

 Side 1  free  transition at x/c =  0.0479   16
 Side 2 forced transition at x/c =  1.0000   76

  12   rms: 0.9408E-05   max: 0.1276E-03   D at   16  1
       a =  4.500      CL =  0.6399
      Cm = -0.0293     CD =  0.01579   =>   CDf =  0.00831    CDp =  0.00748
 plradd ia,ip,cpol           18           0  6.69644389E-04

 Point added to stored polar  1
 Point written to save file  r140sm_Re200k.base.pol                          
 Dump file unspecified or not available
 Calculating wake trajectory ...
 Calculating source influence matrix ...

 Solving BL system ...

 Side 1  free  transition at x/c =  0.0479   16
 Side 2 forced transition at x/c =  1.0000   76

   1   rms: 0.1277E+00   max: 0.1083E+01   T at   16  1   RLX: 0.662
       a =  5.000      CL =  0.6540
      Cm = -0.0254     CD =  0.01670   =>   CDf =  0.00831    CDp =  0.00839

 MRCHDU: Convergence failed at  16  side 1    Res =  0.4709E+01
 MRCHDU: Convergence failed at  17  side 1    Res =  0.2533E+01
 MRCHDU: Convergence failed at  18  side 1    Res =  0.1863E+02
 MRCHDU: Convergence failed at  19  side 1    Res =  0.5022E+01
 MRCHDU: Convergence failed at  20  side 1    Res =  0.4306E+01
 MRCHDU: Convergence failed at  21  side 1    Res =  0.4055E+01
 MRCHDU: Convergence failed at  22  side 1    Res =  0.3999E+01
 MRCHDU: Convergence failed at  23  side 1    Res =  0.4015E+01
 MRCHDU: Convergence failed at  24  side 1    Res =  0.3972E+01
 MRCHDU: Convergence failed at  25  side 1    Res =  0.4062E+01
 MRCHDU: Convergence failed at  26  side 1    Res =  0.4181E+01
 MRCHDU: Convergence failed at  27  side 1    Res =  0.4334E+01
 MRCHDU: Convergence failed at  28  side 1    Res =  0.4486E+01
 MRCHDU: Convergence failed at  29  side 1    Res =  0.4642E+01
 MRCHDU: Convergence failed at  30  side 1    Res =  0.4791E+01
 MRCHDU: Convergence failed at  31  side 1    Res =  0.4674E+01
 MRCHDU: Convergence failed at  32  side 1    Res =  0.4803E+01
 MRCHDU: Convergence failed at  33  side 1    Res =  0.4813E+01
 MRCHDU: Convergence failed at  34  side 1    Res =  0.4466E+01
 MRCHDU: Convergence failed at  35  side 1    Res =  0.4190E+01
 MRCHDU: Convergence failed at  36  side 1    Res =  0.4128E+01
 MRCHDU: Convergence failed at  37  side 1    Res =  0.4199E+01
 MRCHDU: Convergence failed at  38  side 1    Res =  0.1211E+02
 MRCHDU: Convergence failed at  39  side 1    Res =  0.1303E+02
 MRCHDU: Convergence failed at  40  side 1    Res =  0.1422E+02
 MRCHDU: Convergence failed at  41  side 1    Res =  0.1627E+02
 MRCHDU: Convergence failed at  42  side 1    Res =  0.1836E+02
 MRCHDU: Convergence failed at  43  side 1    Res =  0.2206E+02
 MRCHDU: Convergence failed at  44  side 1    Res =  0.2794E+02
 MRCHDU: Convergence failed at  45  side 1    Res =  0.3586E+02
 MRCHDU: Convergence failed at  46  side 1    Res =  0.5277E+02
 MRCHDU: Convergence failed at  47  side 1    Res =  0.1201E+03
 MRCHDU: Convergence failed at  48  side 1    Res =  0.1807E+04
 MRCHDU: Convergence failed at  49  side 1    Res =  0.1008E+03
 MRCHDU: Convergence failed at  50  side 1    Res =  0.5885E+02
 MRCHDU: Convergence failed at  51  side 1    Res =  0.4388E+02
 MRCHDU: Convergence failed at  52  side 1    Res =  0.3493E+02
 MRCHDU: Convergence failed at  53  side 1    Res =  0.1024E+02
 MRCHDU: Convergence failed at  54  side 1    Res =  0.1054E+02
 MRCHDU: Convergence failed at  55  side 1    Res =  0.1102E+02
 MRCHDU: Convergence failed at  56  side 1    Res =  0.1181E+02
 MRCHDU: Convergence failed at  57  side 1    Res =  0.1222E+02
 MRCHDU: Convergence failed at  58  side 1    Res =  0.1268E+02
 MRCHDU: Convergence failed at  59  side 1    Res =  0.1315E+02
 MRCHDU: Convergence failed at  60  side 1    Res =  0.1401E+02
 MRCHDU: Convergence failed at  61  side 1    Res =  0.1488E+02
 MRCHDU: Convergence failed at  62  side 1    Res =  0.1575E+02
 MRCHDU: Convergence failed at  63  side 1    Res =  0.1669E+02
 MRCHDU: Convergence failed at  64  side 1    Res =  0.1777E+02
 MRCHDU: Convergence failed at  65  side 1    Res =  0.1871E+02
 MRCHDU: Convergence failed at  66  side 1    Res =  0.2101E+02
 MRCHDU: Convergence failed at  67  side 1    Res =  0.2141E+02
 MRCHDU: Convergence failed at  68  side 1    Res =  0.2042E+02
 MRCHDU: Convergence failed at  69  side 1    Res =  0.1837E+02
 MRCHDU: Convergence failed at  70  side 1    Res =  0.1638E+02
 MRCHDU: Convergence failed at  71  side 1    Res =  0.3398E+02
 MRCHDU: Convergence failed at  72  side 1    Res =  0.3256E+02
 MRCHDU: Convergence failed at  73  side 1    Res =  0.3276E+02
 MRCHDU: Convergence failed at  74  side 1    Res =  0.3247E+02
 MRCHDU: Convergence failed at  75  side 1    Res =  0.3618E+02
 MRCHDU: Convergence failed at  76  side 1    Res =  0.8290E+02
 MRCHDU: Convergence failed at  77  side 1    Res =  0.1415E+03
 MRCHDU: Convergence failed at  78  side 1    Res =  0.1106E+03
 MRCHDU: Convergence failed at  79  side 1    Res =  0.1818E+02
 MRCHDU: Convergence failed at  80  side 1    Res =  0.1815E+02
 MRCHDU: Convergence failed at  81  side 1    Res =  0.6295E+02
 MRCHDU: Convergence failed at  82  side 1    Res =  0.6866E+02
 MRCHDU: Convergence failed at  83  side 1    Res =  0.2513E+03
 MRCHDU: Convergence failed at  84  side 1    Res =  0.3917E+02
 MRCHDU: Convergence failed at  85  side 1    Res =  0.2906E+02
 MRCHDU: Convergence failed at  86  side 1    Res =  0.1940E+02
 Side 1  free  transition at x/c =  0.0382   15
 Side 2 forced transition at x/c =  1.0000   76

   2   rms: 0.7542E+00   max: 0.1626E+01   D at   80  2   RLX: 0.243
       a =  5.000      CL =  1.2108
      Cm = -0.2451     CD =  0.00726   =>   CDf =  0.00229    CDp =  0.00496

 Side 1  free  transition at x/c =  0.0549   16
 Side 2 forced transition at x/c =  1.0000   76

   3   rms: 0.3789E+00   max: -.2207E+01   C at   16  1   RLX: 0.227
       a =  5.000      CL =  0.9804
      Cm = -0.1392     CD =  0.01534   =>   CDf =  0.00897    CDp =  0.00637

 Side 1  free  transition at x/c =  0.0434   15
 Side 2 forced transition at x/c =  1.0000   76

   4   rms: 0.3073E+00   max: -.1360E+01   C at   15  1   RLX: 0.368
       a =  5.000      CL =  0.8717
      Cm = -0.0946     CD =  0.01510   =>   CDf =  0.00861    CDp =  0.00650

 Side 1  free  transition at x/c =  0.0385   15
 Side 2 forced transition at x/c =  1.0000   76

   5   rms: 0.3476E+00   max: -.1404E+01   D at   61  1   RLX: 0.356
       a =  5.000      CL =  0.7953
      Cm = -0.0633     CD =  0.01379   =>   CDf =  0.00832    CDp =  0.00547

 MRCHDU: Convergence failed at  55  side 1    Res =  0.3277E+00
 Side 1  free  transition at x/c =  0.0371   15
 Side 2 forced transition at x/c =  1.0000   76

   6   rms: 0.4020E+00   max: 0.2235E+01   T at   15  1   RLX: 0.671
       a =  5.000      CL =  0.9306
      Cm = -0.0847     CD =  0.01873   =>   CDf =  0.00910    CDp =  0.00963

 MRCHDU: Convergence failed at  15  side 1    Res =  0.8509E+02
 MRCHDU: Convergence failed at  16  side 1    Res =  0.4578E+02
 MRCHDU: Convergence failed at  17  side 1    Res =  0.2974E+02
 MRCHDU: Convergence failed at  18  side 1    Res =  0.3146E+02
 MRCHDU: Convergence failed at  19  side 1    Res =  0.4070E+02
 MRCHDU: Convergence failed at  20  side 1    Res =  0.1267E+03
 MRCHDU: Convergence failed at  21  side 1    Res =  0.6387E+02
 MRCHDU: Convergence failed at  22  side 1    Res =  0.1283E+03
 MRCHDU: Convergence failed at  23  side 1    Res =  0.6847E+02
 MRCHDU: Convergence failed at  24  side 1    Res =  0.4733E+02
 MRCHDU: Convergence failed at  25  side 1    Res =  0.2519E+03
 MRCHDU: Convergence failed at  26  side 1    Res =  0.2141E+03
 MRCHDU: Convergence failed at  27  side 1    Res =  0.6055E+02
 MRCHDU: Convergence failed at  28  side 1    Res =  0.8911E+02
 MRCHDU: Convergence failed at  29  side 1    Res =  0.1175E+03
 MRCHDU: Convergence failed at  30  side 1    Res =  0.8252E+02
 MRCHDU: Convergence failed at  31  side 1    Res =  0.6744E+02
 MRCHDU: Convergence failed at  32  side 1    Res =  0.1051E+03
 MRCHDU: Convergence failed at  33  side 1    Res =  0.7296E+02
 MRCHDU: Convergence failed at  34  side 1    Res =  0.3905E+03
 MRCHDU: Convergence failed at  35  side 1    Res =  0.1492E+03
 MRCHDU: Convergence failed at  36  side 1    Res =  0.6295E+02
 MRCHDU: Convergence failed at  37  side 1    Res =  0.9158E+03
 MRCHDU: Convergence failed at  38  side 1    Res =  0.4755E+02
 MRCHDU: Convergence failed at  39  side 1    Res =  0.4353E+02
 MRCHDU: Convergence failed at  40  side 1    Res =  0.4123E+02
 MRCHDU: Convergence failed at  41  side 1    Res =  0.3906E+02
 MRCHDU: Convergence failed at  42  side 1    Res =  0.3720E+02
 MRCHDU: Convergence failed at  43  side 1    Res =  0.1684E+03
 MRCHDU: Convergence failed at  44  side 1    Res =  0.8563E+02
 MRCHDU: Convergence failed at  45  side 1    Res =  0.1981E+03
 MRCHDU: Convergence failed at  46  side 1    Res =  0.5874E+03
 MRCHDU: Convergence failed at  47  side 1    Res =  0.8715E+02
 MRCHDU: Convergence failed at  48  side 1    Res =  0.1512E+03
 MRCHDU: Convergence failed at  49  side 1    Res =  0.2797E+03
 MRCHDU: Convergence failed at  50  side 1    Res =  0.9693E+02
 MRCHDU: Convergence failed at  51  side 1    Res =  0.1121E+03
 MRCHDU: Convergence failed at  52  side 1    Res =  0.4039E+03
 MRCHDU: Convergence failed at  53  side 1    Res =  0.6965E+02
 MRCHDU: Convergence failed at  54  side 1    Res =  0.6313E+02
 MRCHDU: Convergence failed at  55  side 1    Res =  0.8524E+02
 MRCHDU: Convergence failed at  56  side 1    Res =  0.4716E+02
 MRCHDU: Convergence failed at  57  side 1    Res =  0.5007E+02
 MRCHDU: Convergence failed at  58  side 1    Res =  0.1210E+03
 MRCHDU: Convergence failed at  59  side 1    Res =  0.9599E+02
 MRCHDU: Convergence failed at  60  side 1    Res =  0.1232E+03
 MRCHDU: Convergence failed at  61  side 1    Res =  0.1550E+03
 MRCHDU: Convergence failed at  62  side 1    Res =  0.9052E+02
 MRCHDU: Convergence failed at  63  side 1    Res =  0.5854E+02
 MRCHDU: Convergence failed at  64  side 1    Res =  0.4451E+02
 MRCHDU: Convergence failed at  65  side 1    Res =  0.4214E+02
 MRCHDU: Convergence failed at  66  side 1    Res =  0.6319E+02
 MRCHDU: Convergence failed at  67  side 1    Res =  0.1589E+03
 MRCHDU: Convergence failed at  68  side 1    Res =  0.8888E+02
 MRCHDU: Convergence failed at  69  side 1    Res =  0.9507E+02
 MRCHDU: Convergence failed at  70  side 1    Res =  0.8853E+02
 MRCHDU: Convergence failed at  71  side 1    Res =  0.8306E+02
 MRCHDU: Convergence failed at  72  side 1    Res =  0.7993E+02
 MRCHDU: Convergence failed at  73  side 1    Res =  0.7801E+02
 MRCHDU: Convergence failed at  74  side 1    Res =  0.7703E+02
 MRCHDU: Convergence failed at  75  side 1    Res =  0.7657E+02
 MRCHDU: Convergence failed at  76  side 1    Res =  0.7607E+02
 MRCHDU: Convergence failed at  77  side 1    Res =  0.1032E+03
 MRCHDU: Convergence failed at  78  side 1    Res =  0.9253E+02
 MRCHDU: Convergence failed at  79  side 1    Res =  0.9535E+02
 MRCHDU: Convergence failed at  80  side 1    Res =  0.1003E+03
 MRCHDU: Convergence failed at  81  side 1    Res =  0.1123E+03
 MRCHDU: Convergence failed at  82  side 1    Res =  0.4682E+03
 MRCHDU: Convergence failed at  83  side 1    Res =  0.1495E+03
 MRCHDU: Convergence failed at  84  side 1    Res =  0.1630E+03
 MRCHDU: Convergence failed at  85  side 1    Res =  0.4005E+03
 MRCHDU: Convergence failed at  86  side 1    Res =  0.3340E+03
 Side 1  free  transition at x/c =  0.0295   14
 Side 2 forced transition at x/c =  1.0000   76

   7   rms: 0.1317E+01   max: -.7070E+01   T at   14  1   RLX: 0.071
       a =  5.000      CL =  2.5230
      Cm = -0.5979     CD =  0.00578   =>   CDf =  0.00175    CDp =  0.00404

 Side 1  free  transition at x/c =  0.0312   14
 Side 2 forced transition at x/c =  1.0000   76

   8   rms: 0.9028E+00   max: -.3067E+01   D at   70  2   RLX: 0.163
       a =  5.000      CL =  1.2823
      Cm = -0.2261     CD =  0.04472   =>   CDf =  0.00239    CDp =  0.04233

 Side 1  free  transition at x/c =  0.0328   15
 Side 2 forced transition at x/c =  1.0000   76

   9   rms: 0.1472E+01   max: -.9596E+01   T at   15  1   RLX: 0.052
       a =  5.000      CL =  1.2132
      Cm = -0.2082     CD =  0.06186   =>   CDf =  0.00278    CDp =  0.05908

 Side 1  free  transition at x/c =  0.0357   15
 Side 2 forced transition at x/c =  1.0000   76

  10   rms: 0.6438E+00   max: -.4034E+01   T at   15  1   RLX: 0.124
       a =  5.000      CL =  1.0746
      Cm = -0.1748     CD =  0.05896   =>   CDf =  0.00295    CDp =  0.05601

 Side 1  free  transition at x/c =  0.0420   15
 Side 2 forced transition at x/c =  1.0000   76

  11   rms: 0.8080E+00   max: 0.6525E+01   T at   16  1   RLX: 0.144
       a =  5.000      CL =  0.9664
      Cm = -0.1431     CD =  0.06204   =>   CDf =  0.00316    CDp =  0.05888

 Side 1  free  transition at x/c =  0.0422   15
 Side 2 forced transition at x/c =  1.0000   76

  12   rms: 0.6076E+00   max: -.1419E+01   D at   14  1   RLX: 0.352
       a =  5.000      CL =  0.7291
      Cm = -0.0570     CD =  0.04544   =>   CDf =  0.00324    CDp =  0.04220

 Side 1  free  transition at x/c =  0.0630   17
 Side 2 forced transition at x/c =  1.0000   76

  13   rms: 0.3564E+00   max: -.1173E+01   D at   52  1   RLX: 0.426
       a =  5.000      CL =  0.5440
      Cm =  0.0176     CD =  0.02726   =>   CDf =  0.00621    CDp =  0.02105

 Side 1  free  transition at x/c =  0.0711   18
 Side 2 forced transition at x/c =  1.0000   76

  14   rms: 0.6252E+00   max: 0.4090E+01   C at   18  1   RLX: 0.169
       a =  5.000      CL =  0.5193
      Cm =  0.0333     CD =  0.02577   =>   CDf =  0.00627    CDp =  0.01950

 Side 1  free  transition at x/c =  0.0561   17
 Side 2 forced transition at x/c =  1.0000   76

  15   rms: 0.9440E+00   max: 0.6913E+01   C at   17  1   RLX: 0.150
       a =  5.000      CL =  0.5370
      Cm =  0.0367     CD =  0.02131   =>   CDf =  0.00667    CDp =  0.01464

 Side 1  free  transition at x/c =  0.0418   15
 Side 2 forced transition at x/c =  1.0000   76

  16   rms: 0.5818E+00   max: 0.2628E+01   T at   15  1   RLX: 0.239
       a =  5.000      CL =  0.6020
      Cm =  0.0175     CD =  0.01963   =>   CDf =  0.00723    CDp =  0.01239

 Side 1  free  transition at x/c =  0.0360   15
 Side 2 forced transition at x/c =  1.0000   76

  17   rms: 0.3408E+00   max: -.1312E+01   D at   71  1   RLX: 0.381
       a =  5.000      CL =  0.6438
      Cm =  0.0035     CD =  0.01952   =>   CDf =  0.00723    CDp =  0.01228

 Side 1  free  transition at x/c =  0.0343   15
 Side 2 forced transition at x/c =  1.0000   76

  18   rms: 0.2424E+00   max: -.1029E+01   D at   78  1   RLX: 0.486
       a =  5.000      CL =  0.7075
      Cm = -0.0167     CD =  0.01908   =>   CDf =  0.00757    CDp =  0.01151

 MRCHDU: Convergence failed at  15  side 1    Res =  0.6597E+01
 MRCHDU: Convergence failed at  16  side 1    Res =  0.4381E+01
 MRCHDU: Convergence failed at  17  side 1    Res =  0.6921E+01
 MRCHDU: Convergence failed at  18  side 1    Res =  0.3475E+02
 MRCHDU: Convergence failed at  19  side 1    Res =  0.6373E+01
 MRCHDU: Convergence failed at  20  side 1    Res =  0.8263E+01
 MRCHDU: Convergence failed at  21  side 1    Res =  0.1082E+02
 MRCHDU: Convergence failed at  22  side 1    Res =  0.1544E+02
 MRCHDU: Convergence failed at  23  side 1    Res =  0.3199E+02
 MRCHDU: Convergence failed at  24  side 1    Res =  0.9324E+02
 MRCHDU: Convergence failed at  25  side 1    Res =  0.1563E+03
 MRCHDU: Convergence failed at  26  side 1    Res =  0.4026E+02
 MRCHDU: Convergence failed at  27  side 1    Res =  0.3625E+02
 MRCHDU: Convergence failed at  28  side 1    Res =  0.3330E+02
 MRCHDU: Convergence failed at  29  side 1    Res =  0.3109E+02
 MRCHDU: Convergence failed at  30  side 1    Res =  0.2944E+02
 MRCHDU: Convergence failed at  31  side 1    Res =  0.2816E+02
 MRCHDU: Convergence failed at  32  side 1    Res =  0.2729E+02
 MRCHDU: Convergence failed at  33  side 1    Res =  0.2664E+02
[...]
 Side 2 forced transition at x/c =  1.0000   76

 116   rms: 0.5837E+03   max: -.1079E+05   T at   98  2   RLX: 0.000
       a = 10.250      CL =  0.9034
      Cm = -0.1233     CD =+Infinity   =>   CDf =  0.00354    CDp =+Infinity

 MRCHDU: Convergence failed at  93  side 2    Res =  0.8706E-02
 MRCHDU: Convergence failed at  94  side 2    Res =  0.9353E-01
 MRCHDU: Convergence failed at  95  side 2    Res =  0.3916E-01
 MRCHDU: Convergence failed at  96  side 2    Res =  0.3833E-01
 MRCHDU: Convergence failed at  97  side 2    Res =  0.2073E+00
 MRCHDU: Convergence failed at  98  side 2    Res =  0.1552E-04
 Side 1  free  transition at x/c =  0.0313   14
 Side 2 forced transition at x/c =  1.0000   76

 117   rms: 0.5917E+03   max: -.1131E+05   T at   98  2   RLX: 0.000
       a = 10.250      CL =  0.9034
      Cm = -0.1233     CD =+Infinity   =>   CDf =  0.00354    CDp =+Infinity

 MRCHDU: Convergence failed at  93  side 2    Res =  0.8697E-02
 MRCHDU: Convergence failed at  94  side 2    Res =  0.9358E-01
 MRCHDU: Convergence failed at  95  side 2    Res =  0.3938E-01
 MRCHDU: Convergence failed at  96  side 2    Res =  0.4634E-01
 MRCHDU: Convergence failed at  97  side 2    Res =  0.2081E-01
 Side 1  free  transition at x/c =  0.0313   14
 Side 2 forced transition at x/c =  1.0000   76

 118   rms: 0.3001E+03   max: -.4350E+04   T at   98  2   RLX: 0.000
       a = 10.250      CL =  0.9036
      Cm = -0.1233     CD =+Infinity   =>   CDf =  0.00354    CDp =+Infinity

 MRCHDU: Convergence failed at  93  side 2    Res =  0.8671E-02
 MRCHDU: Convergence failed at  94  side 2    Res =  0.9370E-01
 MRCHDU: Convergence failed at  95  side 2    Res =  0.3945E-01
 MRCHDU: Convergence failed at  96  side 2    Res =  0.3652E-01
 MRCHDU: Convergence failed at  97  side 2    Res =  0.4626E-02
 Side 1  free  transition at x/c =  0.0313   14
 Side 2 forced transition at x/c =  1.0000   76

 119   rms: 0.4944E+03   max: -.1043E+05   T at   97  2   RLX: 0.000
       a = 10.250      CL =  0.9036
      Cm = -0.1233     CD =+Infinity   =>   CDf =  0.00354    CDp =+Infinity

 MRCHDU: Convergence failed at  93  side 2    Res =  0.8660E-02
 MRCHDU: Convergence failed at  94  side 2    Res =  0.9374E-01
 MRCHDU: Convergence failed at  95  side 2    Res =  0.3869E-01
 MRCHDU: Convergence failed at  96  side 2    Res =  0.2360E-01
 MRCHDU: Convergence failed at  97  side 2    Res =  0.1372E-02
 Side 1  free  transition at x/c =  0.0313   14
 Side 2 forced transition at x/c =  1.0000   76

 120   rms: 0.9606E+03   max: 0.2203E+05   T at   97  2   RLX: 0.000
       a = 10.250      CL =  0.9037
      Cm = -0.1233     CD =+Infinity   =>   CDf =  0.00354    CDp =+Infinity

 MRCHDU: Convergence failed at  93  side 2    Res =  0.8652E-02
 MRCHDU: Convergence failed at  94  side 2    Res =  0.9394E-01
 MRCHDU: Convergence failed at  95  side 2    Res =  0.4828E-01
 MRCHDU: Convergence failed at  96  side 2    Res =  0.1431E+00
 MRCHDU: Convergence failed at  97  side 2    Res =  0.9349E-02
 Side 1  free  transition at x/c =  0.0313   14
 Side 2 forced transition at x/c =  1.0000   76

 121   rms: 0.3459E+03   max: -.6878E+04   T at   97  2   RLX: 0.000
       a = 10.250      CL =  0.9038
      Cm = -0.1233     CD =+Infinity   =>   CDf =  0.00354    CDp =+Infinity

 MRCHDU: Convergence failed at  93  side 2    Res =  0.8631E-02
 MRCHDU: Convergence failed at  94  side 2    Res =  0.9396E-01
 MRCHDU: Convergence failed at  95  side 2    Res =  0.4958E-01
 MRCHDU: Convergence failed at  96  side 2    Res =  0.2568E-01
 MRCHDU: Convergence failed at  97  side 2    Res =  0.1922E-02
 Side 1  free  transition at x/c =  0.0313   14
 Side 2 forced transition at x/c =  1.0000   76

 122   rms: 0.4098E+03   max: -.9299E+04   T at   97  2   RLX: 0.000
       a = 10.250      CL =  0.9038
      Cm = -0.1233     CD =+Infinity   =>   CDf =  0.00354    CDp =+Infinity

 MRCHDU: Convergence failed at  93  side 2    Res =  0.8629E-02
 MRCHDU: Convergence failed at  94  side 2    Res =  0.9416E-01
 MRCHDU: Convergence failed at  95  side 2    Res =  0.4695E-01
 MRCHDU: Convergence failed at  96  side 2    Res =  0.1639E-01
 MRCHDU: Convergence failed at  97  side 2    Res =  0.5925E-03
 Side 1  free  transition at x/c =  0.0313   14
 Side 2 forced transition at x/c =  1.0000   76

 123   rms: 0.4405E+03   max: -.9956E+04   T at   97  2   RLX: 0.000
       a = 10.250      CL =  0.9037
      Cm = -0.1233     CD =+Infinity   =>   CDf =  0.00354    CDp =+Infinity

 MRCHDU: Convergence failed at  93  side 2    Res =  0.8635E-02
 MRCHDU: Convergence failed at  94  side 2    Res =  0.9446E-01
 MRCHDU: Convergence failed at  95  side 2    Res =  0.4154E-01
 MRCHDU: Convergence failed at  96  side 2    Res =  0.1000E-01
 MRCHDU: Convergence failed at  97  side 2    Res =  0.1431E-03
 Side 1  free  transition at x/c =  0.0313   14
 Side 2 forced transition at x/c =  1.0000   76

 124   rms: 0.2783E+04   max: 0.5808E+05   T at   97  2   RLX: 0.000
       a = 10.250      CL =  0.9040
      Cm = -0.1233     CD =+Infinity   =>   CDf =  0.00354    CDp =+Infinity

 MRCHDU: Convergence failed at  93  side 2    Res =  0.8607E-02
 MRCHDU: Convergence failed at  94  side 2    Res =  0.9419E-01
 MRCHDU: Convergence failed at  95  side 2    Res =  0.1024E+00
 MRCHDU: Convergence failed at  96  side 2    Res =  0.2001E+00
 MRCHDU: Convergence failed at  97  side 2    Res =  0.1785E-02
 Side 1  free  transition at x/c =  0.0313   14
 Side 2 forced transition at x/c =  1.0000   76

 125   rms: 0.5867E+02   max: 0.1361E+04   T at   97  2   RLX: 0.001
       a = 10.250      CL =  0.9032
      Cm = -0.1232     CD =+Infinity   =>   CDf =  0.00354    CDp =+Infinity

 MRCHDU: Convergence failed at  93  side 2    Res =  0.8580E-02
 MRCHDU: Convergence failed at  94  side 2    Res =  0.9905E-01
 MRCHDU: Convergence failed at  95  side 2    Res =  0.3516E-01
 MRCHDU: Convergence failed at  96  side 2    Res =  0.1388E+00
 MRCHDU: Convergence failed at  97  side 2    Res =  0.5511E-02
 Side 1  free  transition at x/c =  0.0313   14
 Side 2 forced transition at x/c =  1.0000   76

 126   rms: 0.7331E+03   max: -.1579E+05   T at   97  2   RLX: 0.000
       a = 10.250      CL =  0.9033
      Cm = -0.1232     CD =+Infinity   =>   CDf =  0.00354    CDp =+Infinity

 MRCHDU: Convergence failed at  93  side 2    Res =  0.8569E-02
 MRCHDU: Convergence failed at  94  side 2    Res =  0.9901E-01
 MRCHDU: Convergence failed at  95  side 2    Res =  0.3387E-01
 MRCHDU: Convergence failed at  96  side 2    Res =  0.1488E-01
 MRCHDU: Convergence failed at  97  side 2    Res =  0.1253E-02
 Side 1  free  transition at x/c =  0.0313   14
 Side 2 forced transition at x/c =  1.0000   76

 127   rms: 0.1857E+03   max: 0.4209E+04   T at   97  2   RLX: 0.000
       a = 10.250      CL =  0.9032
      Cm = -0.1231     CD =+Infinity   =>   CDf =  0.00354    CDp =+Infinity

 MRCHDU: Convergence failed at  93  side 2    Res =  0.8555E-02
 MRCHDU: Convergence failed at  94  side 2    Res =  0.1004E+00
 MRCHDU: Convergence failed at  95  side 2    Res =  0.2571E+00
 MRCHDU: Convergence failed at  96  side 2    Res =  0.2733E+00
 MRCHDU: Convergence failed at  97  side 2    Res =  0.2554E-01
 Side 1  free  transition at x/c =  0.0313   14
 Side 2 forced transition at x/c =  1.0000   76

 128   rms: 0.6478E+02   max: 0.1264E+04   T at   97  2   RLX: 0.001
       a = 10.250      CL =  0.9015
      Cm = -0.1228     CD =+Infinity   =>   CDf =  0.00354    CDp =+Infinity

 MRCHDU: Convergence failed at  93  side 2    Res =  0.8628E-02
 MRCHDU: Convergence failed at  94  side 2    Res =  0.9440E-01
 MRCHDU: Convergence failed at  95  side 2    Res =  0.4509E-01
 MRCHDU: Convergence failed at  96  side 2    Res =  0.3876E-01
 Side 1  free  transition at x/c =  0.0313   14
 Side 2 forced transition at x/c =  1.0000   76

 129   rms: 0.8386E+03   max: -.1547E+05   C at   98  2   RLX: 0.000
       a = 10.250      CL =  0.9015
      Cm = -0.1228     CD =+Infinity   =>   CDf =  0.00354    CDp =+Infinity

 MRCHDU: Convergence failed at  93  side 2    Res =  0.8621E-02
 MRCHDU: Convergence failed at  94  side 2    Res =  0.9443E-01
 MRCHDU: Convergence failed at  95  side 2    Res =  0.4509E-01
 MRCHDU: Convergence failed at  96  side 2    Res =  0.3837E-01
 MRCHDU: Convergence failed at  97  side 2    Res =  0.1472E+00
 Side 1  free  transition at x/c =  0.0313   14
 Side 2 forced transition at x/c =  1.0000   76

 130   rms: 0.2972E+03   max: -.4391E+04   C at   98  2   RLX: 0.000
       a = 10.250      CL =  0.9017
      Cm = -0.1228     CD =+Infinity   =>   CDf =  0.00354    CDp =+Infinity

 MRCHDU: Convergence failed at  93  side 2    Res =  0.8594E-02
 MRCHDU: Convergence failed at  94  side 2    Res =  0.9455E-01
 MRCHDU: Convergence failed at  95  side 2    Res =  0.4525E-01
 MRCHDU: Convergence failed at  96  side 2    Res =  0.4448E-01
 MRCHDU: Convergence failed at  97  side 2    Res =  0.9621E-02
 Side 1  free  transition at x/c =  0.0313   14
 Side 2 forced transition at x/c =  1.0000   76

 131   rms: 0.2546E+03   max: -.4639E+04   T at   97  2   RLX: 0.000
       a = 10.250      CL =  0.9018
      Cm = -0.1228     CD =+Infinity   =>   CDf =  0.00354    CDp =+Infinity

 MRCHDU: Convergence failed at  93  side 2    Res =  0.8570E-02
 MRCHDU: Convergence failed at  94  side 2    Res =  0.9465E-01
 MRCHDU: Convergence failed at  95  side 2    Res =  0.4538E-01
 MRCHDU: Convergence failed at  96  side 2    Res =  0.2871E-01
 MRCHDU: Convergence failed at  97  side 2    Res =  0.2426E-02
 Side 1  free  transition at x/c =  0.0313   14
 Side 2 forced transition at x/c =  1.0000   76

 132   rms: 0.5576E+03   max: -.1258E+05   T at   97  2   RLX: 0.000
       a = 10.250      CL =  0.9018
      Cm = -0.1228     CD =+Infinity   =>   CDf =  0.00354    CDp =+Infinity

 MRCHDU: Convergence failed at  93  side 2    Res =  0.8566E-02
 MRCHDU: Convergence failed at  94  side 2    Res =  0.9476E-01
 MRCHDU: Convergence failed at  95  side 2    Res =  0.4348E-01
 MRCHDU: Convergence failed at  96  side 2    Res =  0.1845E-01
 MRCHDU: Convergence failed at  97  side 2    Res =  0.7542E-03
 Side 1  free  transition at x/c =  0.0313   14
 Side 2 forced transition at x/c =  1.0000   76

 133   rms: 0.1909E+04   max: -.4365E+05   T at   97  2   RLX: 0.000
       a = 10.250      CL =  0.9017
      Cm = -0.1228     CD =+Infinity   =>   CDf =  0.00354    CDp =+Infinity

 MRCHDU: Convergence failed at  93  side 2    Res =  0.8571E-02
 MRCHDU: Convergence failed at  94  side 2    Res =  0.9489E-01
 MRCHDU: Convergence failed at  95  side 2    Res =  0.3918E-01
 MRCHDU: Convergence failed at  96  side 2    Res =  0.1151E-01
 MRCHDU: Convergence failed at  97  side 2    Res =  0.2048E-03
 Side 1  free  transition at x/c =  0.0313   14
 Side 2 forced transition at x/c =  1.0000   76

 134   rms: 0.3726E+03   max: 0.7991E+04   T at   97  2   RLX: 0.000
       a = 10.250      CL =  0.9019
      Cm = -0.1228     CD =+Infinity   =>   CDf =  0.00354    CDp =+Infinity

 MRCHDU: Convergence failed at  93  side 2    Res =  0.8540E-02
 MRCHDU: Convergence failed at  94  side 2    Res =  0.9530E-01
 MRCHDU: Convergence failed at  95  side 2    Res =  0.8335E-01
 MRCHDU: Convergence failed at  96  side 2    Res =  0.3598E+00
 MRCHDU: Convergence failed at  97  side 2    Res =  0.1485E-02
 Side 1  free  transition at x/c =  0.0313   14
 Side 2 forced transition at x/c =  1.0000   76

 135   rms: 0.5739E+02   max: 0.1325E+04   T at   97  2   RLX: 0.001
       a = 10.250      CL =  0.9011
      Cm = -0.1226     CD =+Infinity   =>   CDf =  0.00354    CDp =+Infinity

 MRCHDU: Convergence failed at  93  side 2    Res =  0.8517E-02
 MRCHDU: Convergence failed at  94  side 2    Res =  0.1001E+00
 MRCHDU: Convergence failed at  95  side 2    Res =  0.1621E+00
 MRCHDU: Convergence failed at  96  side 2    Res =  0.1002E+00
 MRCHDU: Convergence failed at  97  side 2    Res =  0.2028E-01
 Side 1  free  transition at x/c =  0.0313   14
 Side 2 forced transition at x/c =  1.0000   76

 136   rms: 0.2230E+02   max: 0.4654E+03   T at   97  2   RLX: 0.003
       a = 10.250      CL =  0.8981
      Cm = -0.1220     CD =+Infinity   =>   CDf =  0.00354    CDp =+Infinity

 MRCHDU: Convergence failed at  93  side 2    Res =  0.8517E-02
 MRCHDU: Convergence failed at  94  side 2    Res =  0.9605E-01
 MRCHDU: Convergence failed at  95  side 2    Res =  0.4246E-01
 MRCHDU: Convergence failed at  96  side 2    Res =  0.4185E-01
 MRCHDU: Convergence failed at  97  side 2    Res =  0.1858E+00
 Side 1  free  transition at x/c =  0.0313   14
 Side 2 forced transition at x/c =  1.0000   76

 137   rms: 0.2587E+03   max: -.4061E+04   C at   98  2   RLX: 0.000
       a = 10.250      CL =  0.8982
      Cm = -0.1220     CD =+Infinity   =>   CDf =  0.00354    CDp =+Infinity

 MRCHDU: Convergence failed at  93  side 2    Res =  0.8492E-02
 MRCHDU: Convergence failed at  94  side 2    Res =  0.9617E-01
 MRCHDU: Convergence failed at  95  side 2    Res =  0.4263E-01
 MRCHDU: Convergence failed at  96  side 2    Res =  0.6022E-01
 MRCHDU: Convergence failed at  97  side 2    Res =  0.1522E-01
 Side 1  free  transition at x/c =  0.0313   14
 Side 2 forced transition at x/c =  1.0000   76

 138   rms: 0.2444E+03   max: -.3906E+04   T at   97  2   RLX: 0.000
       a = 10.250      CL =  0.8983
      Cm = -0.1220     CD =+Infinity   =>   CDf =  0.00354    CDp =+Infinity

 MRCHDU: Convergence failed at  93  side 2    Res =  0.8463E-02
 MRCHDU: Convergence failed at  94  side 2    Res =  0.9629E-01
 MRCHDU: Convergence failed at  95  side 2    Res =  0.4349E-01
 MRCHDU: Convergence failed at  96  side 2    Res =  0.4206E-01
 MRCHDU: Convergence failed at  97  side 2    Res =  0.3127E-02
 Side 1  free  transition at x/c =  0.0313   14
 Side 2 forced transition at x/c =  1.0000   76

 139   rms: 0.6890E+03   max: -.1534E+05   T at   97  2   RLX: 0.000
       a = 10.250      CL =  0.8984
      Cm = -0.1220     CD =+Infinity   =>   CDf =  0.00354    CDp =+Infinity

 MRCHDU: Convergence failed at  93  side 2    Res =  0.8457E-02
 MRCHDU: Convergence failed at  94  side 2    Res =  0.9633E-01
 MRCHDU: Convergence failed at  95  side 2    Res =  0.4330E-01
 MRCHDU: Convergence failed at  96  side 2    Res =  0.2694E-01
 MRCHDU: Convergence failed at  97  side 2    Res =  0.9713E-03
 Side 1  free  transition at x/c =  0.0313   14
 Side 2 forced transition at x/c =  1.0000   76

 140   rms: 0.1911E+05   max: -.4419E+06   T at   97  2   RLX: 0.000
       a = 10.250      CL =  0.8983
      Cm = -0.1220     CD =+Infinity   =>   CDf =  0.00354    CDp =+Infinity

 MRCHDU: Convergence failed at  93  side 2    Res =  0.8461E-02
 MRCHDU: Convergence failed at  94  side 2    Res =  0.9640E-01
 MRCHDU: Convergence failed at  95  side 2    Res =  0.4099E-01
 MRCHDU: Convergence failed at  96  side 2    Res =  0.1708E-01
 MRCHDU: Convergence failed at  97  side 2    Res =  0.2979E-03
 Side 1  free  transition at x/c =  0.0313   14
 Side 2 forced transition at x/c =  1.0000   76

 141   rms: 0.1222E+04   max: 0.2716E+05   T at   97  2   RLX: 0.000
       a = 10.250      CL =  0.8985
      Cm = -0.1220     CD =+Infinity   =>   CDf =  0.00354    CDp =+Infinity

 MRCHDU: Convergence failed at  93  side 2    Res =  0.8437E-02
 MRCHDU: Convergence failed at  94  side 2    Res =  0.9629E-01
 MRCHDU: Convergence failed at  95  side 2    Res =  0.6516E-01
 MRCHDU: Convergence failed at  96  side 2    Res =  0.2559E+00
 MRCHDU: Convergence failed at  97  side 2    Res =  0.1849E-02
 Side 1  free  transition at x/c =  0.0313   14
 Side 2 forced transition at x/c =  1.0000   76

 142   rms: 0.1490E+03   max: 0.3458E+04   T at   97  2   RLX: 0.000
       a = 10.250      CL =  0.8982
      Cm = -0.1219     CD =+Infinity   =>   CDf =  0.00354    CDp =+Infinity

 MRCHDU: Convergence failed at  93  side 2    Res =  0.8432E-02
 MRCHDU: Convergence failed at  94  side 2    Res =  0.9828E-01
 MRCHDU: Convergence failed at  95  side 2    Res =  0.5069E-01
 MRCHDU: Convergence failed at  96  side 2    Res =  0.1442E+00
 MRCHDU: Convergence failed at  97  side 2    Res =  0.9432E-02
 Side 1  free  transition at x/c =  0.0313   14
 Side 2 forced transition at x/c =  1.0000   76

 143   rms: 0.3089E+03   max: -.6228E+04   T at   97  2   RLX: 0.000
       a = 10.250      CL =  0.8984
      Cm = -0.1219     CD =+Infinity   =>   CDf =  0.00354    CDp =+Infinity

 MRCHDU: Convergence failed at  93  side 2    Res =  0.8411E-02
 MRCHDU: Convergence failed at  94  side 2    Res =  0.9829E-01
 MRCHDU: Convergence failed at  95  side 2    Res =  0.5191E-01
 MRCHDU: Convergence failed at  96  side 2    Res =  0.2492E-01
 MRCHDU: Convergence failed at  97  side 2    Res =  0.1938E-02
 Side 1  free  transition at x/c =  0.0313   14
 Side 2 forced transition at x/c =  1.0000   76

 144   rms: 0.2984E+03   max: -.6808E+04   T at   97  2   RLX: 0.000
       a = 10.250      CL =  0.8983
      Cm = -0.1219     CD =+Infinity   =>   CDf =  0.00354    CDp =+Infinity

 MRCHDU: Convergence failed at  93  side 2    Res =  0.8408E-02
 MRCHDU: Convergence failed at  94  side 2    Res =  0.9858E-01
 MRCHDU: Convergence failed at  95  side 2    Res =  0.4887E-01
 MRCHDU: Convergence failed at  96  side 2    Res =  0.1593E-01
 MRCHDU: Convergence failed at  97  side 2    Res =  0.5965E-03
 Side 1  free  transition at x/c =  0.0313   14
 Side 2 forced transition at x/c =  1.0000   76

 145   rms: 0.2527E+03   max: -.5730E+04   T at   97  2   RLX: 0.000
       a = 10.250      CL =  0.8982
      Cm = -0.1219     CD =+Infinity   =>   CDf =  0.00354    CDp =+Infinity

 MRCHDU: Convergence failed at  93  side 2    Res =  0.8412E-02
 MRCHDU: Convergence failed at  94  side 2    Res =  0.9905E-01
 MRCHDU: Convergence failed at  95  side 2    Res =  0.4293E-01
 MRCHDU: Convergence failed at  96  side 2    Res =  0.9749E-02
 MRCHDU: Convergence failed at  97  side 2    Res =  0.1432E-03
 Side 1  free  transition at x/c =  0.0313   14
 Side 2 forced transition at x/c =  1.0000   76

 146   rms: 0.5739E+03   max: -.1201E+05   T at   97  2   RLX: 0.000
       a = 10.250      CL =  0.8981
      Cm = -0.1219     CD =+Infinity   =>   CDf =  0.00354    CDp =+Infinity

 MRCHDU: Convergence failed at  93  side 2    Res =  0.8420E-02
 MRCHDU: Convergence failed at  94  side 2    Res =  0.9937E-01
 MRCHDU: Convergence failed at  95  side 2    Res =  0.3400E-01
 MRCHDU: Convergence failed at  96  side 2    Res =  0.5203E-02
 Side 1  free  transition at x/c =  0.0313   14
 Side 2 forced transition at x/c =  1.0000   76

 147   rms: 0.8010E+02   max: 0.1404E+04   T at   97  2   RLX: 0.001
       a = 10.250      CL =  0.8977
      Cm = -0.1217     CD =+Infinity   =>   CDf =  0.00354    CDp =+Infinity

 MRCHDU: Convergence failed at  93  side 2    Res =  0.8359E-02
 MRCHDU: Convergence failed at  94  side 2    Res =  0.1037E+00
 MRCHDU: Convergence failed at  95  side 2    Res =  0.5739E+00
 MRCHDU: Convergence failed at  96  side 2    Res =  0.4243E+00
 MRCHDU: Convergence failed at  97  side 2    Res =  0.1133E-02
 Side 1  free  transition at x/c =  0.0313   14
 Side 2 forced transition at x/c =  1.0000   76

 148   rms: 0.3378E+01   max: 0.7670E+02   T at   97  2   RLX: 0.020
       a = 10.250      CL =  0.8846
      Cm = -0.1185     CD =+Infinity   =>   CDf =  0.00354    CDp =+Infinity

 MRCHDU: Convergence failed at  93  side 2    Res =  0.7762E-02
 MRCHDU: Convergence failed at  94  side 2    Res =  0.3175E+00
 MRCHDU: Convergence failed at  95  side 2    Res =  0.4937E-01
 MRCHDU: Convergence failed at  96  side 2    Res =  0.1049E+00
 MRCHDU: Convergence failed at  97  side 2    Res =  0.2434E-02
 Side 1  free  transition at x/c =  0.0313   14
 Side 2 forced transition at x/c =  1.0000   76

 149   rms: 0.1424E+03   max: -.3281E+04   T at   97  2   RLX: 0.000
       a = 10.250      CL =  0.8841
      Cm = -0.1184     CD =+Infinity   =>   CDf =  0.00352    CDp =+Infinity


[TIMEOUT]
