
 ===================================================
  XFOIL Version 6.99
  Copyright (C) 2000   Mark Drela, Harold Youngren

  This software comes with ABSOLUTELY NO WARRANTY,
    subject to the GNU General Public License.

  Caveat computor
 ===================================================

 File  xfoil.def  not found

   QUIT    Exit program

  .OPER    Direct operating point(s)
  .MDES    Complex mapping design routine
  .QDES    Surface speed design routine
  .GDES    Geometry design routine

   SAVE f  Write airfoil to labeled coordinate file
   PSAV f  Write airfoil to plain coordinate file
   ISAV f  Write airfoil to ISES coordinate file
   MSAV f  Write airfoil to MSES coordinate file
   REVE    Reverse written-airfoil node ordering

   LOAD f  Read buffer airfoil from coordinate file
   NACA i  Set NACA 4,5-digit airfoil and buffer airfoil
   INTE    Set buffer airfoil by interpolating two airfoils
   NORM    Buffer airfoil normalization toggle
   XYCM rr Change CM reference location, currently  0.25000 0.00000

   BEND    Display structural properties of current airfoil

   PCOP    Set current-airfoil panel nodes directly from buffer airfoil points
   PANE    Set current-airfoil panel nodes ( 160 ) based on curvature
  .PPAR    Show/change paneling

  .PLOP    Plotting options

   WDEF f  Write  current-settings file
   RDEF f  Reread current-settings file
   NAME s  Specify new airfoil name
   NINC    Increment name version number

   Z       Zoom    | (available in all menus)
   U       Unzoom  | 

 XFOIL   c>  
 Labeled airfoil file.  Name:  RAE 101 AIRFOIL                                 

 Number of input coordinate points: 171
 Counterclockwise ordering
 Max thickness =     0.099938  at x =   0.300
 Max camber    =     0.000000  at x =   0.010

  LE  x,y  =   0.00000   0.00000  |   Chord =   1.00000
  TE  x,y  =   1.00000   0.00000  |

 Current airfoil nodes set from buffer airfoil nodes ( 171 )

 XFOIL   c>  
 XFOIL   c>  
 Sharp trailing edge

 Paneling parameters used...
   Number of panel nodes       160
   Panel bunching parameter    1.000
   TE/LE panel density ratio   0.150
   Refined-area/LE panel density ratio    0.200
   Top    side refined area x/c limits  1.000 1.000
   Bottom side refined area x/c limits  1.000 1.000

 XFOIL   c>  
.OPERi   c>  
 Xtr/c     =  1.0000    top    side
 Xtr/c     =  1.0000    bottom side
 Ncrit     =    9.00   ( 0.070 % turb. level )
 Vacc      =  0.0100

 Klag  =  5.6000     Uxwt  =    1.00
 A     =  6.7000     B     =  0.7500       KCt = 0.01485
 CtiniK=  1.8000     CtiniX=  3.3000

..VPAR   c>  
..VPAR   c>  
.OPERi   c>  
 M  =    0.0000
 Re =    600000

.OPERv   c>  
.OPERv   c>  
.OPERv   c>  
 Polar  1 newly created for accumulation
 Airfoil archived with polar: RAE 101 AIRFOIL                                 

Enter  polar save filename  OR  <return> for no file   s>  
 New polar save file available

Enter  polar dump filename  OR  <return> for no file   s>  
 Polar dump file will NOT be written

 Polar accumulation enabled

.OPERva   c>   Calculating unit vorticity distributions ...
 Calculating wake trajectory ...
 Calculating source influence matrix ...

 Solving BL system ...

 Initializing BL ...
    side            1  ...
 MRCHUE: Inverse mode at  69     Hk =   4.018
 MRCHUE: Inverse mode at  70     Hk =   4.493
 MRCHUE: Inverse mode at  71     Hk =   4.961
 MRCHUE: Inverse mode at  72     Hk =   5.422
 MRCHUE: Inverse mode at  73     Hk =   5.869
 MRCHUE: Inverse mode at  74     Hk =   6.282
 MRCHUE: Inverse mode at  75     Hk =   6.622
 MRCHUE: Inverse mode at  76     Hk =   6.802
    side            2  ...
 MRCHUE: Inverse mode at  86     Hk =   2.500

 Side 1 forced transition at x/c =  1.0000   76
 Side 2  free  transition at x/c =  0.1989   31

   1   rms: 0.3370E+00   max: 0.5324E+01   C at   31  2   RLX: 0.282
       a = -4.000      CL = -0.5103
      Cm =  0.0117     CD =  0.00788   =>   CDf =  0.00564    CDp =  0.00224

 Side 1  free  transition at x/c =  0.9774   74
 Side 2  free  transition at x/c =  0.1577   28

   2   rms: 0.8005E-01   max: -.1166E+01   C at   28  2   RLX: 0.429
       a = -4.000      CL = -0.5074
      Cm =  0.0120     CD =  0.00843   =>   CDf =  0.00584    CDp =  0.00258

 Side 1  free  transition at x/c =  0.9817   74
 Side 2  free  transition at x/c =  0.1682   28

   3   rms: 0.9148E-01   max: -.1725E+01   C at   28  2   RLX: 0.290
       a = -4.000      CL = -0.4978
      Cm =  0.0101     CD =  0.00848   =>   CDf =  0.00581    CDp =  0.00266

 Side 1  free  transition at x/c =  0.9875   75
 Side 2  free  transition at x/c =  0.1843   30

   4   rms: 0.4879E-01   max: -.7977E+00   C at   30  2   RLX: 0.627
       a = -4.000      CL = -0.4947
      Cm =  0.0096     CD =  0.00823   =>   CDf =  0.00574    CDp =  0.00249

 Side 1  free  transition at x/c =  0.9907   75
 Side 2  free  transition at x/c =  0.1964   30

   5   rms: 0.3904E-01   max: -.8294E+00   C at   30  2   RLX: 0.603
       a = -4.000      CL = -0.4905
      Cm =  0.0087     CD =  0.00825   =>   CDf =  0.00568    CDp =  0.00257

 Side 1  free  transition at x/c =  0.9926   75
 Side 2  free  transition at x/c =  0.2073   31

   6   rms: 0.1929E-01   max: -.4108E+00   C at   31  2
       a = -4.000      CL = -0.4871
      Cm =  0.0079     CD =  0.00822   =>   CDf =  0.00563    CDp =  0.00259

 Side 1  free  transition at x/c =  0.9944   76
 Side 2  free  transition at x/c =  0.2172   32

   7   rms: 0.5559E-02   max: 0.8216E-01   D at   75  1
       a = -4.000      CL = -0.4869
      Cm =  0.0078     CD =  0.00820   =>   CDf =  0.00558    CDp =  0.00262

 Side 1  free  transition at x/c =  0.9943   76
 Side 2  free  transition at x/c =  0.2176   32

   8   rms: 0.9257E-04   max: 0.9619E-03   T at   76  1
       a = -4.000      CL = -0.4870
      Cm =  0.0078     CD =  0.00820   =>   CDf =  0.00558    CDp =  0.00263
 plradd ia,ip,cpol            1           0  3.73648759E-03

 Point added to stored polar  1
 Point written to save file  rae101_Re600k.base.pol                          
 Dump file unspecified or not available
 Calculating wake trajectory ...
 Calculating source influence matrix ...

 Solving BL system ...

 Side 1  free  transition at x/c =  0.9942   76
 Side 2  free  transition at x/c =  0.2176   32

   1   rms: 0.4281E+00   max: -.9043E+01   C at   32  2   RLX: 0.055
       a = -3.500      CL = -0.4830
      Cm =  0.0076     CD =  0.00811   =>   CDf =  0.00558    CDp =  0.00253

 Side 1  free  transition at x/c =  0.9938   75
 Side 2  free  transition at x/c =  0.2270   33

   2   rms: 0.3627E+00   max: -.6885E+01   C at   33  2   RLX: 0.073
       a = -3.500      CL = -0.4784
      Cm =  0.0074     CD =  0.00800   =>   CDf =  0.00554    CDp =  0.00246

 Side 1  free  transition at x/c =  0.9931   75
 Side 2  free  transition at x/c =  0.2382   33

   3   rms: 0.3731E+00   max: -.7978E+01   C at   33  2   RLX: 0.063
       a = -3.500      CL = -0.4744
      Cm =  0.0072     CD =  0.00796   =>   CDf =  0.00549    CDp =  0.00247

 Side 1  free  transition at x/c =  0.9925   75
 Side 2  free  transition at x/c =  0.2489   34

   4   rms: 0.3629E+00   max: -.7723E+01   C at   34  2   RLX: 0.065
       a = -3.500      CL = -0.4709
      Cm =  0.0071     CD =  0.00787   =>   CDf =  0.00544    CDp =  0.00243

 Side 1  free  transition at x/c =  0.9919   75
 Side 2  free  transition at x/c =  0.2597   35

   5   rms: 0.3460E+00   max: -.7190E+01   C at   35  2   RLX: 0.070
       a = -3.500      CL = -0.4674
      Cm =  0.0069     CD =  0.00777   =>   CDf =  0.00539    CDp =  0.00239

 Side 1  free  transition at x/c =  0.9913   75
 Side 2  free  transition at x/c =  0.2697   36

   6   rms: 0.3052E+00   max: -.5971E+01   C at   36  2   RLX: 0.084
       a = -3.500      CL = -0.4633
      Cm =  0.0067     CD =  0.00769   =>   CDf =  0.00535    CDp =  0.00234

 Side 1  free  transition at x/c =  0.9906   75
 Side 2  free  transition at x/c =  0.2811   36

   7   rms: 0.3076E+00   max: -.6478E+01   C at   36  2   RLX: 0.077
       a = -3.500      CL = -0.4597
      Cm =  0.0065     CD =  0.00765   =>   CDf =  0.00530    CDp =  0.00235

 Side 1  free  transition at x/c =  0.9900   75
 Side 2  free  transition at x/c =  0.2927   37

   8   rms: 0.3001E+00   max: -.6316E+01   C at   37  2   RLX: 0.079
       a = -3.500      CL = -0.4565
      Cm =  0.0063     CD =  0.00757   =>   CDf =  0.00524    CDp =  0.00232

 Side 1  free  transition at x/c =  0.9894   75
 Side 2  free  transition at x/c =  0.3041   38

   9   rms: 0.2442E+00   max: -.5041E+01   C at   38  2   RLX: 0.099
       a = -3.500      CL = -0.4528
      Cm =  0.0061     CD =  0.00749   =>   CDf =  0.00519    CDp =  0.00229

 Side 1  free  transition at x/c =  0.9888   75
 Side 2  free  transition at x/c =  0.3176   39

  10   rms: 0.1834E+00   max: -.3682E+01   C at   39  2   RLX: 0.136
       a = -3.500      CL = -0.4481
      Cm =  0.0059     CD =  0.00740   =>   CDf =  0.00513    CDp =  0.00227

 Side 1  free  transition at x/c =  0.9881   75
 Side 2  free  transition at x/c =  0.3278   40

  11   rms: 0.1379E+00   max: -.2514E+01   C at   40  2   RLX: 0.199
       a = -3.500      CL = -0.4418
      Cm =  0.0055     CD =  0.00733   =>   CDf =  0.00511    CDp =  0.00221

 Side 1  free  transition at x/c =  0.9871   75
 Side 2  free  transition at x/c =  0.3390   40

  12   rms: 0.8155E-01   max: -.1534E+01   C at   40  2   RLX: 0.326
       a = -3.500      CL = -0.4333
      Cm =  0.0050     CD =  0.00729   =>   CDf =  0.00514    CDp =  0.00216

 Side 1  free  transition at x/c =  0.9861   76
 Side 2  free  transition at x/c =  0.3614   41

  13   rms: 0.1046E+00   max: -.1415E+01   D at    2  1   RLX: 0.353
       a = -3.500      CL = -0.4281
      Cm =  0.0047     CD =  0.00716   =>   CDf =  0.00498    CDp =  0.00218

 Side 1  free  transition at x/c =  0.9854   76
 Side 2  free  transition at x/c =  0.3733   42

  14   rms: 0.3674E-01   max: -.6266E+00   C at   42  2   RLX: 0.798
       a = -3.500      CL = -0.4194
      Cm =  0.0041     CD =  0.00707   =>   CDf =  0.00494    CDp =  0.00213

 Side 1  free  transition at x/c =  0.9844   76
 Side 2  free  transition at x/c =  0.3840   43

  15   rms: 0.2177E-01   max: -.3410E+00   C at   43  2
       a = -3.500      CL = -0.4173
      Cm =  0.0040     CD =  0.00703   =>   CDf =  0.00495    CDp =  0.00209

 Side 1  free  transition at x/c =  0.9842   76
 Side 2  free  transition at x/c =  0.3944   43

  16   rms: 0.8946E-03   max: -.9749E-02   D at   45  2
       a = -3.500      CL = -0.4171
      Cm =  0.0040     CD =  0.00706   =>   CDf =  0.00487    CDp =  0.00219

 Side 1  free  transition at x/c =  0.9843   76
 Side 2  free  transition at x/c =  0.3946   43

  17   rms: 0.3174E-05   max: 0.4524E-04   C at   43  2
       a = -3.500      CL = -0.4171
      Cm =  0.0040     CD =  0.00706   =>   CDf =  0.00487    CDp =  0.00219
 plradd ia,ip,cpol            2           0  3.73648759E-03

 Point added to stored polar  1
 Point written to save file  rae101_Re600k.base.pol                          
 Dump file unspecified or not available
 Calculating wake trajectory ...
 Calculating source influence matrix ...

 Solving BL system ...

 Side 1  free  transition at x/c =  0.9843   76
 Side 2  free  transition at x/c =  0.3946   43

   1   rms: 0.1594E+00   max: -.2310E+01   C at   43  2   RLX: 0.216
       a = -3.000      CL = -0.4002
      Cm =  0.0029     CD =  0.00697   =>   CDf =  0.00487    CDp =  0.00209

 Side 1  free  transition at x/c =  0.9827   75
 Side 2  free  transition at x/c =  0.4143   45

   2   rms: 0.1223E+00   max: -.1608E+01   C at   45  2   RLX: 0.311
       a = -3.000      CL = -0.3866
      Cm =  0.0028     CD =  0.00678   =>   CDf =  0.00481    CDp =  0.00197

 Side 1  free  transition at x/c =  0.9771   75
 Side 2  free  transition at x/c =  0.4260   45

   3   rms: 0.6180E-01   max: -.2686E+00   T at   45  2
       a = -3.000      CL = -0.3447
      Cm =  0.0004     CD =  0.00682   =>   CDf =  0.00482    CDp =  0.00200

 Side 1  free  transition at x/c =  0.9711   75
 Side 2  free  transition at x/c =  0.4943   50

   4   rms: 0.2940E-01   max: 0.4252E+00   D at   45  2
       a = -3.000      CL = -0.3458
      Cm =  0.0005     CD =  0.00651   =>   CDf =  0.00455    CDp =  0.00197

 Side 1  free  transition at x/c =  0.9720   75
 Side 2  free  transition at x/c =  0.4793   49

   5   rms: 0.7958E-02   max: -.1181E+00   D at   49  2
       a = -3.000      CL = -0.3454
      Cm =  0.0004     CD =  0.00657   =>   CDf =  0.00461    CDp =  0.00196

 Side 1  free  transition at x/c =  0.9720   75
 Side 2  free  transition at x/c =  0.4702   48

   6   rms: 0.2156E-02   max: -.3491E-01   C at   48  2
       a = -3.000      CL = -0.3451
      Cm =  0.0004     CD =  0.00660   =>   CDf =  0.00465    CDp =  0.00195

 Side 1  free  transition at x/c =  0.9721   75
 Side 2  free  transition at x/c =  0.4707   48

   7   rms: 0.3421E-04   max: -.5570E-03   D at   50  2
       a = -3.000      CL = -0.3451
      Cm =  0.0004     CD =  0.00660   =>   CDf =  0.00464    CDp =  0.00195
 plradd ia,ip,cpol            3           0  5.71622560E-03

 Point added to stored polar  1
 Point written to save file  rae101_Re600k.base.pol                          
 Dump file unspecified or not available
 Calculating wake trajectory ...
 Calculating source influence matrix ...

 Solving BL system ...

 Side 1  free  transition at x/c =  0.9721   75
 Side 2  free  transition at x/c =  0.4706   48

   1   rms: 0.1148E+00   max: -.6705E+00   C at   48  2   RLX: 0.746
       a = -2.500      CL = -0.2861
      Cm = -0.0034     CD =  0.00645   =>   CDf =  0.00470    CDp =  0.00175

 Side 1  free  transition at x/c =  0.9645   75
 Side 2  free  transition at x/c =  0.5032   50

   2   rms: 0.4189E-01   max: -.5562E+00   C at   50  2   RLX: 0.899
       a = -2.500      CL = -0.2794
      Cm = -0.0021     CD =  0.00619   =>   CDf =  0.00460    CDp =  0.00159

 Side 1  free  transition at x/c =  0.9502   74
 Side 2  free  transition at x/c =  0.5150   51

   3   rms: 0.2904E-01   max: -.3291E+00   C at   51  2
       a = -2.500      CL = -0.2736
      Cm = -0.0030     CD =  0.00617   =>   CDf =  0.00461    CDp =  0.00156

 Side 1  free  transition at x/c =  0.9549   74
 Side 2  free  transition at x/c =  0.5254   51

   4   rms: 0.5154E-02   max: -.8282E-01   C at   51  2
       a = -2.500      CL = -0.2745
      Cm = -0.0028     CD =  0.00624   =>   CDf =  0.00451    CDp =  0.00173

 Side 1  free  transition at x/c =  0.9540   74
 Side 2  free  transition at x/c =  0.5257   51

   5   rms: 0.1805E-03   max: 0.2943E-02   C at   51  2
       a = -2.500      CL = -0.2744
      Cm = -0.0028     CD =  0.00624   =>   CDf =  0.00450    CDp =  0.00174

 Side 1  free  transition at x/c =  0.9540   74
 Side 2  free  transition at x/c =  0.5256   51

   6   rms: 0.8843E-06   max: 0.8535E-05   D at   51  2
       a = -2.500      CL = -0.2744
      Cm = -0.0028     CD =  0.00624   =>   CDf =  0.00450    CDp =  0.00174
 plradd ia,ip,cpol            4           0  1.14656836E-02

 Point added to stored polar  1
 Point written to save file  rae101_Re600k.base.pol                          
 Dump file unspecified or not available
 Calculating wake trajectory ...
 Calculating source influence matrix ...

 Solving BL system ...

 Side 1  free  transition at x/c =  0.9540   74
 Side 2  free  transition at x/c =  0.5256   51

   1   rms: 0.1028E+00   max: -.7888E+00   C at   51  2   RLX: 0.634
       a = -2.000      CL = -0.2375
      Cm = -0.0029     CD =  0.00610   =>   CDf =  0.00450    CDp =  0.00160

 Side 1  free  transition at x/c =  0.9278   73
 Side 2  free  transition at x/c =  0.5462   53

   2   rms: 0.5767E-01   max: -.6105E+00   C at   53  2   RLX: 0.819
       a = -2.000      CL = -0.2150
      Cm = -0.0041     CD =  0.00594   =>   CDf =  0.00458    CDp =  0.00136

 Side 1  free  transition at x/c =  0.9243   73
 Side 2  free  transition at x/c =  0.5590   53

   3   rms: 0.3948E-01   max: -.4202E+00   C at   53  2
       a = -2.000      CL = -0.2104
      Cm = -0.0044     CD =  0.00582   =>   CDf =  0.00457    CDp =  0.00126

 Side 1  free  transition at x/c =  0.9222   73
 Side 2  free  transition at x/c =  0.5733   54

   4   rms: 0.1058E-01   max: -.1445E+00   C at   54  2
       a = -2.000      CL = -0.2098
      Cm = -0.0044     CD =  0.00597   =>   CDf =  0.00446    CDp =  0.00150

 Side 1  free  transition at x/c =  0.9223   73
 Side 2  free  transition at x/c =  0.5743   54

   5   rms: 0.1452E-02   max: 0.2271E-01   C at   54  2
       a = -2.000      CL = -0.2097
      Cm = -0.0044     CD =  0.00597   =>   CDf =  0.00441    CDp =  0.00157

 Side 1  free  transition at x/c =  0.9223   73
 Side 2  free  transition at x/c =  0.5739   54

   6   rms: 0.1330E-04   max: -.1989E-03   D at   55  2
       a = -2.000      CL = -0.2097
      Cm = -0.0044     CD =  0.00597   =>   CDf =  0.00441    CDp =  0.00156
 plradd ia,ip,cpol            5           0  1.56265087E-02

 Point added to stored polar  1
 Point written to save file  rae101_Re600k.base.pol                          
 Dump file unspecified or not available
 Calculating wake trajectory ...
 Calculating source influence matrix ...

 Solving BL system ...

 Side 1  free  transition at x/c =  0.9223   73
 Side 2  free  transition at x/c =  0.5739   54

   1   rms: 0.1155E+00   max: -.1015E+01   C at   54  2   RLX: 0.492
       a = -1.500      CL = -0.1825
      Cm = -0.0042     CD =  0.00581   =>   CDf =  0.00441    CDp =  0.00139

 Side 1  free  transition at x/c =  0.8974   72
 Side 2  free  transition at x/c =  0.5874   54

   2   rms: 0.5400E-01   max: -.3153E+00   T at   54  2
       a = -1.500      CL = -0.1513
      Cm = -0.0045     CD =  0.00608   =>   CDf =  0.00454    CDp =  0.00154

 MRCHDU: Convergence failed at  57  side 2    Res =  0.2294E+01
 Side 1  free  transition at x/c =  0.8768   70
 Side 2  free  transition at x/c =  0.6266   57

   3   rms: 0.1036E-01   max: -.1436E+00   D at   57  2
       a = -1.500      CL = -0.1548
      Cm = -0.0038     CD =  0.00580   =>   CDf =  0.00438    CDp =  0.00142

 Side 1  free  transition at x/c =  0.8771   70
 Side 2  free  transition at x/c =  0.6177   57

   4   rms: 0.5470E-02   max: -.8056E-01   C at   57  2
       a = -1.500      CL = -0.1545
      Cm = -0.0039     CD =  0.00581   =>   CDf =  0.00441    CDp =  0.00140

 Side 1  free  transition at x/c =  0.8771   70
 Side 2  free  transition at x/c =  0.6198   57

   5   rms: 0.2617E-03   max: -.4367E-02   D at   58  2
       a = -1.500      CL = -0.1545
      Cm = -0.0039     CD =  0.00581   =>   CDf =  0.00438    CDp =  0.00143

 Side 1  free  transition at x/c =  0.8771   70
 Side 2  free  transition at x/c =  0.6197   57

   6   rms: 0.1226E-05   max: -.1326E-04   D at   58  2
       a = -1.500      CL = -0.1545
      Cm = -0.0039     CD =  0.00581   =>   CDf =  0.00439    CDp =  0.00143
 plradd ia,ip,cpol            6           0  2.81618778E-02

 Point added to stored polar  1
 Point written to save file  rae101_Re600k.base.pol                          
 Dump file unspecified or not available
 Calculating wake trajectory ...
 Calculating source influence matrix ...

 Solving BL system ...

 Side 1  free  transition at x/c =  0.8771   70
 Side 2  free  transition at x/c =  0.6197   57

   1   rms: 0.1116E+00   max: -.9617E+00   C at   57  2   RLX: 0.520
       a = -1.000      CL = -0.1281
      Cm = -0.0031     CD =  0.00571   =>   CDf =  0.00443    CDp =  0.00129

 Side 1  free  transition at x/c =  0.8499   69
 Side 2  free  transition at x/c =  0.6352   57

   2   rms: 0.1792E+00   max: -.2966E+01   T at    2  1   RLX: 0.169
       a = -1.000      CL = -0.1232
      Cm = -0.0032     CD =  0.00586   =>   CDf =  0.00449    CDp =  0.00137

 Side 1  free  transition at x/c =  0.8466   69
 Side 2  free  transition at x/c =  0.6392   57

   3   rms: 0.4367E-01   max: -.3601E+00   C at   57  2
       a = -1.000      CL = -0.1025
      Cm = -0.0027     CD =  0.00575   =>   CDf =  0.00448    CDp =  0.00127

 Side 1  free  transition at x/c =  0.8289   68
 Side 2  free  transition at x/c =  0.6603   58

   4   rms: 0.1231E-01   max: -.1913E+00   C at   58  2
       a = -1.000      CL = -0.1027
      Cm = -0.0026     CD =  0.00576   =>   CDf =  0.00449    CDp =  0.00127

 Side 1  free  transition at x/c =  0.8305   68
 Side 2  free  transition at x/c =  0.6653   59

   5   rms: 0.1980E-02   max: -.3869E-01   D at   58  2
       a = -1.000      CL = -0.1030
      Cm = -0.0025     CD =  0.00574   =>   CDf =  0.00440    CDp =  0.00134

 Side 1  free  transition at x/c =  0.8305   68
 Side 2  free  transition at x/c =  0.6643   59

   6   rms: 0.1867E-03   max: 0.3170E-02   C at   59  2
       a = -1.000      CL = -0.1030
      Cm = -0.0025     CD =  0.00574   =>   CDf =  0.00440    CDp =  0.00134

 Side 1  free  transition at x/c =  0.8305   68
 Side 2  free  transition at x/c =  0.6642   59

   7   rms: 0.9370E-06   max: -.1403E-04   D at   61  2
       a = -1.000      CL = -0.1030
      Cm = -0.0025     CD =  0.00574   =>   CDf =  0.00440    CDp =  0.00134
 plradd ia,ip,cpol            7           0  4.78453934E-02

 Point added to stored polar  1
 Point written to save file  rae101_Re600k.base.pol                          
 Dump file unspecified or not available
 Calculating wake trajectory ...
 Calculating source influence matrix ...

 Solving BL system ...

 Side 1  free  transition at x/c =  0.8305   68
 Side 2  free  transition at x/c =  0.6642   59

   1   rms: 0.1101E+00   max: -.9166E+00   C at   59  2   RLX: 0.545
       a = -0.500      CL = -0.0756
      Cm = -0.0017     CD =  0.00569   =>   CDf =  0.00440    CDp =  0.00128

 Side 1  free  transition at x/c =  0.8042   66
 Side 2  free  transition at x/c =  0.6794   60

   2   rms: 0.5116E-01   max: -.4692E+00   C at   60  2
       a = -0.500      CL = -0.0513
      Cm = -0.0013     CD =  0.00566   =>   CDf =  0.00451    CDp =  0.00115

 Side 1  free  transition at x/c =  0.7835   65
 Side 2  free  transition at x/c =  0.7008   61

   3   rms: 0.1200E-01   max: -.1730E+00   C at   61  2
       a = -0.500      CL = -0.0517
      Cm = -0.0012     CD =  0.00572   =>   CDf =  0.00449    CDp =  0.00123

 Side 1  free  transition at x/c =  0.7863   65
 Side 2  free  transition at x/c =  0.7054   62

   4   rms: 0.6349E-02   max: -.1013E+00   C at   62  2
       a = -0.500      CL = -0.0517
      Cm = -0.0012     CD =  0.00572   =>   CDf =  0.00446    CDp =  0.00126

 Side 1  free  transition at x/c =  0.7861   65
 Side 2  free  transition at x/c =  0.7067   62

   5   rms: 0.4369E-03   max: 0.6478E-02   C at   62  2
       a = -0.500      CL = -0.0517
      Cm = -0.0012     CD =  0.00572   =>   CDf =  0.00443    CDp =  0.00129

 Side 1  free  transition at x/c =  0.7861   65
 Side 2  free  transition at x/c =  0.7065   62

   6   rms: 0.2596E-05   max: -.3021E-04   D at   64  2
       a = -0.500      CL = -0.0517
      Cm = -0.0012     CD =  0.00572   =>   CDf =  0.00443    CDp =  0.00129
 plradd ia,ip,cpol            8           0  0.15471749    

 Point added to stored polar  1
 Point written to save file  rae101_Re600k.base.pol                          
 Dump file unspecified or not available
 Calculating wake trajectory ...
 Calculating source influence matrix ...

 Solving BL system ...

 Side 1  free  transition at x/c =  0.7861   65
 Side 2  free  transition at x/c =  0.7065   62

   1   rms: 0.1070E+00   max: -.8604E+00   C at   62  2   RLX: 0.581
       a =  0.000      CL = -0.0224
      Cm = -0.0003     CD =  0.00567   =>   CDf =  0.00444    CDp =  0.00122

 Side 1  free  transition at x/c =  0.7614   64
 Side 2  free  transition at x/c =  0.7200   62

   2   rms: 0.5996E-01   max: -.5338E+00   C at   62  2   RLX: 0.937
       a =  0.000      CL = -0.0004
      Cm = -0.0003     CD =  0.00554   =>   CDf =  0.00460    CDp =  0.00094

 Side 1  free  transition at x/c =  0.7452   63
 Side 2  free  transition at x/c =  0.7346   62

   3   rms: 0.2410E-01   max: -.4050E+00   D at   62  2
       a =  0.000      CL =  0.0012
      Cm = -0.0003     CD =  0.00588   =>   CDf =  0.00471    CDp =  0.00117

 MRCHDU: Convergence failed at  64  side 2    Res =  0.3567E+01
 Side 1  free  transition at x/c =  0.7461   63
 Side 2  free  transition at x/c =  0.7596   64

   4   rms: 0.1218E-01   max: -.1210E+00   D at   64  2
       a =  0.000      CL = -0.0004
      Cm =  0.0001     CD =  0.00568   =>   CDf =  0.00441    CDp =  0.00127

 Side 1  free  transition at x/c =  0.7462   63
 Side 2  free  transition at x/c =  0.7427   63

   5   rms: 0.7448E-02   max: -.1192E+00   C at   63  2
       a =  0.000      CL = -0.0000
      Cm =  0.0000     CD =  0.00571   =>   CDf =  0.00446    CDp =  0.00125

 Side 1  free  transition at x/c =  0.7461   63
 Side 2  free  transition at x/c =  0.7464   63

   6   rms: 0.3392E-03   max: -.6254E-02   D at   65  2
       a =  0.000      CL = -0.0000
      Cm =  0.0000     CD =  0.00571   =>   CDf =  0.00444    CDp =  0.00128

 Side 1  free  transition at x/c =  0.7461   63
 Side 2  free  transition at x/c =  0.7462   63

   7   rms: 0.1501E-05   max: -.1866E-04   D at   65  2
       a =  0.000      CL = -0.0000
      Cm =  0.0000     CD =  0.00571   =>   CDf =  0.00444    CDp =  0.00128
 plradd ia,ip,cpol            9           0  0.28303659    

 Point added to stored polar  1
 Point written to save file  rae101_Re600k.base.pol                          
 Dump file unspecified or not available
 Calculating wake trajectory ...
 Calculating source influence matrix ...

 Solving BL system ...

 Side 1  free  transition at x/c =  0.7461   63
 Side 2  free  transition at x/c =  0.7462   63

   1   rms: 0.9312E-01   max: -.5647E+00   C at   63  2   RLX: 0.885
       a =  0.500      CL =  0.0469
      Cm =  0.0008     CD =  0.00572   =>   CDf =  0.00443    CDp =  0.00128

 Side 1  free  transition at x/c =  0.7065   62
 Side 2  free  transition at x/c =  0.7764   64

   2   rms: 0.2178E-01   max: -.2405E+00   D at   62  1
       a =  0.500      CL =  0.0516
      Cm =  0.0012     CD =  0.00572   =>   CDf =  0.00451    CDp =  0.00121

 Side 1  free  transition at x/c =  0.7081   62
 Side 2  free  transition at x/c =  0.7840   65

   3   rms: 0.6735E-02   max: -.1016E+00   C at   65  2
       a =  0.500      CL =  0.0516
      Cm =  0.0012     CD =  0.00572   =>   CDf =  0.00443    CDp =  0.00128

 Side 1  free  transition at x/c =  0.7065   62
 Side 2  free  transition at x/c =  0.7862   65

   4   rms: 0.1033E-03   max: -.1096E-02   D at   63  1
       a =  0.500      CL =  0.0516
      Cm =  0.0012     CD =  0.00572   =>   CDf =  0.00443    CDp =  0.00129

 Side 1  free  transition at x/c =  0.7065   62
 Side 2  free  transition at x/c =  0.7862   65

   5   rms: 0.1591E-05   max: 0.1925E-04   C at   65  2
       a =  0.500      CL =  0.0516
      Cm =  0.0012     CD =  0.00572   =>   CDf =  0.00443    CDp =  0.00129
 plradd ia,ip,cpol           10           0  0.16884400    

 Point added to stored polar  1
 Point written to save file  rae101_Re600k.base.pol                          
 Dump file unspecified or not available
 Calculating wake trajectory ...
 Calculating source influence matrix ...

 Solving BL system ...

 Side 1  free  transition at x/c =  0.7065   62
 Side 2  free  transition at x/c =  0.7862   65

   1   rms: 0.1070E+00   max: 0.8582E+00   C at   62  1   RLX: 0.608
       a =  1.000      CL =  0.0823
      Cm =  0.0021     CD =  0.00578   =>   CDf =  0.00443    CDp =  0.00135

 Side 1  free  transition at x/c =  0.6804   60
 Side 2  free  transition at x/c =  0.8066   66

   2   rms: 0.4039E-01   max: -.2669E+00   C at   66  2
       a =  1.000      CL =  0.1036
      Cm =  0.0023     CD =  0.00581   =>   CDf =  0.00448    CDp =  0.00132

 Side 1  free  transition at x/c =  0.6622   59
 Side 2  free  transition at x/c =  0.8314   68

   3   rms: 0.8554E-02   max: -.1034E+00   C at   59  1
       a =  1.000      CL =  0.1029
      Cm =  0.0026     CD =  0.00574   =>   CDf =  0.00442    CDp =  0.00132

 Side 1  free  transition at x/c =  0.6645   59
 Side 2  free  transition at x/c =  0.8307   68

   4   rms: 0.8716E-03   max: 0.1245E-01   C at   59  1
       a =  1.000      CL =  0.1029
      Cm =  0.0025     CD =  0.00574   =>   CDf =  0.00440    CDp =  0.00134

 Side 1  free  transition at x/c =  0.6641   59
 Side 2  free  transition at x/c =  0.8305   68

   5   rms: 0.5811E-05   max: -.1106E-03   D at   61  1
       a =  1.000      CL =  0.1029
      Cm =  0.0025     CD =  0.00574   =>   CDf =  0.00440    CDp =  0.00134
 plradd ia,ip,cpol           11           0  4.78453971E-02

 Point added to stored polar  1
 Point written to save file  rae101_Re600k.base.pol                          
 Dump file unspecified or not available
 Calculating wake trajectory ...
 Calculating source influence matrix ...

 Solving BL system ...

 Side 1  free  transition at x/c =  0.6641   59
 Side 2  free  transition at x/c =  0.8305   68

   1   rms: 0.1099E+00   max: 0.9138E+00   C at   59  1   RLX: 0.577
       a =  1.500      CL =  0.1320
      Cm =  0.0034     CD =  0.00581   =>   CDf =  0.00437    CDp =  0.00144

 Side 1  free  transition at x/c =  0.6376   58
 Side 2  free  transition at x/c =  0.8508   68

   2   rms: 0.4819E-01   max: 0.3836E+00   T at    2  1
       a =  1.500      CL =  0.1545
      Cm =  0.0038     CD =  0.00585   =>   CDf =  0.00445    CDp =  0.00140

 Side 1  free  transition at x/c =  0.6169   56
 Side 2  free  transition at x/c =  0.8790   70

   3   rms: 0.1421E-01   max: -.1806E+00   C at   70  2
       a =  1.500      CL =  0.1543
      Cm =  0.0039     CD =  0.00582   =>   CDf =  0.00444    CDp =  0.00138

 Side 1  free  transition at x/c =  0.6196   57
 Side 2  free  transition at x/c =  0.8769   70

   4   rms: 0.3263E-02   max: -.5022E-01   C at   57  1
       a =  1.500      CL =  0.1545
      Cm =  0.0039     CD =  0.00581   =>   CDf =  0.00440    CDp =  0.00141

 Side 1  free  transition at x/c =  0.6196   57
 Side 2  free  transition at x/c =  0.8770   70

   5   rms: 0.1942E-03   max: 0.3263E-02   C at   57  1
       a =  1.500      CL =  0.1545
      Cm =  0.0039     CD =  0.00581   =>   CDf =  0.00439    CDp =  0.00143

 Side 1  free  transition at x/c =  0.6196   57
 Side 2  free  transition at x/c =  0.8770   70

   6   rms: 0.9052E-06   max: 0.1008E-04   C at   57  1
       a =  1.500      CL =  0.1545
      Cm =  0.0039     CD =  0.00581   =>   CDf =  0.00439    CDp =  0.00143
 plradd ia,ip,cpol           12           0  2.81618740E-02

 Point added to stored polar  1
 Point written to save file  rae101_Re600k.base.pol                          
 Dump file unspecified or not available
 Calculating wake trajectory ...
 Calculating source influence matrix ...

 Solving BL system ...

 Side 1  free  transition at x/c =  0.6196   57
 Side 2  free  transition at x/c =  0.8770   70

   1   rms: 0.1120E+00   max: 0.9646E+00   C at   57  1   RLX: 0.634
       a =  2.000      CL =  0.1868
      Cm =  0.0048     CD =  0.00594   =>   CDf =  0.00439    CDp =  0.00155

 Side 1  free  transition at x/c =  0.5897   55
 Side 2  free  transition at x/c =  0.9027   72

   2   rms: 0.4507E-01   max: -.4055E+00   C at   72  2
       a =  2.000      CL =  0.2086
      Cm =  0.0047     CD =  0.00598   =>   CDf =  0.00442    CDp =  0.00156

 Side 1  free  transition at x/c =  0.5724   53
 Side 2  free  transition at x/c =  0.9177   73

   3   rms: 0.1073E-01   max: -.1457E+00   C at   73  2
       a =  2.000      CL =  0.2091
      Cm =  0.0046     CD =  0.00597   =>   CDf =  0.00444    CDp =  0.00153

 Side 1  free  transition at x/c =  0.5732   54
 Side 2  free  transition at x/c =  0.9227   73

   4   rms: 0.5436E-02   max: -.8155E-01   C at   54  1
       a =  2.000      CL =  0.2097
      Cm =  0.0044     CD =  0.00597   =>   CDf =  0.00444    CDp =  0.00153

 Side 1  free  transition at x/c =  0.5739   54
 Side 2  free  transition at x/c =  0.9223   73

   5   rms: 0.4101E-03   max: 0.6330E-02   C at   54  1
       a =  2.000      CL =  0.2097
      Cm =  0.0045     CD =  0.00597   =>   CDf =  0.00441    CDp =  0.00156

 Side 1  free  transition at x/c =  0.5738   54
 Side 2  free  transition at x/c =  0.9223   73

   6   rms: 0.1732E-05   max: -.2431E-04   D at   55  1
       a =  2.000      CL =  0.2097
      Cm =  0.0045     CD =  0.00597   =>   CDf =  0.00441    CDp =  0.00156
 plradd ia,ip,cpol           13           0  1.56265181E-02

 Point added to stored polar  1
 Point written to save file  rae101_Re600k.base.pol                          
 Dump file unspecified or not available
 Calculating wake trajectory ...
 Calculating source influence matrix ...

 Solving BL system ...

 Side 1  free  transition at x/c =  0.5738   54
 Side 2  free  transition at x/c =  0.9223   73

   1   rms: 0.1154E+00   max: 0.1014E+01   C at   54  1   RLX: 0.762
       a =  2.500      CL =  0.2519
      Cm =  0.0048     CD =  0.00624   =>   CDf =  0.00437    CDp =  0.00186

 Side 1  free  transition at x/c =  0.5366   52
 Side 2  free  transition at x/c =  0.9494   74

   2   rms: 0.3576E-01   max: -.2115E+00   D at   55  1
       a =  2.500      CL =  0.2759
      Cm =  0.0025     CD =  0.00621   =>   CDf =  0.00448    CDp =  0.00173

 Side 1  free  transition at x/c =  0.5230   51
 Side 2  free  transition at x/c =  0.9527   74

   3   rms: 0.5658E-02   max: -.8628E-01   C at   51  1
       a =  2.500      CL =  0.2744
      Cm =  0.0028     CD =  0.00624   =>   CDf =  0.00451    CDp =  0.00172

 Side 1  free  transition at x/c =  0.5253   51
 Side 2  free  transition at x/c =  0.9539   74

   4   rms: 0.1744E-03   max: -.3079E-02   D at   53  1
       a =  2.500      CL =  0.2744
      Cm =  0.0028     CD =  0.00624   =>   CDf =  0.00450    CDp =  0.00174

 Side 1  free  transition at x/c =  0.5253   51
 Side 2  free  transition at x/c =  0.9539   74

   5   rms: 0.9558E-06   max: -.1021E-04   D at   53  1
       a =  2.500      CL =  0.2744
      Cm =  0.0028     CD =  0.00624   =>   CDf =  0.00450    CDp =  0.00174
 plradd ia,ip,cpol           14           0  8.24143831E-03

 Point added to stored polar  1
 Point written to save file  rae101_Re600k.base.pol                          
 Dump file unspecified or not available
 Calculating wake trajectory ...
 Calculating source influence matrix ...

 Solving BL system ...

 Side 1  free  transition at x/c =  0.5253   51
 Side 2  free  transition at x/c =  0.9539   74

   1   rms: 0.1038E+00   max: 0.8239E+00   C at   51  1
       a =  3.000      CL =  0.3331
      Cm =  0.0024     CD =  0.00647   =>   CDf =  0.00446    CDp =  0.00201

 Side 1  free  transition at x/c =  0.4664   48
 Side 2  free  transition at x/c =  0.9834   76

   2   rms: 0.3958E-01   max: 0.3487E+00   C at   76  2
       a =  3.000      CL =  0.3367
      Cm =  0.0016     CD =  0.00656   =>   CDf =  0.00469    CDp =  0.00187

 Side 1  free  transition at x/c =  0.4748   49
 Side 2  free  transition at x/c =  0.9785   75

   3   rms: 0.1866E-01   max: 0.1514E+00   D at   77  2
       a =  3.000      CL =  0.3471
      Cm = -0.0008     CD =  0.00660   =>   CDf =  0.00462    CDp =  0.00197

 Side 1  free  transition at x/c =  0.4693   48
 Side 2  free  transition at x/c =  0.9695   74

   4   rms: 0.1723E-01   max: -.1552E+00   D at   77  2
       a =  3.000      CL =  0.3361
      Cm =  0.0017     CD =  0.00660   =>   CDf =  0.00465    CDp =  0.00195

 Side 1  free  transition at x/c =  0.4725   49
 Side 2  free  transition at x/c =  0.9821   75

   5   rms: 0.3440E-01   max: 0.3799E+00   C at   75  2
       a =  3.000      CL =  0.3438
      Cm = -0.0001     CD =  0.00655   =>   CDf =  0.00465    CDp =  0.00190

 Side 1  free  transition at x/c =  0.4706   48
 Side 2  free  transition at x/c =  0.9727   75

   6   rms: 0.2101E-02   max: -.3266E-01   D at   75  2
       a =  3.000      CL =  0.3452
      Cm = -0.0004     CD =  0.00660   =>   CDf =  0.00464    CDp =  0.00195

 Side 1  free  transition at x/c =  0.4700   48
 Side 2  free  transition at x/c =  0.9721   75

   7   rms: 0.2073E-03   max: -.1949E-02   D at   77  2
       a =  3.000      CL =  0.3452
      Cm = -0.0004     CD =  0.00660   =>   CDf =  0.00465    CDp =  0.00195

 Side 1  free  transition at x/c =  0.4701   48
 Side 2  free  transition at x/c =  0.9721   75

   8   rms: 0.9596E-06   max: -.8376E-05   D at   75  2
       a =  3.000      CL =  0.3452
      Cm = -0.0004     CD =  0.00660   =>   CDf =  0.00465    CDp =  0.00195
 plradd ia,ip,cpol           15           0  5.71623491E-03

 Point added to stored polar  1
 Point written to save file  rae101_Re600k.base.pol                          
 Dump file unspecified or not available
 Calculating wake trajectory ...
 Calculating source influence matrix ...

 Solving BL system ...

 Side 1  free  transition at x/c =  0.4701   48
 Side 2  free  transition at x/c =  0.9721   75

   1   rms: 0.1158E+00   max: 0.7657E+00   C at   48  1
       a =  3.500      CL =  0.4242
      Cm = -0.0054     CD =  0.00682   =>   CDf =  0.00465    CDp =  0.00217

 Side 1  free  transition at x/c =  0.3794   42
 Side 2  free  transition at x/c =  0.9798   75

   2   rms: 0.3125E-01   max: -.3394E+00   C at   42  1
       a =  3.500      CL =  0.4146
      Cm = -0.0035     CD =  0.00709   =>   CDf =  0.00496    CDp =  0.00213

 Side 1  free  transition at x/c =  0.4026   44
 Side 2  free  transition at x/c =  0.9866   76

   3   rms: 0.1683E-01   max: 0.2364E+00   C at   44  1
       a =  3.500      CL =  0.4171
      Cm = -0.0040     CD =  0.00705   =>   CDf =  0.00483    CDp =  0.00222

 Side 1  free  transition at x/c =  0.3962   43
 Side 2  free  transition at x/c =  0.9841   76

   4   rms: 0.8207E-03   max: -.8369E-02   D at   77  2
       a =  3.500      CL =  0.4170
      Cm = -0.0040     CD =  0.00706   =>   CDf =  0.00487    CDp =  0.00219

 Side 1  free  transition at x/c =  0.3962   43
 Side 2  free  transition at x/c =  0.9843   76

   5   rms: 0.4587E-05   max: 0.3247E-04   D at   77  2
       a =  3.500      CL =  0.4170
      Cm = -0.0040     CD =  0.00706   =>   CDf =  0.00487    CDp =  0.00219
 plradd ia,ip,cpol           16           0  3.73648852E-03

 Point added to stored polar  1
 Point written to save file  rae101_Re600k.base.pol                          
 Dump file unspecified or not available
 Calculating wake trajectory ...
 Calculating source influence matrix ...

 Solving BL system ...

 Side 1  free  transition at x/c =  0.3962   43
 Side 2  free  transition at x/c =  0.9843   76

   1   rms: 0.1489E+00   max: 0.1989E+01   C at   43  1   RLX: 0.678
       a =  4.000      CL =  0.4701
      Cm = -0.0074     CD =  0.00733   =>   CDf =  0.00481    CDp =  0.00252

 Side 1  free  transition at x/c =  0.2728   36
 Side 2  free  transition at x/c =  0.9888   75

   2   rms: 0.7520E-01   max: 0.1362E+01   C at   36  1
       a =  4.000      CL =  0.4879
      Cm = -0.0080     CD =  0.00815   =>   CDf =  0.00534    CDp =  0.00281

 Side 1  free  transition at x/c =  0.2105   31
 Side 2  free  transition at x/c =  0.9936   75

   3   rms: 0.1713E-01   max: -.2953E+00   C at   31  1
       a =  4.000      CL =  0.4867
      Cm = -0.0078     CD =  0.00823   =>   CDf =  0.00562    CDp =  0.00261

 Side 1  free  transition at x/c =  0.2186   32
 Side 2  free  transition at x/c =  0.9946   76

   4   rms: 0.6195E-02   max: 0.8132E-01   D at   75  2
       a =  4.000      CL =  0.4869
      Cm = -0.0078     CD =  0.00820   =>   CDf =  0.00557    CDp =  0.00263

 Side 1  free  transition at x/c =  0.2172   32
 Side 2  free  transition at x/c =  0.9942   76

   5   rms: 0.4418E-04   max: -.7185E-03   D at   76  2
       a =  4.000      CL =  0.4869
      Cm = -0.0078     CD =  0.00820   =>   CDf =  0.00558    CDp =  0.00263
 plradd ia,ip,cpol           17           0  3.73648852E-03

 Point added to stored polar  1
 Point written to save file  rae101_Re600k.base.pol                          
 Dump file unspecified or not available
 Calculating wake trajectory ...
 Calculating source influence matrix ...

 Solving BL system ...

 Side 1  free  transition at x/c =  0.2172   32
 Side 2  free  transition at x/c =  0.9942   76

   1   rms: 0.4295E+00   max: 0.9043E+01   C at   32  1   RLX: 0.166
       a =  4.500      CL =  0.4987
      Cm = -0.0086     CD =  0.00849   =>   CDf =  0.00558    CDp =  0.00291

 Side 1  free  transition at x/c =  0.1817   29
 Side 2  free  transition at x/c =  0.9955   76

   2   rms: 0.2204E+00   max: 0.4551E+01   C at   29  1   RLX: 0.330
       a =  4.500      CL =  0.5189
      Cm = -0.0099     CD =  0.00876   =>   CDf =  0.00575    CDp =  0.00301

 Side 1  free  transition at x/c =  0.1381   26
 Side 2  free  transition at x/c =  0.9976   76

   3   rms: 0.9925E-01   max: 0.1720E+01   C at   26  1   RLX: 0.872
       a =  4.500      CL =  0.5552
      Cm = -0.0122     CD =  0.00925   =>   CDf =  0.00588    CDp =  0.00338

 Side 1  free  transition at x/c =  0.0913   24
 Side 2 forced transition at x/c =  1.0000   75

   4   rms: 0.1750E-01   max: -.2178E+00   D at   24  1
       a =  4.500      CL =  0.5512
      Cm = -0.0107     CD =  0.00944   =>   CDf =  0.00615    CDp =  0.00328

 Side 1  free  transition at x/c =  0.0861   24
 Side 2 forced transition at x/c =  1.0000   75

   5   rms: 0.2290E-02   max: -.3058E-01   D at   24  1
       a =  4.500      CL =  0.5510
      Cm = -0.0106     CD =  0.00946   =>   CDf =  0.00619    CDp =  0.00327

 Side 1  free  transition at x/c =  0.0853   23
 Side 2 forced transition at x/c =  1.0000   75

   6   rms: 0.3055E-03   max: -.5688E-02   C at   23  1
       a =  4.500      CL =  0.5510
      Cm = -0.0106     CD =  0.00946   =>   CDf =  0.00620    CDp =  0.00326

 Side 1  free  transition at x/c =  0.0853   23
 Side 2 forced transition at x/c =  1.0000   75

   7   rms: 0.1789E-05   max: 0.1478E-04   C at   23  1
       a =  4.500      CL =  0.5510
      Cm = -0.0106     CD =  0.00946   =>   CDf =  0.00620    CDp =  0.00326
 plradd ia,ip,cpol           18           0  2.21268111E-03

 Point added to stored polar  1
 Point written to save file  rae101_Re600k.base.pol                          
 Dump file unspecified or not available
 Calculating wake trajectory ...
 Calculating source influence matrix ...

 Solving BL system ...

 Side 1  free  transition at x/c =  0.0853   23
 Side 2 forced transition at x/c =  1.0000   75

   1   rms: 0.1165E+00   max: 0.1615E+01   C at   23  1   RLX: 0.791
       a =  5.000      CL =  0.5846
      Cm = -0.0087     CD =  0.00992   =>   CDf =  0.00619    CDp =  0.00372

 Side 1  free  transition at x/c =  0.0587   21
 Side 2 forced transition at x/c =  1.0000   75

   2   rms: 0.3316E-01   max: -.4794E+00   C at   21  1
       a =  5.000      CL =  0.5934
      Cm = -0.0082     CD =  0.01012   =>   CDf =  0.00634    CDp =  0.00378

 Side 1  free  transition at x/c =  0.0512   21
 Side 2 forced transition at x/c =  1.0000   75

   3   rms: 0.7195E-02   max: -.1208E+00   D at   21  1
       a =  5.000      CL =  0.5924
      Cm = -0.0080     CD =  0.01026   =>   CDf =  0.00635    CDp =  0.00391

 Side 1  free  transition at x/c =  0.0494   21
 Side 2 forced transition at x/c =  1.0000   75

   4   rms: 0.1909E-02   max: -.2394E-01   D at   21  1
       a =  5.000      CL =  0.5923
      Cm = -0.0080     CD =  0.01028   =>   CDf =  0.00637    CDp =  0.00391

 Side 1  free  transition at x/c =  0.0489   21
 Side 2 forced transition at x/c =  1.0000   75

   5   rms: 0.1622E-03   max: -.1683E-02   D at   21  1
       a =  5.000      CL =  0.5923
      Cm = -0.0080     CD =  0.01028   =>   CDf =  0.00637    CDp =  0.00390

 Side 1  free  transition at x/c =  0.0488   21
 Side 2 forced transition at x/c =  1.0000   75

   6   rms: 0.1362E-05   max: -.9860E-05   D at   21  1
       a =  5.000      CL =  0.5923
      Cm = -0.0080     CD =  0.01028   =>   CDf =  0.00637    CDp =  0.00390
 plradd ia,ip,cpol           19           0  2.21268111E-03

 Point added to stored polar  1
 Point written to save file  rae101_Re600k.base.pol                          
 Dump file unspecified or not available
 Calculating wake trajectory ...
 Calculating source influence matrix ...

 Solving BL system ...

 Side 1  free  transition at x/c =  0.0488   21
 Side 2 forced transition at x/c =  1.0000   75

   1   rms: 0.1603E+00   max: 0.8556E+00   C at   21  1
       a =  5.500      CL =  0.6288
      Cm = -0.0044     CD =  0.01190   =>   CDf =  0.00637    CDp =  0.00553

 Side 1  free  transition at x/c =  0.0354   19
 Side 2 forced transition at x/c =  1.0000   75

   2   rms: 0.1392E+00   max: -.1645E+01   D at   21  1   RLX: 0.304
       a =  5.500      CL =  0.6206
      Cm = -0.0046     CD =  0.01442   =>   CDf =  0.00624    CDp =  0.00818

 Side 1  free  transition at x/c =  0.0386   20
 Side 2 forced transition at x/c =  1.0000   75

   3   rms: 0.1005E+00   max: -.9346E+00   D at   20  1   RLX: 0.535
       a =  5.500      CL =  0.6318
      Cm = -0.0054     CD =  0.01103   =>   CDf =  0.00624    CDp =  0.00479

 Side 1  free  transition at x/c =  0.0387   20
 Side 2 forced transition at x/c =  1.0000   75

   4   rms: 0.3408E-01   max: -.6910E+00   D at   20  1   RLX: 0.724
       a =  5.500      CL =  0.6345
      Cm = -0.0056     CD =  0.01103   =>   CDf =  0.00632    CDp =  0.00471

 Side 1  free  transition at x/c =  0.0370   19
 Side 2 forced transition at x/c =  1.0000   75

   5   rms: 0.2130E-01   max: -.2783E+00   D at   20  1
       a =  5.500      CL =  0.6356
      Cm = -0.0057     CD =  0.01097   =>   CDf =  0.00634    CDp =  0.00462

 Side 1  free  transition at x/c =  0.0359   19
 Side 2 forced transition at x/c =  1.0000   75

   6   rms: 0.1548E-02   max: 0.1664E-01   D at   19  1
       a =  5.500      CL =  0.6351
      Cm = -0.0056     CD =  0.01104   =>   CDf =  0.00637    CDp =  0.00466

 Side 1  free  transition at x/c =  0.0358   19
 Side 2 forced transition at x/c =  1.0000   75

   7   rms: 0.8235E-05   max: 0.1141E-03   T at   19  1
       a =  5.500      CL =  0.6351
      Cm = -0.0056     CD =  0.01104   =>   CDf =  0.00637    CDp =  0.00466
 plradd ia,ip,cpol           20           0  2.21268111E-03

 Point added to stored polar  1
 Point written to save file  rae101_Re600k.base.pol                          
 Dump file unspecified or not available
 Calculating wake trajectory ...
 Calculating source influence matrix ...

 Solving BL system ...

 Side 1  free  transition at x/c =  0.0358   19
 Side 2 forced transition at x/c =  1.0000   75

   1   rms: 0.8678E-01   max: 0.5490E+00   T at   19  1
       a =  6.000      CL =  0.6804
      Cm = -0.0035     CD =  0.01158   =>   CDf =  0.00625    CDp =  0.00532

 Side 1  free  transition at x/c =  0.0295   20
 Side 2 forced transition at x/c =  1.0000   74

   2   rms: 0.1465E-01   max: 0.8269E-01   D at   16  1
       a =  6.000      CL =  0.6765
      Cm = -0.0029     CD =  0.01211   =>   CDf =  0.00633    CDp =  0.00579

 Side 1  free  transition at x/c =  0.0281   19
 Side 2 forced transition at x/c =  1.0000   74

   3   rms: 0.6444E-02   max: -.5928E-01   D at   20  1
       a =  6.000      CL =  0.6765
      Cm = -0.0029     CD =  0.01211   =>   CDf =  0.00631    CDp =  0.00580

 Side 1  free  transition at x/c =  0.0280   19
 Side 2 forced transition at x/c =  1.0000   74

   4   rms: 0.8253E-04   max: 0.7842E-03   D at   19  1
       a =  6.000      CL =  0.6764
      Cm = -0.0029     CD =  0.01211   =>   CDf =  0.00632    CDp =  0.00579
 plradd ia,ip,cpol           21           0  1.09694269E-03

 Point added to stored polar  1
 Point written to save file  rae101_Re600k.base.pol                          
 Dump file unspecified or not available
 Calculating wake trajectory ...
 Calculating source influence matrix ...

 Solving BL system ...

 Side 1  free  transition at x/c =  0.0280   19
 Side 2 forced transition at x/c =  1.0000   74

   1   rms: 0.8270E-01   max: -.5517E+00   C at   19  1   RLX: 0.906
       a =  6.500      CL =  0.7185
      Cm = -0.0012     CD =  0.01256   =>   CDf =  0.00632    CDp =  0.00624

 Side 1  free  transition at x/c =  0.0248   19
 Side 2 forced transition at x/c =  1.0000   74

   2   rms: 0.1005E-01   max: -.9340E-01   D at   20  1
       a =  6.500      CL =  0.7216
      Cm = -0.0009     CD =  0.01277   =>   CDf =  0.00624    CDp =  0.00653

 Side 1  free  transition at x/c =  0.0241   19
 Side 2 forced transition at x/c =  1.0000   74

   3   rms: 0.1103E-02   max: -.1044E-01   D at   20  1
       a =  6.500      CL =  0.7215
      Cm = -0.0009     CD =  0.01278   =>   CDf =  0.00626    CDp =  0.00652

 Side 1  free  transition at x/c =  0.0241   19
 Side 2 forced transition at x/c =  1.0000   74

   4   rms: 0.2998E-05   max: -.2947E-04   D at   20  1
       a =  6.500      CL =  0.7215
      Cm = -0.0009     CD =  0.01278   =>   CDf =  0.00626    CDp =  0.00652
 plradd ia,ip,cpol           22           0  1.09694269E-03

 Point added to stored polar  1
 Point written to save file  rae101_Re600k.base.pol                          
 Dump file unspecified or not available
 Calculating wake trajectory ...
 Calculating source influence matrix ...

 Solving BL system ...

 Side 1  free  transition at x/c =  0.0241   19
 Side 2 forced transition at x/c =  1.0000   74

   1   rms: 0.8548E-01   max: 0.4955E+00   T at   19  1
       a =  7.000      CL =  0.7658
      Cm =  0.0012     CD =  0.01360   =>   CDf =  0.00609    CDp =  0.00751

 MRCHDU: Convergence failed at  20  side 1    Res =  0.7385E+01
 MRCHDU: Convergence failed at  21  side 1    Res =  0.2167E+02
 MRCHDU: Convergence failed at  22  side 1    Res =  0.2443E+02
 MRCHDU: Convergence failed at  23  side 1    Res =  0.4405E+02
 MRCHDU: Convergence failed at  24  side 1    Res =  0.9377E+02
 MRCHDU: Convergence failed at  25  side 1    Res =  0.8820E+03
 MRCHDU: Convergence failed at  26  side 1    Res =  0.6864E+02
 MRCHDU: Convergence failed at  27  side 1    Res =  0.3538E+02
 MRCHDU: Convergence failed at  28  side 1    Res =  0.2455E+02
 MRCHDU: Convergence failed at  29  side 1    Res =  0.1949E+02
 MRCHDU: Convergence failed at  30  side 1    Res =  0.2232E+02
 MRCHDU: Convergence failed at  31  side 1    Res =  0.2381E+02
 MRCHDU: Convergence failed at  32  side 1    Res =  0.4208E+02
 MRCHDU: Convergence failed at  33  side 1    Res =  0.4555E+02
 MRCHDU: Convergence failed at  34  side 1    Res =  0.3392E+02
 MRCHDU: Convergence failed at  35  side 1    Res =  0.3648E+02
 MRCHDU: Convergence failed at  36  side 1    Res =  0.3963E+02
 MRCHDU: Convergence failed at  37  side 1    Res =  0.3345E+02
 MRCHDU: Convergence failed at  38  side 1    Res =  0.3379E+02
 MRCHDU: Convergence failed at  39  side 1    Res =  0.3826E+02
 MRCHDU: Convergence failed at  40  side 1    Res =  0.4159E+02
 MRCHDU: Convergence failed at  41  side 1    Res =  0.7689E+02
 MRCHDU: Convergence failed at  42  side 1    Res =  0.8359E+02
 MRCHDU: Convergence failed at  43  side 1    Res =  0.9113E+02
 MRCHDU: Convergence failed at  44  side 1    Res =  0.5164E+02
 MRCHDU: Convergence failed at  45  side 1    Res =  0.5780E+02
 MRCHDU: Convergence failed at  46  side 1    Res =  0.6503E+02
 MRCHDU: Convergence failed at  47  side 1    Res =  0.7153E+02
 MRCHDU: Convergence failed at  48  side 1    Res =  0.6758E+02
 MRCHDU: Convergence failed at  49  side 1    Res =  0.7428E+02
 MRCHDU: Convergence failed at  50  side 1    Res =  0.6631E+02
 MRCHDU: Convergence failed at  51  side 1    Res =  0.7275E+02
 MRCHDU: Convergence failed at  52  side 1    Res =  0.6912E+02
 MRCHDU: Convergence failed at  53  side 1    Res =  0.7869E+02
 MRCHDU: Convergence failed at  54  side 1    Res =  0.9045E+02
 MRCHDU: Convergence failed at  55  side 1    Res =  0.1063E+03
 MRCHDU: Convergence failed at  56  side 1    Res =  0.1273E+03
 MRCHDU: Convergence failed at  57  side 1    Res =  0.1574E+03
 MRCHDU: Convergence failed at  58  side 1    Res =  0.2044E+03
 MRCHDU: Convergence failed at  59  side 1    Res =  0.2896E+03
 MRCHDU: Convergence failed at  60  side 1    Res =  0.1877E+04
 MRCHDU: Convergence failed at  61  side 1    Res =  0.6144E+03
 MRCHDU: Convergence failed at  62  side 1    Res =  0.3728E+03
 MRCHDU: Convergence failed at  63  side 1    Res =  0.2717E+03
 MRCHDU: Convergence failed at  64  side 1    Res =  0.2139E+03
 MRCHDU: Convergence failed at  65  side 1    Res =  0.1776E+03
 MRCHDU: Convergence failed at  66  side 1    Res =  0.1524E+03
 MRCHDU: Convergence failed at  67  side 1    Res =  0.1338E+03
 MRCHDU: Convergence failed at  68  side 1    Res =  0.1196E+03
 MRCHDU: Convergence failed at  69  side 1    Res =  0.1085E+03
 MRCHDU: Convergence failed at  70  side 1    Res =  0.5590E+02
 MRCHDU: Convergence failed at  71  side 1    Res =  0.5913E+02
 MRCHDU: Convergence failed at  72  side 1    Res =  0.6267E+02
 MRCHDU: Convergence failed at  73  side 1    Res =  0.6655E+02
 MRCHDU: Convergence failed at  74  side 1    Res =  0.7092E+02
 MRCHDU: Convergence failed at  75  side 1    Res =  0.6165E+02
 MRCHDU: Convergence failed at  76  side 1    Res =  0.6600E+02
 MRCHDU: Convergence failed at  77  side 1    Res =  0.7078E+02
 MRCHDU: Convergence failed at  78  side 1    Res =  0.7652E+02
 MRCHDU: Convergence failed at  79  side 1    Res =  0.8320E+02
 MRCHDU: Convergence failed at  80  side 1    Res =  0.9153E+02
 MRCHDU: Convergence failed at  81  side 1    Res =  0.1015E+03
 MRCHDU: Convergence failed at  82  side 1    Res =  0.1148E+03
 MRCHDU: Convergence failed at  83  side 1    Res =  0.1322E+03
 MRCHDU: Convergence failed at  84  side 1    Res =  0.1575E+03
 MRCHDU: Convergence failed at  85  side 1    Res =  0.1970E+03
 MRCHDU: Convergence failed at  86  side 1    Res =  0.2704E+03
 MRCHDU: Convergence failed at  87  side 1    Res =  0.2578E+03
 MRCHDU: Convergence failed at  88  side 1    Res =  0.4780E+02
 MRCHDU: Convergence failed at  89  side 1    Res =  0.1834E+03
 Side 1  free  transition at x/c =  0.0211   20
 Side 2 forced transition at x/c =  1.0000   73

   2   rms: 0.1845E+01   max: 0.6379E+01   D at   75  2   RLX: 0.220
       a =  7.000      CL =  2.6266
      Cm = -0.5871     CD =  0.00333   =>   CDf =  0.00116    CDp =  0.00218

 MRCHDU: Convergence failed at  22  side 1    Res =  0.9432E-01
 MRCHDU: Convergence failed at  28  side 1    Res =  0.1239E+00
 MRCHDU: Convergence failed at  30  side 1    Res =  0.2399E+00
 MRCHDU: Convergence failed at  31  side 1    Res =  0.2265E+00
 MRCHDU: Convergence failed at  32  side 1    Res =  0.2114E+00
 MRCHDU: Convergence failed at  33  side 1    Res =  0.1950E+00
 MRCHDU: Convergence failed at  34  side 1    Res =  0.1758E+00
 MRCHDU: Convergence failed at  35  side 1    Res =  0.1499E+00
 MRCHDU: Convergence failed at  36  side 1    Res =  0.5637E-01
 MRCHDU: Convergence failed at  58  side 1    Res =  0.1746E+00
 MRCHDU: Convergence failed at  59  side 1    Res =  0.1220E+00
 MRCHDU: Convergence failed at  60  side 1    Res =  0.2818E-01
 MRCHDU: Convergence failed at  61  side 1    Res =  0.1571E-02
 Side 1  free  transition at x/c =  0.0230   20
 Side 2 forced transition at x/c =  1.0000   73
 idif Ue xi dudx           1  0.14661445      4.75955009E-03   30.804266    
 Uenew xinew           2  2.36486760E-03  7.67707825E-05

   3   rms: 0.7041E+00   max: -.9039E+00   D at   72  2   RLX: 0.253
       a =  7.000      CL =  1.6691
      Cm = -0.3199     CD =  0.02817   =>   CDf =  0.00386    CDp =  0.02431

 Side 1  free  transition at x/c =  0.0238   19
 Side 2 forced transition at x/c =  1.0000   74

   4   rms: 0.6955E+00   max: -.2642E+01   D at   25  1   RLX: 0.189
       a =  7.000      CL =  1.4965
      Cm = -0.2703     CD =  0.03288   =>   CDf =  0.00315    CDp =  0.02972

 Side 1  free  transition at x/c =  0.0245   20
 Side 2 forced transition at x/c =  1.0000   73
 idif Ue xi dudx           1  0.14706703      4.81188297E-03   30.563301    
 Uenew xinew           2  3.94583400E-03  1.29103661E-04

   5   rms: 0.1537E+01   max: -.8865E+01   D at    2  1   RLX: 0.056
       a =  7.000      CL =  1.4074
      Cm = -0.2420     CD =  0.03495   =>   CDf =  0.00369    CDp =  0.03126

 Side 1  free  transition at x/c =  0.0243   19
 Side 2 forced transition at x/c =  1.0000   74

   6   rms: 0.7641E+00   max: -.5027E+01   D at   25  1   RLX: 0.099
       a =  7.000      CL =  1.3233
      Cm = -0.2124     CD =  0.03550   =>   CDf =  0.00307    CDp =  0.03243

 Side 1  free  transition at x/c =  0.0247   20
 Side 2 forced transition at x/c =  1.0000   73

   7   rms: 0.1196E+02   max: 0.1149E+03   D at    2  1   RLX: 0.007
       a =  7.000      CL =  1.3390
      Cm = -0.2152     CD =  0.03746   =>   CDf =  0.00337    CDp =  0.03409

 Side 1  free  transition at x/c =  0.0248   20
 Side 2 forced transition at x/c =  1.0000   73
 idif Ue xi dudx           1  0.15201984      4.94420528E-03   30.747074    
 Uenew xinew           2  8.03808402E-03  2.61425972E-04

   8   rms: 0.1222E+01   max: 0.6821E+01   D at   26  1   RLX: 0.182
       a =  7.000      CL =  1.1911
      Cm = -0.1639     CD =  0.03336   =>   CDf =  0.00374    CDp =  0.02961

 MRCHDU: Convergence failed at  59  side 1    Res =  0.1119E+00
 MRCHDU: Convergence failed at  60  side 1    Res =  0.3889E+00
 Side 1  free  transition at x/c =  0.0241   19
 Side 2 forced transition at x/c =  1.0000   74

   9   rms: 0.1063E+01   max: 0.7101E+01   D at    2  2   RLX: 0.128
       a =  7.000      CL =  1.0092
      Cm = -0.0602     CD =  0.03154   =>   CDf =  0.00389    CDp =  0.02764

 Side 1  free  transition at x/c =  0.0220   20
 Side 2 forced transition at x/c =  1.0000   73

  10   rms: 0.3430E+01   max: -.1469E+02   D at   41  1   RLX: 0.034
       a =  7.000      CL =  1.0118
      Cm = -0.0411     CD =  0.02827   =>   CDf =  0.00417    CDp =  0.02410

 Side 1  free  transition at x/c =  0.0212   20
 Side 2 forced transition at x/c =  1.0000   73

  11   rms: 0.2654E+01   max: 0.1290E+02   D at   44  1   RLX: 0.065
       a =  7.000      CL =  0.9760
      Cm = -0.0479     CD =  0.03927   =>   CDf =  0.00430    CDp =  0.03496

 Side 1  free  transition at x/c =  0.0236   20
 Side 2 forced transition at x/c =  1.0000   73

  12   rms: 0.1384E+01   max: -.4215E+01   D at   43  1   RLX: 0.119
       a =  7.000      CL =  1.0152
      Cm = -0.0332     CD =  0.02435   =>   CDf =  0.00383    CDp =  0.02053

 Side 1  free  transition at x/c =  0.0212   20
 Side 2 forced transition at x/c =  1.0000   73

  13   rms: 0.2204E+01   max: -.8110E+01   D at   61  1   RLX: 0.062
       a =  7.000      CL =  1.0354
      Cm = -0.0215     CD =  0.01985   =>   CDf =  0.00394    CDp =  0.01591

 MRCHDU: Convergence failed at  20  side 1    Res =  0.5466E+01
 MRCHDU: Convergence failed at  21  side 1    Res =  0.1998E+03
 Side 1  free  transition at x/c =  0.0206   19
 Side 2 forced transition at x/c =  1.0000   73

  14   rms: 0.6787E+00   max: -.2120E+01   D at   45  1   RLX: 0.236
       a =  7.000      CL =  0.9930
      Cm =  0.0020     CD =  0.01569   =>   CDf =  0.00394    CDp =  0.01175

 Side 1  free  transition at x/c =  0.0196   19
 Side 2 forced transition at x/c =  1.0000   73

  15   rms: 0.1045E+01   max: -.3450E+01   D at   73  1   RLX: 0.145
       a =  7.000      CL =  1.0151
      Cm = -0.0139     CD =  0.01508   =>   CDf =  0.00429    CDp =  0.01079

 MRCHDU: Convergence failed at  38  side 1    Res =  0.1990E+00
 Side 1  free  transition at x/c =  0.0183   19
 Side 2 forced transition at x/c =  1.0000   73

  16   rms: 0.4686E+00   max: 0.2159E+01   C at   73  2   RLX: 0.307
       a =  7.000      CL =  1.0096
      Cm = -0.0145     CD =  0.01502   =>   CDf =  0.00516    CDp =  0.00986

 MRCHDU: Convergence failed at  33  side 1    Res =  0.8329E+01
 Side 1  free  transition at x/c =  0.0180   19
 Side 2 forced transition at x/c =  1.0000   73

  17   rms: 0.3168E+00   max: 0.1686E+01   C at   73  2   RLX: 0.416
       a =  7.000      CL =  1.0114
      Cm = -0.0236     CD =  0.01571   =>   CDf =  0.00589    CDp =  0.00983

 Side 1  free  transition at x/c =  0.0177   19
 Side 2 forced transition at x/c =  1.0000   73

  18   rms: 0.2225E+00   max: -.1024E+01   D at   21  1   RLX: 0.488
       a =  7.000      CL =  0.9095
      Cm = -0.0157     CD =  0.01484   =>   CDf =  0.00596    CDp =  0.00888

 Side 1  free  transition at x/c =  0.0193   19
 Side 2 forced transition at x/c =  1.0000   73

  19   rms: 0.1516E+00   max: -.6887E+00   D at   21  1   RLX: 0.726
       a =  7.000      CL =  0.8070
      Cm = -0.0034     CD =  0.01453   =>   CDf =  0.00599    CDp =  0.00854

 Side 1  free  transition at x/c =  0.0204   19
 Side 2 forced transition at x/c =  1.0000   73

  20   rms: 0.5269E-01   max: -.3425E+00   D at   21  1
       a =  7.000      CL =  0.7615
      Cm =  0.0019     CD =  0.01432   =>   CDf =  0.00610    CDp =  0.00822

 Side 1  free  transition at x/c =  0.0207   19
 Side 2 forced transition at x/c =  1.0000   73

  21   rms: 0.3341E-02   max: -.1834E-01   D at   87  1
       a =  7.000      CL =  0.7600
      Cm =  0.0021     CD =  0.01435   =>   CDf =  0.00615    CDp =  0.00821

 Side 1  free  transition at x/c =  0.0207   19
 Side 2 forced transition at x/c =  1.0000   73

  22   rms: 0.2386E-04   max: -.2223E-03   D at   87  1
       a =  7.000      CL =  0.7600
      Cm =  0.0021     CD =  0.01435   =>   CDf =  0.00615    CDp =  0.00820
 plradd ia,ip,cpol           23           0  1.09694269E-03

 Point added to stored polar  1
 Point written to save file  rae101_Re600k.base.pol                          
 Dump file unspecified or not available
 Calculating wake trajectory ...
 Calculating source influence matrix ...

 Solving BL system ...

 Side 1  free  transition at x/c =  0.0207   19
 Side 2 forced transition at x/c =  1.0000   73

   1   rms: 0.8010E-01   max: 0.4531E+00   T at   19  1
       a =  7.500      CL =  0.8047
      Cm =  0.0042     CD =  0.01519   =>   CDf =  0.00615    CDp =  0.00904

 Side 1  free  transition at x/c =  0.0188   19
 Side 2 forced transition at x/c =  1.0000   73

   2   rms: 0.4374E-02   max: -.1680E-01   D at   20  1
       a =  7.500      CL =  0.8028
      Cm =  0.0044     CD =  0.01545   =>   CDf =  0.00603    CDp =  0.00942

 Side 1  free  transition at x/c =  0.0186   19
 Side 2 forced transition at x/c =  1.0000   73

   3   rms: 0.1961E-03   max: -.1232E-02   D at   20  1
       a =  7.500      CL =  0.8028
      Cm =  0.0044     CD =  0.01545   =>   CDf =  0.00603    CDp =  0.00942

 Side 1  free  transition at x/c =  0.0186   19
 Side 2 forced transition at x/c =  1.0000   73

   4   rms: 0.1744E-05   max: -.5513E-05   D at   29  1
       a =  7.500      CL =  0.8028
      Cm =  0.0044     CD =  0.01545   =>   CDf =  0.00603    CDp =  0.00942
 plradd ia,ip,cpol           24           0  1.09694269E-03

 Point added to stored polar  1
 Point written to save file  rae101_Re600k.base.pol                          
 Dump file unspecified or not available
 Calculating wake trajectory ...
 Calculating source influence matrix ...

 Solving BL system ...

 Side 1  free  transition at x/c =  0.0186   19
 Side 2 forced transition at x/c =  1.0000   73

   1   rms: 0.8171E-01   max: 0.3722E+00   T at   19  1
       a =  8.000      CL =  0.8455
      Cm =  0.0066     CD =  0.01663   =>   CDf =  0.00582    CDp =  0.01081

 Side 1  free  transition at x/c =  0.0163   20
 Side 2 forced transition at x/c =  1.0000   72
 idif Ue xi dudx           1  0.14912722      5.95259666E-03   25.052464    
 Uenew xinew           2  3.22540523E-04  1.28746033E-05

   2   rms: 0.4899E-01   max: -.3363E+00   D at    2  1
       a =  8.000      CL =  0.8440
      Cm =  0.0067     CD =  0.01662   =>   CDf =  0.00611    CDp =  0.01052

 Side 1  free  transition at x/c =  0.0165   19
 Side 2 forced transition at x/c =  1.0000   73

   3   rms: 0.8515E-02   max: 0.1381E+00   D at    2  2
       a =  8.000      CL =  0.8445
      Cm =  0.0066     CD =  0.01671   =>   CDf =  0.00598    CDp =  0.01073

 Side 1  free  transition at x/c =  0.0164   19
 Side 2 forced transition at x/c =  1.0000   73

   4   rms: 0.2731E-02   max: -.5010E-01   T at    2  2
       a =  8.000      CL =  0.8445
      Cm =  0.0066     CD =  0.01671   =>   CDf =  0.00573    CDp =  0.01098

 Side 1  free  transition at x/c =  0.0164   20
 Side 2 forced transition at x/c =  1.0000   72
 idif Ue xi dudx           1  0.14901534      5.94770908E-03   25.054241    
 Uenew xinew           2  2.00108785E-04  7.98702240E-06

   5   rms: 0.3713E-01   max: -.6571E+00   D at    2  1   RLX: 0.761
       a =  8.000      CL =  0.8445
      Cm =  0.0066     CD =  0.01671   =>   CDf =  0.00617    CDp =  0.01053

 Side 1  free  transition at x/c =  0.0164   19
 Side 2 forced transition at x/c =  1.0000   73

   6   rms: 0.7244E-02   max: 0.1264E+00   T at    2  2
       a =  8.000      CL =  0.8445
      Cm =  0.0066     CD =  0.01671   =>   CDf =  0.00598    CDp =  0.01073

 Side 1  free  transition at x/c =  0.0164   19
 Side 2 forced transition at x/c =  1.0000   73

   7   rms: 0.3640E-02   max: 0.5972E-01   D at    2  2
       a =  8.000      CL =  0.8445
      Cm =  0.0066     CD =  0.01671   =>   CDf =  0.00573    CDp =  0.01097

 Side 1  free  transition at x/c =  0.0164   20
 Side 2 forced transition at x/c =  1.0000   72

   8   rms: 0.2987E-01   max: 0.5308E+00   T at    2  1
       a =  8.000      CL =  0.8445
      Cm =  0.0066     CD =  0.01671   =>   CDf =  0.00597    CDp =  0.01074

 Side 1  free  transition at x/c =  0.0164   20
 Side 2 forced transition at x/c =  1.0000   72

   9   rms: 0.6059E-03   max: 0.7899E-02   D at    4  1
       a =  8.000      CL =  0.8445
      Cm =  0.0066     CD =  0.01671   =>   CDf =  0.00597    CDp =  0.01074

 Side 1  free  transition at x/c =  0.0164   20
 Side 2 forced transition at x/c =  1.0000   72

  10   rms: 0.1680E-04   max: 0.1640E-03   T at    4  1
       a =  8.000      CL =  0.8445
      Cm =  0.0066     CD =  0.01671   =>   CDf =  0.00597    CDp =  0.01074
 plradd ia,ip,cpol           25           0  1.09694269E-03

 Point added to stored polar  1
 Point written to save file  rae101_Re600k.base.pol                          
 Dump file unspecified or not available
 Calculating wake trajectory ...
 Calculating source influence matrix ...

 Solving BL system ...

 Side 1  free  transition at x/c =  0.0164   20
 Side 2 forced transition at x/c =  1.0000   72

   1   rms: 0.1307E+00   max: -.1061E+01   D at    3  1   RLX: 0.471
       a =  8.500      CL =  0.8603
      Cm =  0.0081     CD =  0.01794   =>   CDf =  0.00597    CDp =  0.01197

 Side 1  free  transition at x/c =  0.0156   19
 Side 2 forced transition at x/c =  1.0000   72

   2   rms: 0.3953E-01   max: 0.2944E+00   T at   19  1
       a =  8.500      CL =  0.8824
      Cm =  0.0094     CD =  0.01867   =>   CDf =  0.00582    CDp =  0.01286

 Side 1  free  transition at x/c =  0.0151   19
 Side 2 forced transition at x/c =  1.0000   72

   3   rms: 0.4425E-02   max: 0.5670E-01   D at   19  1
       a =  8.500      CL =  0.8810
      Cm =  0.0095     CD =  0.01909   =>   CDf =  0.00574    CDp =  0.01335

 Side 1  free  transition at x/c =  0.0150   19
 Side 2 forced transition at x/c =  1.0000   72

   4   rms: 0.1529E-03   max: 0.8595E-03   D at   21  1
       a =  8.500      CL =  0.8810
      Cm =  0.0095     CD =  0.01908   =>   CDf =  0.00573    CDp =  0.01334

 Side 1  free  transition at x/c =  0.0150   19
 Side 2 forced transition at x/c =  1.0000   72

   5   rms: 0.2174E-05   max: 0.6426E-05   D at   90  1
       a =  8.500      CL =  0.8810
      Cm =  0.0095     CD =  0.01908   =>   CDf =  0.00573    CDp =  0.01334
 plradd ia,ip,cpol           26           0  1.09694269E-03

 Point added to stored polar  1
 Point written to save file  rae101_Re600k.base.pol                          
 Dump file unspecified or not available
 Calculating wake trajectory ...
 Calculating source influence matrix ...

 Solving BL system ...

 Side 1  free  transition at x/c =  0.0150   19
 Side 2 forced transition at x/c =  1.0000   72

   1   rms: 0.8232E-01   max: 0.3252E+00   T at   19  1
       a =  9.000      CL =  0.9224
      Cm =  0.0117     CD =  0.02079   =>   CDf =  0.00574    CDp =  0.01505

 Side 1  free  transition at x/c =  0.0140   19
 Side 2 forced transition at x/c =  1.0000   72

   2   rms: 0.5039E-02   max: -.2323E-01   D at   20  1
       a =  9.000      CL =  0.9203
      Cm =  0.0119     CD =  0.02106   =>   CDf =  0.00548    CDp =  0.01558

 Side 1  free  transition at x/c =  0.0139   19
 Side 2 forced transition at x/c =  1.0000   72

   3   rms: 0.6737E-04   max: 0.3434E-03   D at   21  1
       a =  9.000      CL =  0.9204
      Cm =  0.0119     CD =  0.02107   =>   CDf =  0.00549    CDp =  0.01557
 plradd ia,ip,cpol           27           0  3.83713865E-04

 Point added to stored polar  1
 Point written to save file  rae101_Re600k.base.pol                          
 Dump file unspecified or not available
 Calculating wake trajectory ...
 Calculating source influence matrix ...

 Solving BL system ...

 Side 1  free  transition at x/c =  0.0139   19
 Side 2 forced transition at x/c =  1.0000   72

   1   rms: 0.8487E-01   max: 0.2466E+00   T at   19  1
       a =  9.500      CL =  0.9588
      Cm =  0.0143     CD =  0.02331   =>   CDf =  0.00550    CDp =  0.01781

 Side 1  free  transition at x/c =  0.0131   19
 Side 2 forced transition at x/c =  1.0000   72

   2   rms: 0.1429E-01   max: -.5298E-01   D at   22  1
       a =  9.500      CL =  0.9572
      Cm =  0.0144     CD =  0.02327   =>   CDf =  0.00519    CDp =  0.01808

 Side 1  free  transition at x/c =  0.0130   19
 Side 2 forced transition at x/c =  1.0000   72

   3   rms: 0.2517E-03   max: 0.1579E-02   D at   20  1
       a =  9.500      CL =  0.9573
      Cm =  0.0143     CD =  0.02330   =>   CDf =  0.00525    CDp =  0.01805

 Side 1  free  transition at x/c =  0.0130   19
 Side 2 forced transition at x/c =  1.0000   72

   4   rms: 0.4782E-05   max: 0.1427E-04   D at   81  1
       a =  9.500      CL =  0.9573
      Cm =  0.0143     CD =  0.02330   =>   CDf =  0.00525    CDp =  0.01805
 plradd ia,ip,cpol           28           0  3.83713865E-04

 Point added to stored polar  1
 Point written to save file  rae101_Re600k.base.pol                          
 Dump file unspecified or not available
 Calculating wake trajectory ...
 Calculating source influence matrix ...

 Solving BL system ...

 Side 1  free  transition at x/c =  0.0130   19
 Side 2 forced transition at x/c =  1.0000   72

   1   rms: 0.8208E-01   max: 0.2328E+00   T at   19  1
       a = 10.000      CL =  0.9931
      Cm =  0.0168     CD =  0.02572   =>   CDf =  0.00497    CDp =  0.02075

 Side 1  free  transition at x/c =  0.0124   20
 Side 2 forced transition at x/c =  1.0000   71

   2   rms: 0.1946E-01   max: -.6558E-01   D at   22  1
       a = 10.000      CL =  0.9906
      Cm =  0.0169     CD =  0.02568   =>   CDf =  0.00490    CDp =  0.02078

 Side 1  free  transition at x/c =  0.0124   20
 Side 2 forced transition at x/c =  1.0000   71

   3   rms: 0.8211E-03   max: -.7993E-02   D at    4  1
       a = 10.000      CL =  0.9907
      Cm =  0.0169     CD =  0.02573   =>   CDf =  0.00499    CDp =  0.02074

 Side 1  free  transition at x/c =  0.0124   20
 Side 2 forced transition at x/c =  1.0000   71

   4   rms: 0.7372E-05   max: 0.2047E-04   D at   81  1
       a = 10.000      CL =  0.9907
      Cm =  0.0169     CD =  0.02573   =>   CDf =  0.00499    CDp =  0.02074
 plradd ia,ip,cpol           29           0  3.83713865E-04

 Point added to stored polar  1
 Point written to save file  rae101_Re600k.base.pol                          
 Dump file unspecified or not available

.OPERva   c>  
 Solving BL system ...

 Side 1  free  transition at x/c =  0.0124   20
 Side 2 forced transition at x/c =  1.0000   71

   1   rms: 0.1069E-05   max: 0.3584E-05   D at   23  1
       a = 10.000      CL =  0.9907
      Cm =  0.0169     CD =  0.02573   =>   CDf =  0.00499    CDp =  0.02074
 plradd ia,ip,cpol           30         182  3.83713865E-04

 Point added to stored polar  1
 Point written to save file  rae101_Re600k.base.pol                          
 Dump file unspecified or not available
 Calculating wake trajectory ...
 Calculating source influence matrix ...

 Solving BL system ...

 Side 1  free  transition at x/c =  0.0124   20
 Side 2 forced transition at x/c =  1.0000   71

   1   rms: 0.3958E-01   max: 0.1661E+00   T at   20  1
       a = 10.250      CL =  1.0067
      Cm =  0.0182     CD =  0.02694   =>   CDf =  0.00499    CDp =  0.02195

 Side 1  free  transition at x/c =  0.0120   20
 Side 2 forced transition at x/c =  1.0000   71

   2   rms: 0.5212E-02   max: -.1659E-01   D at   90  1
       a = 10.250      CL =  1.0038
      Cm =  0.0184     CD =  0.02738   =>   CDf =  0.00485    CDp =  0.02253

 Side 1  free  transition at x/c =  0.0119   20
 Side 2 forced transition at x/c =  1.0000   71

   3   rms: 0.1491E-03   max: 0.6646E-03   D at   20  1
       a = 10.250      CL =  1.0038
      Cm =  0.0184     CD =  0.02738   =>   CDf =  0.00487    CDp =  0.02251

 Side 1  free  transition at x/c =  0.0119   20
 Side 2 forced transition at x/c =  1.0000   71

   4   rms: 0.3429E-05   max: -.1274E-04   C at   71  2
       a = 10.250      CL =  1.0038
      Cm =  0.0184     CD =  0.02738   =>   CDf =  0.00487    CDp =  0.02251
 plradd ia,ip,cpol           31           0  3.83713865E-04

 Point added to stored polar  1
 Point written to save file  rae101_Re600k.base.pol                          
 Dump file unspecified or not available
 Calculating wake trajectory ...
 Calculating source influence matrix ...

 Solving BL system ...

 Side 1  free  transition at x/c =  0.0119   20
 Side 2 forced transition at x/c =  1.0000   71

   1   rms: 0.5510E-01   max: 0.1415E+00   T at   20  1
       a = 10.500      CL =  1.0136
      Cm =  0.0202     CD =  0.02986   =>   CDf =  0.00487    CDp =  0.02499

 Side 1  free  transition at x/c =  0.0117   20
 Side 2 forced transition at x/c =  1.0000   71

   2   rms: 0.9210E-02   max: -.2701E-01   D at   87  1
       a = 10.500      CL =  1.0080
      Cm =  0.0207     CD =  0.03046   =>   CDf =  0.00454    CDp =  0.02592

 Side 1  free  transition at x/c =  0.0117   20
 Side 2 forced transition at x/c =  1.0000   71

   3   rms: 0.3867E-03   max: 0.1168E-02   D at   73  2
       a = 10.500      CL =  1.0080
      Cm =  0.0207     CD =  0.03047   =>   CDf =  0.00459    CDp =  0.02589

 Side 1  free  transition at x/c =  0.0117   20
 Side 2 forced transition at x/c =  1.0000   71

   4   rms: 0.8347E-05   max: -.2528E-04   D at   24  1
       a = 10.500      CL =  1.0080
      Cm =  0.0207     CD =  0.03047   =>   CDf =  0.00458    CDp =  0.02589
 plradd ia,ip,cpol           32           0  3.83713865E-04

 Point added to stored polar  1
 Point written to save file  rae101_Re600k.base.pol                          
 Dump file unspecified or not available
 Calculating wake trajectory ...
 Calculating source influence matrix ...

 Solving BL system ...

 Side 1  free  transition at x/c =  0.0117   20
 Side 2 forced transition at x/c =  1.0000   71

   1   rms: 0.7846E-01   max: 0.1775E+00   D at   25  1
       a = 10.750      CL =  1.0077
      Cm =  0.0232     CD =  0.03454   =>   CDf =  0.00459    CDp =  0.02996

 Side 1  free  transition at x/c =  0.0115   19
 Side 2 forced transition at x/c =  1.0000   71

   2   rms: 0.2845E-01   max: -.8334E-01   D at   80  1
       a = 10.750      CL =  0.9913
      Cm =  0.0244     CD =  0.03609   =>   CDf =  0.00392    CDp =  0.03217

 Side 1  free  transition at x/c =  0.0114   19
 Side 2 forced transition at x/c =  1.0000   71

   3   rms: 0.1312E+00   max: 0.4596E+00   D at   91  1
       a = 10.750      CL =  1.0240
      Cm =  0.0205     CD =  0.03479   =>   CDf =  0.00482    CDp =  0.02997

 Side 1  free  transition at x/c =  0.0114   19
 Side 2 forced transition at x/c =  1.0000   71

   4   rms: 0.4210E-01   max: 0.1624E+00   D at   73  2
       a = 10.750      CL =  0.9941
      Cm =  0.0241     CD =  0.03567   =>   CDf =  0.00395    CDp =  0.03173

 Side 1  free  transition at x/c =  0.0114   19
 Side 2 forced transition at x/c =  1.0000   71

   5   rms: 0.1174E+00   max: 0.4146E+00   D at   91  1
       a = 10.750      CL =  1.0190
      Cm =  0.0212     CD =  0.03499   =>   CDf =  0.00476    CDp =  0.03023

 Side 1  free  transition at x/c =  0.0114   19
 Side 2 forced transition at x/c =  1.0000   71

   6   rms: 0.3714E-01   max: 0.1502E+00   D at   73  2
       a = 10.750      CL =  0.9936
      Cm =  0.0241     CD =  0.03581   =>   CDf =  0.00397    CDp =  0.03184

 Side 1  free  transition at x/c =  0.0114   19
 Side 2 forced transition at x/c =  1.0000   71

   7   rms: 0.1202E+00   max: 0.4235E+00   D at   91  1
       a = 10.750      CL =  1.0200
      Cm =  0.0211     CD =  0.03496   =>   CDf =  0.00478    CDp =  0.03018

 Side 1  free  transition at x/c =  0.0114   19
 Side 2 forced transition at x/c =  1.0000   71

   8   rms: 0.3810E-01   max: 0.1535E+00   D at   73  2
       a = 10.750      CL =  0.9937
      Cm =  0.0241     CD =  0.03578   =>   CDf =  0.00397    CDp =  0.03182

 Side 1  free  transition at x/c =  0.0114   19
 Side 2 forced transition at x/c =  1.0000   71

   9   rms: 0.1196E+00   max: 0.4219E+00   D at   91  1
       a = 10.750      CL =  1.0198
      Cm =  0.0211     CD =  0.03496   =>   CDf =  0.00477    CDp =  0.03019

 Side 1  free  transition at x/c =  0.0114   19
 Side 2 forced transition at x/c =  1.0000   71

  10   rms: 0.3792E-01   max: 0.1530E+00   D at   73  2
       a = 10.750      CL =  0.9937
      Cm =  0.0241     CD =  0.03579   =>   CDf =  0.00397    CDp =  0.03182

 Side 1  free  transition at x/c =  0.0114   19
 Side 2 forced transition at x/c =  1.0000   71

  11   rms: 0.1197E+00   max: 0.4222E+00   D at   91  1
       a = 10.750      CL =  1.0198
      Cm =  0.0211     CD =  0.03496   =>   CDf =  0.00477    CDp =  0.03019

 Side 1  free  transition at x/c =  0.0114   19
 Side 2 forced transition at x/c =  1.0000   71

  12   rms: 0.3795E-01   max: 0.1531E+00   D at   73  2
       a = 10.750      CL =  0.9937
      Cm =  0.0241     CD =  0.03579   =>   CDf =  0.00397    CDp =  0.03182

 Side 1  free  transition at x/c =  0.0114   19
 Side 2 forced transition at x/c =  1.0000   71

  13   rms: 0.1197E+00   max: 0.4221E+00   D at   91  1
       a = 10.750      CL =  1.0198
      Cm =  0.0211     CD =  0.03496   =>   CDf =  0.00477    CDp =  0.03019

 Side 1  free  transition at x/c =  0.0114   19
 Side 2 forced transition at x/c =  1.0000   71

  14   rms: 0.3795E-01   max: 0.1531E+00   D at   73  2
       a = 10.750      CL =  0.9937
      Cm =  0.0241     CD =  0.03579   =>   CDf =  0.00397    CDp =  0.03182

 Side 1  free  transition at x/c =  0.0114   19
 Side 2 forced transition at x/c =  1.0000   71

  15   rms: 0.1197E+00   max: 0.4221E+00   D at   91  1
       a = 10.750      CL =  1.0198
      Cm =  0.0211     CD =  0.03496   =>   CDf =  0.00477    CDp =  0.03019

 Side 1  free  transition at x/c =  0.0114   19
 Side 2 forced transition at x/c =  1.0000   71

  16   rms: 0.3795E-01   max: 0.1531E+00   D at   73  2
       a = 10.750      CL =  0.9937
      Cm =  0.0241     CD =  0.03579   =>   CDf =  0.00397    CDp =  0.03182

 Side 1  free  transition at x/c =  0.0114   19
 Side 2 forced transition at x/c =  1.0000   71

  17   rms: 0.1197E+00   max: 0.4221E+00   D at   91  1
       a = 10.750      CL =  1.0198
      Cm =  0.0211     CD =  0.03496   =>   CDf =  0.00477    CDp =  0.03019

 Side 1  free  transition at x/c =  0.0114   19
 Side 2 forced transition at x/c =  1.0000   71

[...]

 Side 1  free  transition at x/c =  0.0113   19
 Side 2 forced transition at x/c =  1.0000   71

 128   rms: 0.1505E+01   max: 0.1789E+02   C at   71  2   RLX: 0.084
       a = 13.750      CL =  3.7831
      Cm = -0.8376     CD =  0.12718   =>   CDf =  0.00193    CDp =  0.12525

 Side 1  free  transition at x/c =  0.0114   19
 Side 2 forced transition at x/c =  1.0000   71

 129   rms: 0.1522E+01   max: 0.7053E+01   C at   71  2   RLX: 0.109
       a = 13.750      CL =  3.3605
      Cm = -0.7254     CD =  0.14874   =>   CDf =  0.00213    CDp =  0.14661

 Side 1  free  transition at x/c =  0.0115   20
 Side 2 forced transition at x/c =  1.0000   71

 130   rms: 0.1390E+01   max: 0.1930E+02   C at   71  2   RLX: 0.078
       a = 13.750      CL =  3.0594
      Cm = -0.6393     CD =  0.20616   =>   CDf =  0.00233    CDp =  0.20383

 Side 1  free  transition at x/c =  0.0114   19
 Side 2 forced transition at x/c =  1.0000   71

 131   rms: 0.1367E+01   max: 0.1756E+02   C at   71  2   RLX: 0.067
       a = 13.750      CL =  2.9194
      Cm = -0.5925     CD =  0.21159   =>   CDf =  0.00245    CDp =  0.20914

 Side 1  free  transition at x/c =  0.0114   19
 Side 2 forced transition at x/c =  1.0000   71

 132   rms: 0.1347E+01   max: 0.1864E+02   C at   71  2   RLX: 0.062
       a = 13.750      CL =  2.7882
      Cm = -0.5536     CD =  0.22956   =>   CDf =  0.00257    CDp =  0.22699

 Side 1  free  transition at x/c =  0.0114   19
 Side 2 forced transition at x/c =  1.0000   71
 idif Ue xi dudx           1  0.13605222      7.77482986E-03   17.499062    
 Uenew xinew           2  3.51916743E-03  2.01106071E-04

 133   rms: 0.1312E+01   max: 0.1850E+02   C at   71  2   RLX: 0.051
       a = 13.750      CL =  2.6965
      Cm = -0.5257     CD =  0.24489   =>   CDf =  0.00291    CDp =  0.24198

 Side 1  free  transition at x/c =  0.0114   18
 Side 2 forced transition at x/c =  1.0000   72

 134   rms: 0.1385E+01   max: 0.1340E+02   C at   72  2   RLX: 0.039
       a = 13.750      CL =  2.6160
      Cm = -0.5025     CD =  0.26529   =>   CDf =  0.00274    CDp =  0.26254

 MRCHDU: Convergence failed at  94  side 2    Res =  0.6976E-01
 Side 1  free  transition at x/c =  0.0115   18
 Side 2 forced transition at x/c =  1.0000   72

 135   rms: 0.1161E+01   max: 0.1647E+02   C at   72  2   RLX: 0.058
       a = 13.750      CL =  2.5133
      Cm = -0.4737     CD =  0.24231   =>   CDf =  0.00279    CDp =  0.23953

 MRCHDU: Convergence failed at  94  side 2    Res =  0.2561E+00
 Side 1  free  transition at x/c =  0.0115   19
 Side 2 forced transition at x/c =  1.0000   72

 136   rms: 0.5450E+01   max: -.1538E+02   T at   19  1   RLX: 0.031
       a = 13.750      CL =  2.3547
      Cm = -0.4434     CD =  0.61356   =>   CDf =  0.00282    CDp =  0.61074

 Side 1  free  transition at x/c =  0.0138   19
 Side 2 forced transition at x/c =  1.0000   72

 137   rms: 0.1369E+01   max: -.3805E+01   T at   94  2   RLX: 0.131
       a = 13.750      CL =  1.8461
      Cm = -0.3204     CD =  0.55676   =>   CDf =  0.00283    CDp =  0.55393

 Side 1  free  transition at x/c =  0.0135   19
 Side 2 forced transition at x/c =  1.0000   72
 idif Ue xi dudx           1  0.17708753      6.53302670E-03   27.106506    
 Uenew xinew           2  1.60824154E-02  5.93304634E-04

 138   rms: 0.1133E+01   max: -.3456E+01   T at   94  2   RLX: 0.145
       a = 13.750      CL =  1.5378
      Cm = -0.2500     CD =  1.19125   =>   CDf =  0.00305    CDp =  1.18820

 Side 1  free  transition at x/c =  0.0138   18
 Side 2 forced transition at x/c =  1.0000   73

 139   rms: 0.1018E+01   max: -.3892E+01   T at   89  1   RLX: 0.128
       a = 13.750      CL =  1.3232
      Cm = -0.2013     CD =  2.76219   =>   CDf =  0.00282    CDp =  2.75937

 Side 1  free  transition at x/c =  0.0144   18
 Side 2 forced transition at x/c =  1.0000   73

 140   rms: 0.8004E+00   max: 0.6034E+01   C at   73  2   RLX: 0.248
       a = 13.750      CL =  1.0235
      Cm = -0.1358     CD =  6.11350   =>   CDf =  0.00277    CDp =  6.11073

 Side 1  free  transition at x/c =  0.0152   18
 Side 2 forced transition at x/c =  1.0000   73

 141   rms: 0.9642E+01   max: -.6112E+02   T at   90  2   RLX: 0.008
       a = 13.750      CL =  1.0027
      Cm = -0.1302     CD = 56.39091   =>   CDf =  0.00266    CDp = 56.38826

 Side 1  free  transition at x/c =  0.0153   18
 Side 2 forced transition at x/c =  1.0000   73

 142   rms: 0.6960E+00   max: 0.9370E+01   C at   73  2   RLX: 0.160
       a = 13.750      CL =  0.8923
      Cm = -0.1061     CD = 50.87117   =>   CDf =  0.00264    CDp = 50.86853

 Side 1  free  transition at x/c =  0.0155   18
 Side 2 forced transition at x/c =  1.0000   73

 143   rms: 0.1268E+01   max: -.9094E+01   T at   88  2   RLX: 0.055
       a = 13.750      CL =  0.8455
      Cm = -0.0946     CD = 55.92230   =>   CDf =  0.00254    CDp = 55.91976

 Side 1  free  transition at x/c =  0.0156   18
 Side 2 forced transition at x/c =  1.0000   73

 144   rms: 0.6226E+00   max: 0.8135E+01   C at   73  2   RLX: 0.184
       a = 13.750      CL =  0.7265
      Cm = -0.0632     CD = 11.78652   =>   CDf =  0.00250    CDp = 11.78402

 MRCHDU: Convergence failed at  19  side 1    Res =  0.7439E+03
 MRCHDU: Convergence failed at  20  side 1    Res =  0.1417E+02
 MRCHDU: Convergence failed at  21  side 1    Res =  0.2295E+02
 MRCHDU: Convergence failed at  22  side 1    Res =  0.9910E+01
 MRCHDU: Convergence failed at  23  side 1    Res =  0.1047E+03
 MRCHDU: Convergence failed at  24  side 1    Res =  0.2357E+02
 MRCHDU: Convergence failed at  25  side 1    Res =  0.1398E+02
 MRCHDU: Convergence failed at  26  side 1    Res =  0.3232E+02
 MRCHDU: Convergence failed at  27  side 1    Res =  0.1503E+03
 MRCHDU: Convergence failed at  28  side 1    Res =  0.2667E+02
 MRCHDU: Convergence failed at  29  side 1    Res =  0.1076E+02
 MRCHDU: Convergence failed at  30  side 1    Res =  0.1555E+02
 MRCHDU: Convergence failed at  31  side 1    Res =  0.2057E+02
 MRCHDU: Convergence failed at  32  side 1    Res =  0.3092E+02
 MRCHDU: Convergence failed at  33  side 1    Res =  0.1722E+03
 MRCHDU: Convergence failed at  34  side 1    Res =  0.7065E+02
 MRCHDU: Convergence failed at  35  side 1    Res =  0.3293E+02
 MRCHDU: Convergence failed at  36  side 1    Res =  0.2068E+02
 MRCHDU: Convergence failed at  37  side 1    Res =  0.1594E+02
 MRCHDU: Convergence failed at  38  side 1    Res =  0.1338E+02
 MRCHDU: Convergence failed at  39  side 1    Res =  0.1581E+02
 MRCHDU: Convergence failed at  40  side 1    Res =  0.2343E+02
 MRCHDU: Convergence failed at  41  side 1    Res =  0.2982E+02
 MRCHDU: Convergence failed at  42  side 1    Res =  0.5560E+02
 MRCHDU: Convergence failed at  43  side 1    Res =  0.2941E+03
 MRCHDU: Convergence failed at  44  side 1    Res =  0.5310E+02
 MRCHDU: Convergence failed at  45  side 1    Res =  0.3338E+02
 MRCHDU: Convergence failed at  46  side 1    Res =  0.2179E+02
 MRCHDU: Convergence failed at  47  side 1    Res =  0.1644E+02
 MRCHDU: Convergence failed at  48  side 1    Res =  0.1247E+02
 MRCHDU: Convergence failed at  49  side 1    Res =  0.1583E+02
 MRCHDU: Convergence failed at  50  side 1    Res =  0.2211E+02
 MRCHDU: Convergence failed at  51  side 1    Res =  0.3018E+02
 MRCHDU: Convergence failed at  52  side 1    Res =  0.4280E+02
 MRCHDU: Convergence failed at  53  side 1    Res =  0.1214E+03
 MRCHDU: Convergence failed at  54  side 1    Res =  0.6676E+02
 MRCHDU: Convergence failed at  55  side 1    Res =  0.3253E+02
 MRCHDU: Convergence failed at  56  side 1    Res =  0.2129E+02
 MRCHDU: Convergence failed at  57  side 1    Res =  0.1637E+02
 MRCHDU: Convergence failed at  58  side 1    Res =  0.1314E+02
 MRCHDU: Convergence failed at  59  side 1    Res =  0.1770E+02
 MRCHDU: Convergence failed at  60  side 1    Res =  0.2733E+02
 MRCHDU: Convergence failed at  61  side 1    Res =  0.4220E+02
 MRCHDU: Convergence failed at  62  side 1    Res =  0.1432E+03
 MRCHDU: Convergence failed at  63  side 1    Res =  0.5145E+02
 MRCHDU: Convergence failed at  64  side 1    Res =  0.2541E+02
 MRCHDU: Convergence failed at  65  side 1    Res =  0.1527E+02
 MRCHDU: Convergence failed at  66  side 1    Res =  0.1287E+02
 MRCHDU: Convergence failed at  67  side 1    Res =  0.1807E+02
 MRCHDU: Convergence failed at  68  side 1    Res =  0.2811E+02
 MRCHDU: Convergence failed at  69  side 1    Res =  0.7841E+02
 MRCHDU: Convergence failed at  70  side 1    Res =  0.5006E+02
 MRCHDU: Convergence failed at  71  side 1    Res =  0.2034E+02
 MRCHDU: Convergence failed at  72  side 1    Res =  0.1193E+02
 MRCHDU: Convergence failed at  73  side 1    Res =  0.1200E+02
 MRCHDU: Convergence failed at  74  side 1    Res =  0.1711E+02
 MRCHDU: Convergence failed at  75  side 1    Res =  0.3749E+02
 MRCHDU: Convergence failed at  76  side 1    Res =  0.1881E+02
 MRCHDU: Convergence failed at  77  side 1    Res =  0.1676E+01
 Side 1  free  transition at x/c =  0.0164   19
 Side 2 forced transition at x/c =  1.0000   73

 145   rms: 0.3680E+01   max: 0.1721E+02   D at   77  1   RLX: 0.087
       a = 13.750      CL =  2.4406
      Cm = -0.5287     CD =  5.67354   =>   CDf =  0.00190    CDp =  5.67164

 MRCHDU: Convergence failed at  24  side 1    Res =  0.3826E+00
 Side 1  free  transition at x/c =  0.0162   19
 Side 2 forced transition at x/c =  1.0000   73

 146   rms: 0.7797E+00   max: 0.4686E+01   C at   73  2   RLX: 0.266
       a = 13.750      CL =  1.3389
      Cm = -0.1982     CD =  2.79420   =>   CDf =  0.00289    CDp =  2.79131

 Side 1  free  transition at x/c =  0.0157   19
 Side 2 forced transition at x/c =  1.0000   73

 147   rms: 0.1577E+01   max: -.1439E+02   T at   85  2   RLX: 0.035
       a = 13.750      CL =  1.2967
      Cm = -0.1890     CD =  3.02751   =>   CDf =  0.00274    CDp =  3.02477

 MRCHDU: Convergence failed at  89  side 2    Res =  0.3422E-02
 Side 1  free  transition at x/c =  0.0156   19
 Side 2 forced transition at x/c =  1.0000   73

 148   rms: 0.8612E+00   max: -.5078E+01   T at   90  2   RLX: 0.098
       a = 13.750      CL =  1.2106
      Cm = -0.1641     CD =  7.22056   =>   CDf =  0.00252    CDp =  7.21804

 MRCHDU: Convergence failed at  86  side 2    Res =  0.5419E-02
 MRCHDU: Convergence failed at  87  side 2    Res =  0.1399E+00
 MRCHDU: Convergence failed at  88  side 2    Res =  0.5070E+00
 MRCHDU: Convergence failed at  89  side 2    Res =  0.5383E+00
 Side 1  free  transition at x/c =  0.0156   19
 Side 2 forced transition at x/c =  1.0000   72

 149   rms: 0.2486E+02   max: -.2680E+03   C at   90  2   RLX: 0.002
       a = 13.750      CL =  1.1941
      Cm = -0.1561     CD =112.12753   =>   CDf =  0.00266    CDp =112.12487

 MRCHDU: Convergence failed at  86  side 2    Res =  0.5391E-02
 MRCHDU: Convergence failed at  87  side 2    Res =  0.2527E-01
 MRCHDU: Convergence failed at  88  side 2    Res =  0.2370E-01
 MRCHDU: Convergence failed at  89  side 2    Res =  0.1360E-01
 MRCHDU: Convergence failed at  90  side 2    Res =  0.2084E-01
 MRCHDU: Convergence failed at  91  side 2    Res =  0.1444E+00
 Side 1  free  transition at x/c =  0.0155   19
 Side 2 forced transition at x/c =  1.0000   72

 150   rms: 0.1881E+02   max: 0.2244E+03   T at   94  2   RLX: 0.007
       a = 13.750      CL =  1.1876
      Cm = -0.1529     CD =  8.23705   =>   CDf =  0.00261    CDp =  8.23444

 MRCHDU: Convergence failed at  86  side 2    Res =  0.5233E-02
 MRCHDU: Convergence failed at  87  side 2    Res =  0.2514E-01
 MRCHDU: Convergence failed at  88  side 2    Res =  0.2161E-01
 MRCHDU: Convergence failed at  89  side 2    Res =  0.9797E-02
 MRCHDU: Convergence failed at  90  side 2    Res =  0.6436E-02
 MRCHDU: Convergence failed at  91  side 2    Res =  0.2993E-01
 Side 1  free  transition at x/c =  0.0151   19
 Side 2 forced transition at x/c =  1.0000   72

 151   rms: 0.8536E+01   max: 0.9859E+02   C at   91  2   RLX: 0.015
       a = 13.750      CL =  1.1734
      Cm = -0.1519     CD =  3.11515   =>   CDf =  0.00248    CDp =  3.11266

 MRCHDU: Convergence failed at  86  side 2    Res =  0.4603E-02
 MRCHDU: Convergence failed at  87  side 2    Res =  0.2648E-01
 MRCHDU: Convergence failed at  88  side 2    Res =  0.2524E-01
 MRCHDU: Convergence failed at  89  side 2    Res =  0.1465E-01
 MRCHDU: Convergence failed at  90  side 2    Res =  0.1386E-01
 Side 1  free  transition at x/c =  0.0152   19
 Side 2 forced transition at x/c =  1.0000   72

 152   rms: 0.1872E+02   max: 0.1698E+03   C at   91  2   RLX: 0.009
       a = 13.750      CL =  1.1507
      Cm = -0.1501     CD =  1.94551   =>   CDf =  0.00246    CDp =  1.94305

 MRCHDU: Convergence failed at  86  side 2    Res =  0.5142E-02
 MRCHDU: Convergence failed at  87  side 2    Res =  0.2777E-01
 MRCHDU: Convergence failed at  88  side 2    Res =  0.4174E-01
 MRCHDU: Convergence failed at  89  side 2    Res =  0.9346E+00
 Side 1  free  transition at x/c =  0.0154   19
 Side 2 forced transition at x/c =  1.0000   72

 153   rms: 0.1199E+02   max: 0.1163E+03   C at   89  2   RLX: 0.013
       a = 13.750      CL =  1.1157
      Cm = -0.1477     CD =  1.24692   =>   CDf =  0.00246    CDp =  1.24446

 MRCHDU: Convergence failed at  20  side 1    Res =  0.3043E+01
 MRCHDU: Convergence failed at  21  side 1    Res =  0.8798E+02
 MRCHDU: Convergence failed at  22  side 1    Res =  0.1054E+02
 MRCHDU: Convergence failed at  23  side 1    Res =  0.3413E+02
 MRCHDU: Convergence failed at  24  side 1    Res =  0.6525E+02
 MRCHDU: Convergence failed at  25  side 1    Res =  0.2745E+02
 MRCHDU: Convergence failed at  26  side 1    Res =  0.1475E+02
 MRCHDU: Convergence failed at  27  side 1    Res =  0.4836E+02
 MRCHDU: Convergence failed at  28  side 1    Res =  0.1501E+04
 MRCHDU: Convergence failed at  29  side 1    Res =  0.8475E+02
 MRCHDU: Convergence failed at  30  side 1    Res =  0.2533E+02
 MRCHDU: Convergence failed at  31  side 1    Res =  0.1590E+02
 MRCHDU: Convergence failed at  32  side 1    Res =  0.1325E+02
 MRCHDU: Convergence failed at  33  side 1    Res =  0.2057E+02
 MRCHDU: Convergence failed at  34  side 1    Res =  0.4673E+02
 MRCHDU: Convergence failed at  35  side 1    Res =  0.5072E+03
 MRCHDU: Convergence failed at  36  side 1    Res =  0.4214E+02
 MRCHDU: Convergence failed at  37  side 1    Res =  0.2323E+02
 MRCHDU: Convergence failed at  38  side 1    Res =  0.1741E+02
 MRCHDU: Convergence failed at  39  side 1    Res =  0.1006E+02
 MRCHDU: Convergence failed at  40  side 1    Res =  0.9913E+01
 MRCHDU: Convergence failed at  41  side 1    Res =  0.1216E+02
 MRCHDU: Convergence failed at  42  side 1    Res =  0.1421E+02
 MRCHDU: Convergence failed at  43  side 1    Res =  0.1680E+02
 MRCHDU: Convergence failed at  44  side 1    Res =  0.2253E+02
 MRCHDU: Convergence failed at  45  side 1    Res =  0.2718E+02
 MRCHDU: Convergence failed at  46  side 1    Res =  0.2814E+02
 MRCHDU: Convergence failed at  47  side 1    Res =  0.4461E+02
 MRCHDU: Convergence failed at  48  side 1    Res =  0.9294E+02
 MRCHDU: Convergence failed at  49  side 1    Res =  0.4920E+04
 MRCHDU: Convergence failed at  50  side 1    Res =  0.4346E+03
 MRCHDU: Convergence failed at  51  side 1    Res =  0.4735E+03
 MRCHDU: Convergence failed at  52  side 1    Res =  0.8565E+02
 MRCHDU: Convergence failed at  53  side 1    Res =  0.4867E+02
 MRCHDU: Convergence failed at  54  side 1    Res =  0.3454E+02
 MRCHDU: Convergence failed at  55  side 1    Res =  0.2810E+02
 MRCHDU: Convergence failed at  56  side 1    Res =  0.2621E+02
 MRCHDU: Convergence failed at  57  side 1    Res =  0.2291E+02
 MRCHDU: Convergence failed at  58  side 1    Res =  0.2045E+02
 MRCHDU: Convergence failed at  59  side 1    Res =  0.1838E+02
 MRCHDU: Convergence failed at  60  side 1    Res =  0.1673E+02
 MRCHDU: Convergence failed at  61  side 1    Res =  0.1536E+02
 MRCHDU: Convergence failed at  62  side 1    Res =  0.1502E+02
 MRCHDU: Convergence failed at  63  side 1    Res =  0.1384E+02
 MRCHDU: Convergence failed at  64  side 1    Res =  0.1333E+02
 MRCHDU: Convergence failed at  65  side 1    Res =  0.8799E+01
 MRCHDU: Convergence failed at  66  side 1    Res =  0.9704E+01
 MRCHDU: Convergence failed at  67  side 1    Res =  0.1068E+02
 MRCHDU: Convergence failed at  68  side 1    Res =  0.9878E+01
 MRCHDU: Convergence failed at  69  side 1    Res =  0.1104E+02
 MRCHDU: Convergence failed at  70  side 1    Res =  0.1027E+02
 MRCHDU: Convergence failed at  71  side 1    Res =  0.1166E+02
 MRCHDU: Convergence failed at  72  side 1    Res =  0.1128E+02
 MRCHDU: Convergence failed at  73  side 1    Res =  0.1327E+02
 MRCHDU: Convergence failed at  74  side 1    Res =  0.1592E+02
 MRCHDU: Convergence failed at  75  side 1    Res =  0.1548E+02
 MRCHDU: Convergence failed at  76  side 1    Res =  0.2074E+02
 MRCHDU: Convergence failed at  77  side 1    Res =  0.2386E+02
 MRCHDU: Convergence failed at  78  side 1    Res =  0.4502E+02
 MRCHDU: Convergence failed at  79  side 1    Res =  0.6234E+02
 MRCHDU: Convergence failed at  80  side 1    Res =  0.3151E+02
 MRCHDU: Convergence failed at  87  side 2    Res =  0.2457E-01
 MRCHDU: Convergence failed at  88  side 2    Res =  0.2126E-01
 MRCHDU: Convergence failed at  89  side 2    Res =  0.2665E+00
 Side 1  free  transition at x/c =  0.0165   20
 Side 2 forced transition at x/c =  1.0000   72
 idif Ue xi dudx           1  0.13520125      6.11829758E-03   22.097855    
 Uenew xinew           2  3.94613575E-03  1.78575516E-04

 154   rms: 0.6758E+01   max: 0.5217E+02   D at   81  1   RLX: 0.019
       a = 13.750      CL =  3.0605
      Cm = -0.7097     CD =  0.80688   =>   CDf =  0.00163    CDp =  0.80525

 MRCHDU: Convergence failed at  22  side 1    Res =  0.3335E+00
 MRCHDU: Convergence failed at  23  side 1    Res =  0.3672E+00
 MRCHDU: Convergence failed at  24  side 1    Res =  0.3684E+00
 MRCHDU: Convergence failed at  25  side 1    Res =  0.3695E+00
 MRCHDU: Convergence failed at  26  side 1    Res =  0.3702E+00
 MRCHDU: Convergence failed at  27  side 1    Res =  0.3698E+00
 MRCHDU: Convergence failed at  28  side 1    Res =  0.3674E+00
 MRCHDU: Convergence failed at  29  side 1    Res =  0.3619E+00
 MRCHDU: Convergence failed at  30  side 1    Res =  0.3569E+00
 MRCHDU: Convergence failed at  31  side 1    Res =  0.3475E+00
 MRCHDU: Convergence failed at  32  side 1    Res =  0.3389E+00
 MRCHDU: Convergence failed at  33  side 1    Res =  0.3251E+00
 MRCHDU: Convergence failed at  34  side 1    Res =  0.3116E+00
 MRCHDU: Convergence failed at  35  side 1    Res =  0.2902E+00
 MRCHDU: Convergence failed at  36  side 1    Res =  0.2649E+00
 MRCHDU: Convergence failed at  37  side 1    Res =  0.2251E+00
 MRCHDU: Convergence failed at  38  side 1    Res =  0.1752E+00
 MRCHDU: Convergence failed at  62  side 1    Res =  0.1912E+00
 MRCHDU: Convergence failed at  63  side 1    Res =  0.1758E+00
 MRCHDU: Convergence failed at  64  side 1    Res =  0.1576E+00
 MRCHDU: Convergence failed at  65  side 1    Res =  0.1346E+00
 MRCHDU: Convergence failed at  66  side 1    Res =  0.1034E+00
 MRCHDU: Convergence failed at  67  side 1    Res =  0.5394E-01
 MRCHDU: Convergence failed at  68  side 1    Res =  0.1782E-02
 MRCHDU: Convergence failed at  87  side 2    Res =  0.3730E-02
 MRCHDU: Convergence failed at  88  side 2    Res =  0.3567E-01
 MRCHDU: Convergence failed at  89  side 2    Res =  0.3062E-01
 Side 1  free  transition at x/c =  0.0173   19
 Side 2 forced transition at x/c =  1.0000   73

 155   rms: 0.2080E+02   max: 0.2439E+03   C at   90  2   RLX: 0.006
       a = 13.750      CL =  2.3680
      Cm = -0.5892     CD =  0.64486   =>   CDf =  0.00275    CDp =  0.64211
 VISCAL:  Convergence failed

 Sequence halted since previous  4 points did not converge
 Last-converged  alpha =  12.750    CL =   0.88338

.OPERva   c>  
 Polar accumulation disabled

.OPERv   c>  
 XFOIL   c>  
 XFOIL   c>  