
 ===================================================
  XFOIL Version 6.99
  Copyright (C) 2000   Mark Drela, Harold Youngren

  This software comes with ABSOLUTELY NO WARRANTY,
    subject to the GNU General Public License.

  Caveat computor
 ===================================================

 File  xfoil.def  not found

   QUIT    Exit program

  .OPER    Direct operating point(s)
  .MDES    Complex mapping design routine
  .QDES    Surface speed design routine
  .GDES    Geometry design routine

   SAVE f  Write airfoil to labeled coordinate file
   PSAV f  Write airfoil to plain coordinate file
   ISAV f  Write airfoil to ISES coordinate file
   MSAV f  Write airfoil to MSES coordinate file
   REVE    Reverse written-airfoil node ordering

   LOAD f  Read buffer airfoil from coordinate file
   NACA i  Set NACA 4,5-digit airfoil and buffer airfoil
   INTE    Set buffer airfoil by interpolating two airfoils
   NORM    Buffer airfoil normalization toggle
   XYCM rr Change CM reference location, currently  0.25000 0.00000

   BEND    Display structural properties of current airfoil

   PCOP    Set current-airfoil panel nodes directly from buffer airfoil points
   PANE    Set current-airfoil panel nodes ( 160 ) based on curvature
  .PPAR    Show/change paneling

  .PLOP    Plotting options

   WDEF f  Write  current-settings file
   RDEF f  Reread current-settings file
   NAME s  Specify new airfoil name
   NINC    Increment name version number

   Z       Zoom    | (available in all menus)
   U       Unzoom  | 

 XFOIL   c>  
 Labeled airfoil file.  Name:  RAE 100 AIRFOIL                                 

 Number of input coordinate points: 171
 Counterclockwise ordering
 Max thickness =     0.099956  at x =   0.260
 Max camber    =     0.000000  at x =   0.013

  LE  x,y  =   0.00000   0.00000  |   Chord =   1.00000
  TE  x,y  =   1.00000   0.00000  |

 Current airfoil nodes set from buffer airfoil nodes ( 171 )

 XFOIL   c>  
 XFOIL   c>  
 Sharp trailing edge

 Paneling parameters used...
   Number of panel nodes       160
   Panel bunching parameter    1.000
   TE/LE panel density ratio   0.150
   Refined-area/LE panel density ratio    0.200
   Top    side refined area x/c limits  1.000 1.000
   Bottom side refined area x/c limits  1.000 1.000

 XFOIL   c>  
.OPERi   c>  
 Xtr/c     =  1.0000    top    side
 Xtr/c     =  1.0000    bottom side
 Ncrit     =    9.00   ( 0.070 % turb. level )
 Vacc      =  0.0100

 Klag  =  5.6000     Uxwt  =    1.00
 A     =  6.7000     B     =  0.7500       KCt = 0.01485
 CtiniK=  1.8000     CtiniX=  3.3000

..VPAR   c>  
..VPAR   c>  
.OPERi   c>  
 M  =    0.0000
 Re =    600000

.OPERv   c>  
.OPERv   c>  
.OPERv   c>  
 Polar  1 newly created for accumulation
 Airfoil archived with polar: RAE 100 AIRFOIL                                 

Enter  polar save filename  OR  <return> for no file   s>  
 New polar save file available

Enter  polar dump filename  OR  <return> for no file   s>  
 Polar dump file will NOT be written

 Polar accumulation enabled

.OPERva   c>   Calculating unit vorticity distributions ...
 Calculating wake trajectory ...
 Calculating source influence matrix ...

 Solving BL system ...

 Initializing BL ...
    side            1  ...
 MRCHUE: Inverse mode at  69     Hk =   3.800
 MRCHUE: Inverse mode at  71     Hk =   4.127
 MRCHUE: Inverse mode at  72     Hk =   4.596
 MRCHUE: Inverse mode at  73     Hk =   5.042
 MRCHUE: Inverse mode at  74     Hk =   5.443
 MRCHUE: Inverse mode at  75     Hk =   5.777
 MRCHUE: Inverse mode at  76     Hk =   5.961
    side            2  ...
 MRCHUE: Inverse mode at  31     Hk =   4.671
 MRCHUE: Inverse mode at  32     Hk =   5.783
 MRCHUE: Inverse mode at  33     Hk =   2.500
 MRCHUE: Inverse mode at  86     Hk =   2.500

 Side 1 forced transition at x/c =  1.0000   76
 Side 2  free  transition at x/c =  0.1850   33
 idif Ue xi dudx           1  0.25204325      3.68416309E-03   68.412621    
 Uenew xinew           2  9.26945060E-02  1.35493279E-03

   1   rms: 0.1925E+00   max: 0.1160E+01   C at   76  1   RLX: 0.605
       a = -4.000      CL = -0.5696
      Cm =  0.0238     CD =  0.00836   =>   CDf =  0.00578    CDp =  0.00259

 Side 1  free  transition at x/c =  0.9831   74
 Side 2  free  transition at x/c =  0.1796   33

   2   rms: 0.6570E-01   max: -.4861E+00   D at   75  1
       a = -4.000      CL = -0.5223
      Cm =  0.0142     CD =  0.00845   =>   CDf =  0.00583    CDp =  0.00262

 Side 1  free  transition at x/c =  0.9970   75
 Side 2  free  transition at x/c =  0.2105   35

   3   rms: 0.1870E-01   max: -.1651E+00   C at   35  2
       a = -4.000      CL = -0.5115
      Cm =  0.0116     CD =  0.00822   =>   CDf =  0.00566    CDp =  0.00257

 Side 1 forced transition at x/c =  1.0000   75
 Side 2  free  transition at x/c =  0.2141   36

   4   rms: 0.1001E-01   max: -.1108E+00   C at   36  2
       a = -4.000      CL = -0.5068
      Cm =  0.0106     CD =  0.00821   =>   CDf =  0.00565    CDp =  0.00256

 Side 1 forced transition at x/c =  1.0000   75
 Side 2  free  transition at x/c =  0.2180   36

   5   rms: 0.9475E-03   max: 0.1762E-01   C at   36  2
       a = -4.000      CL = -0.5067
      Cm =  0.0106     CD =  0.00821   =>   CDf =  0.00561    CDp =  0.00260

 Side 1 forced transition at x/c =  1.0000   75
 Side 2  free  transition at x/c =  0.2176   36

   6   rms: 0.4306E-05   max: -.7292E-04   D at   37  2
       a = -4.000      CL = -0.5067
      Cm =  0.0106     CD =  0.00821   =>   CDf =  0.00561    CDp =  0.00260
 plradd ia,ip,cpol            1           0  6.13963045E-03

 Point added to stored polar  1
 Point written to save file  rae100_Re600k.base.pol                          
 Dump file unspecified or not available
 Calculating wake trajectory ...
 Calculating source influence matrix ...

 Solving BL system ...

 Side 1 forced transition at x/c =  1.0000   75
 Side 2  free  transition at x/c =  0.2176   36

   1   rms: 0.1343E+00   max: -.1911E+01   C at   36  2   RLX: 0.262
       a = -3.500      CL = -0.4955
      Cm =  0.0112     CD =  0.00804   =>   CDf =  0.00566    CDp =  0.00238

 Side 1  free  transition at x/c =  0.9947   76
 Side 2  free  transition at x/c =  0.2277   35

   2   rms: 0.1997E+00   max: -.3073E+01   T at    2  1   RLX: 0.163
       a = -3.500      CL = -0.4843
      Cm =  0.0104     CD =  0.00832   =>   CDf =  0.00560    CDp =  0.00272

 Side 1  free  transition at x/c =  0.9944   76
 Side 2  free  transition at x/c =  0.2388   36

   3   rms: 0.1121E+00   max: -.1892E+01   C at   36  2   RLX: 0.264
       a = -3.500      CL = -0.4714
      Cm =  0.0094     CD =  0.00806   =>   CDf =  0.00553    CDp =  0.00254

 Side 1  free  transition at x/c =  0.9940   76
 Side 2  free  transition at x/c =  0.2481   37

   4   rms: 0.8477E-01   max: -.1216E+01   C at   37  2   RLX: 0.411
       a = -3.500      CL = -0.4554
      Cm =  0.0082     CD =  0.00789   =>   CDf =  0.00550    CDp =  0.00239

 Side 1  free  transition at x/c =  0.9936   75
 Side 2  free  transition at x/c =  0.2586   37

   5   rms: 0.3436E-01   max: -.2216E+00   C at   37  2
       a = -3.500      CL = -0.4325
      Cm =  0.0065     CD =  0.00781   =>   CDf =  0.00548    CDp =  0.00233

 Side 1  free  transition at x/c =  0.9931   75
 Side 2  free  transition at x/c =  0.3006   40

   6   rms: 0.1912E-01   max: -.3348E+00   C at   40  2
       a = -3.500      CL = -0.4340
      Cm =  0.0066     CD =  0.00757   =>   CDf =  0.00531    CDp =  0.00226

 Side 1  free  transition at x/c =  0.9928   75
 Side 2  free  transition at x/c =  0.2933   40

   7   rms: 0.1790E-02   max: -.2828E-01   D at   40  2
       a = -3.500      CL = -0.4336
      Cm =  0.0066     CD =  0.00763   =>   CDf =  0.00530    CDp =  0.00233

 Side 1  free  transition at x/c =  0.9929   75
 Side 2  free  transition at x/c =  0.2922   40

   8   rms: 0.4075E-04   max: 0.6722E-03   D at   41  2
       a = -3.500      CL = -0.4336
      Cm =  0.0066     CD =  0.00763   =>   CDf =  0.00530    CDp =  0.00232
 plradd ia,ip,cpol            2           0  8.30621086E-03

 Point added to stored polar  1
 Point written to save file  rae100_Re600k.base.pol                          
 Dump file unspecified or not available
 Calculating wake trajectory ...
 Calculating source influence matrix ...

 Solving BL system ...

 Side 1  free  transition at x/c =  0.9929   75
 Side 2  free  transition at x/c =  0.2922   40

   1   rms: 0.1628E+00   max: -.2313E+01   C at   40  2   RLX: 0.216
       a = -3.000      CL = -0.4182
      Cm =  0.0058     CD =  0.00747   =>   CDf =  0.00530    CDp =  0.00217

 Side 1  free  transition at x/c =  0.9903   75
 Side 2  free  transition at x/c =  0.3029   40

   2   rms: 0.8510E-01   max: -.4399E+00   C at   40  2
       a = -3.000      CL = -0.3580
      Cm =  0.0024     CD =  0.00736   =>   CDf =  0.00532    CDp =  0.00204

 Side 1  free  transition at x/c =  0.9809   75
 Side 2  free  transition at x/c =  0.3763   44

   3   rms: 0.3174E-01   max: 0.4650E+00   D at   39  2
       a = -3.000      CL = -0.3575
      Cm =  0.0021     CD =  0.00704   =>   CDf =  0.00508    CDp =  0.00197

 Side 1  free  transition at x/c =  0.9835   76
 Side 2  free  transition at x/c =  0.3812   45

   4   rms: 0.1288E-01   max: -.1609E+00   D at   44  2
       a = -3.000      CL = -0.3573
      Cm =  0.0021     CD =  0.00710   =>   CDf =  0.00500    CDp =  0.00210

 Side 1  free  transition at x/c =  0.9831   76
 Side 2  free  transition at x/c =  0.3689   44

   5   rms: 0.2160E-02   max: -.3770E-01   D at   45  2
       a = -3.000      CL = -0.3574
      Cm =  0.0021     CD =  0.00709   =>   CDf =  0.00501    CDp =  0.00209

 Side 1  free  transition at x/c =  0.9830   76
 Side 2  free  transition at x/c =  0.3679   44

   6   rms: 0.5206E-04   max: -.9077E-03   D at   45  2
       a = -3.000      CL = -0.3574
      Cm =  0.0021     CD =  0.00709   =>   CDf =  0.00501    CDp =  0.00208
 plradd ia,ip,cpol            3           0  1.39539009E-02

 Point added to stored polar  1
 Point written to save file  rae100_Re600k.base.pol                          
 Dump file unspecified or not available
 Calculating wake trajectory ...
 Calculating source influence matrix ...

 Solving BL system ...

 Side 1  free  transition at x/c =  0.9830   76
 Side 2  free  transition at x/c =  0.3679   44

   1   rms: 0.1615E+00   max: -.2162E+01   C at   44  2   RLX: 0.231
       a = -2.500      CL = -0.3389
      Cm =  0.0008     CD =  0.00695   =>   CDf =  0.00501    CDp =  0.00193

 Side 1  free  transition at x/c =  0.9812   75
 Side 2  free  transition at x/c =  0.3796   44

   2   rms: 0.7783E-01   max: -.2671E+00   T at   44  2
       a = -2.500      CL = -0.2904
      Cm =  0.0000     CD =  0.00686   =>   CDf =  0.00503    CDp =  0.00183

 Side 1  free  transition at x/c =  0.9595   75
 Side 2  free  transition at x/c =  0.4541   48

   3   rms: 0.4121E-01   max: 0.4277E+00   D at   43  2
       a = -2.500      CL = -0.2831
      Cm = -0.0019     CD =  0.00645   =>   CDf =  0.00470    CDp =  0.00175

 Side 1  free  transition at x/c =  0.9699   75
 Side 2  free  transition at x/c =  0.4494   48

   4   rms: 0.8964E-02   max: -.1529E+00   D at   48  2
       a = -2.500      CL = -0.2844
      Cm = -0.0015     CD =  0.00659   =>   CDf =  0.00472    CDp =  0.00187

 Side 1  free  transition at x/c =  0.9681   75
 Side 2  free  transition at x/c =  0.4397   47

   5   rms: 0.1559E-02   max: -.2201E-01   C at   47  2
       a = -2.500      CL = -0.2839
      Cm = -0.0016     CD =  0.00661   =>   CDf =  0.00475    CDp =  0.00186

 Side 1  free  transition at x/c =  0.9684   75
 Side 2  free  transition at x/c =  0.4398   47

   6   rms: 0.1934E-04   max: 0.3151E-03   C at   47  2
       a = -2.500      CL = -0.2839
      Cm = -0.0016     CD =  0.00661   =>   CDf =  0.00475    CDp =  0.00186
 plradd ia,ip,cpol            4           0  1.76159460E-02

 Point added to stored polar  1
 Point written to save file  rae100_Re600k.base.pol                          
 Dump file unspecified or not available
 Calculating wake trajectory ...
 Calculating source influence matrix ...

 Solving BL system ...

 Side 1  free  transition at x/c =  0.9684   75
 Side 2  free  transition at x/c =  0.4398   47

   1   rms: 0.1106E+00   max: -.1241E+01   C at   47  2   RLX: 0.403
       a = -2.000      CL = -0.2605
      Cm = -0.0017     CD =  0.00648   =>   CDf =  0.00475    CDp =  0.00174

 Side 1  free  transition at x/c =  0.9533   74
 Side 2  free  transition at x/c =  0.4627   49

   2   rms: 0.8727E-01   max: -.1089E+01   C at   49  2   RLX: 0.459
       a = -2.000      CL = -0.2423
      Cm = -0.0020     CD =  0.00645   =>   CDf =  0.00467    CDp =  0.00178

 Side 1  free  transition at x/c =  0.9462   74
 Side 2  free  transition at x/c =  0.4734   50

   3   rms: 0.6290E-01   max: -.6454E+00   C at   50  2   RLX: 0.775
       a = -2.000      CL = -0.2207
      Cm = -0.0038     CD =  0.00621   =>   CDf =  0.00469    CDp =  0.00151

 Side 1  free  transition at x/c =  0.9433   74
 Side 2  free  transition at x/c =  0.4891   51

   4   rms: 0.3476E-01   max: -.4263E+00   C at   51  2
       a = -2.000      CL = -0.2140
      Cm = -0.0044     CD =  0.00613   =>   CDf =  0.00467    CDp =  0.00146

 Side 1  free  transition at x/c =  0.9422   74
 Side 2  free  transition at x/c =  0.5052   52

   5   rms: 0.7692E-02   max: -.1238E+00   C at   52  2
       a = -2.000      CL = -0.2134
      Cm = -0.0045     CD =  0.00621   =>   CDf =  0.00456    CDp =  0.00164

 Side 1  free  transition at x/c =  0.9422   74
 Side 2  free  transition at x/c =  0.5061   52

   6   rms: 0.6881E-03   max: 0.1203E-01   C at   52  2
       a = -2.000      CL = -0.2134
      Cm = -0.0045     CD =  0.00621   =>   CDf =  0.00453    CDp =  0.00168

 Side 1  free  transition at x/c =  0.9422   74
 Side 2  free  transition at x/c =  0.5059   52

   7   rms: 0.2632E-05   max: -.3351E-04   D at   54  2
       a = -2.000      CL = -0.2134
      Cm = -0.0045     CD =  0.00621   =>   CDf =  0.00453    CDp =  0.00168
 plradd ia,ip,cpol            5           0  2.73267590E-02

 Point added to stored polar  1
 Point written to save file  rae100_Re600k.base.pol                          
 Dump file unspecified or not available
 Calculating wake trajectory ...
 Calculating source influence matrix ...

 Solving BL system ...

 Side 1  free  transition at x/c =  0.9422   74
 Side 2  free  transition at x/c =  0.5059   52

   1   rms: 0.1410E+00   max: -.1565E+01   C at   52  2   RLX: 0.320
       a = -1.500      CL = -0.1899
      Cm = -0.0056     CD =  0.00606   =>   CDf =  0.00455    CDp =  0.00151

 Side 1  free  transition at x/c =  0.9315   74
 Side 2  free  transition at x/c =  0.5194   51

   2   rms: 0.7746E-01   max: -.4682E+00   T at    2  1
       a = -1.500      CL = -0.1451
      Cm = -0.0065     CD =  0.00614   =>   CDf =  0.00455    CDp =  0.00159

 Side 1  free  transition at x/c =  0.8933   71
 Side 2  free  transition at x/c =  0.5902   56

   3   rms: 0.2708E-01   max: 0.3932E+00   D at   51  2
       a = -1.500      CL = -0.1536
      Cm = -0.0047     CD =  0.00589   =>   CDf =  0.00436    CDp =  0.00153

 Side 1  free  transition at x/c =  0.8951   72
 Side 2  free  transition at x/c =  0.5729   55

   4   rms: 0.7584E-02   max: -.1060E+00   D at   55  2
       a = -1.500      CL = -0.1528
      Cm = -0.0049     CD =  0.00593   =>   CDf =  0.00441    CDp =  0.00153

 Side 1  free  transition at x/c =  0.8953   72
 Side 2  free  transition at x/c =  0.5652   54

   5   rms: 0.1185E-02   max: -.1983E-01   C at   54  2
       a = -1.500      CL = -0.1527
      Cm = -0.0049     CD =  0.00595   =>   CDf =  0.00443    CDp =  0.00152

 Side 1  free  transition at x/c =  0.8952   72
 Side 2  free  transition at x/c =  0.5654   54

   6   rms: 0.1198E-04   max: 0.1931E-03   C at   54  2
       a = -1.500      CL = -0.1527
      Cm = -0.0049     CD =  0.00595   =>   CDf =  0.00443    CDp =  0.00152
 plradd ia,ip,cpol            6           0  4.15094607E-02

 Point added to stored polar  1
 Point written to save file  rae100_Re600k.base.pol                          
 Dump file unspecified or not available
 Calculating wake trajectory ...
 Calculating source influence matrix ...

 Solving BL system ...

 Side 1  free  transition at x/c =  0.8952   72
 Side 2  free  transition at x/c =  0.5654   54

   1   rms: 0.1149E+00   max: 0.1033E+01   C at   72  1   RLX: 0.615
       a = -1.000      CL = -0.1171
      Cm = -0.0047     CD =  0.00593   =>   CDf =  0.00443    CDp =  0.00151

 Side 1  free  transition at x/c =  0.8590   69
 Side 2  free  transition at x/c =  0.5952   56

   2   rms: 0.3580E-01   max: 0.1856E+00   C at   69  1
       a = -1.000      CL = -0.0999
      Cm = -0.0036     CD =  0.00592   =>   CDf =  0.00450    CDp =  0.00142

 Side 1  free  transition at x/c =  0.8325   69
 Side 2  free  transition at x/c =  0.6248   57

   3   rms: 0.1628E-01   max: 0.2694E+00   C at   57  2
       a = -1.000      CL = -0.1011
      Cm = -0.0034     CD =  0.00583   =>   CDf =  0.00442    CDp =  0.00141

 Side 1  free  transition at x/c =  0.8370   69
 Side 2  free  transition at x/c =  0.6198   57

   4   rms: 0.1089E-02   max: -.1263E-01   D at   59  2
       a = -1.000      CL = -0.1011
      Cm = -0.0034     CD =  0.00584   =>   CDf =  0.00441    CDp =  0.00142

 Side 1  free  transition at x/c =  0.8366   69
 Side 2  free  transition at x/c =  0.6194   57

   5   rms: 0.5954E-05   max: -.1070E-03   D at   59  2
       a = -1.000      CL = -0.1011
      Cm = -0.0034     CD =  0.00584   =>   CDf =  0.00442    CDp =  0.00142
 plradd ia,ip,cpol            7           0  6.11936413E-02

 Point added to stored polar  1
 Point written to save file  rae100_Re600k.base.pol                          
 Dump file unspecified or not available
 Calculating wake trajectory ...
 Calculating source influence matrix ...

 Solving BL system ...

 Side 1  free  transition at x/c =  0.8366   69
 Side 2  free  transition at x/c =  0.6194   57

   1   rms: 0.1204E+00   max: 0.1203E+01   C at   69  1   RLX: 0.438
       a = -0.500      CL = -0.0792
      Cm = -0.0025     CD =  0.00582   =>   CDf =  0.00442    CDp =  0.00140

 Side 1  free  transition at x/c =  0.8100   67
 Side 2  free  transition at x/c =  0.6371   58

   2   rms: 0.6149E-01   max: -.6061E+00   C at   58  2   RLX: 0.825
       a = -0.500      CL = -0.0551
      Cm = -0.0019     CD =  0.00582   =>   CDf =  0.00448    CDp =  0.00134

 Side 1  free  transition at x/c =  0.7814   65
 Side 2  free  transition at x/c =  0.6597   59

   3   rms: 0.1411E-01   max: -.1773E+00   C at   59  2
       a = -0.500      CL = -0.0499
      Cm = -0.0018     CD =  0.00585   =>   CDf =  0.00454    CDp =  0.00131

 Side 1  free  transition at x/c =  0.7796   65
 Side 2  free  transition at x/c =  0.6737   60

   4   rms: 0.7452E-02   max: -.1355E+00   C at   60  2
       a = -0.500      CL = -0.0506
      Cm = -0.0016     CD =  0.00581   =>   CDf =  0.00447    CDp =  0.00133

 Side 1  free  transition at x/c =  0.7796   65
 Side 2  free  transition at x/c =  0.6727   60

   5   rms: 0.7462E-04   max: 0.1104E-02   D at   62  2
       a = -0.500      CL = -0.0506
      Cm = -0.0016     CD =  0.00581   =>   CDf =  0.00445    CDp =  0.00136
 plradd ia,ip,cpol            8           0  7.28531033E-02

 Point added to stored polar  1
 Point written to save file  rae100_Re600k.base.pol                          
 Dump file unspecified or not available
 Calculating wake trajectory ...
 Calculating source influence matrix ...

 Solving BL system ...

 Side 1  free  transition at x/c =  0.7796   65
 Side 2  free  transition at x/c =  0.6727   60

   1   rms: 0.1064E+00   max: 0.1003E+01   C at   65  1   RLX: 0.604
       a =  0.000      CL = -0.0193
      Cm = -0.0008     CD =  0.00583   =>   CDf =  0.00446    CDp =  0.00137

 Side 1  free  transition at x/c =  0.7423   64
 Side 2  free  transition at x/c =  0.7000   61

   2   rms: 0.4504E-01   max: -.5631E+00   C at   61  2   RLX: 0.888
       a =  0.000      CL = -0.0022
      Cm = -0.0001     CD =  0.00581   =>   CDf =  0.00451    CDp =  0.00130

 Side 1  free  transition at x/c =  0.7262   63
 Side 2  free  transition at x/c =  0.7163   62

   3   rms: 0.1278E-01   max: -.2221E+00   C at   62  2
       a =  0.000      CL =  0.0001
      Cm = -0.0000     CD =  0.00581   =>   CDf =  0.00452    CDp =  0.00129

 Side 1  free  transition at x/c =  0.7255   63
 Side 2  free  transition at x/c =  0.7241   63

   4   rms: 0.4408E-02   max: -.7898E-01   C at   63  2
       a =  0.000      CL =  0.0000
      Cm = -0.0000     CD =  0.00580   =>   CDf =  0.00448    CDp =  0.00132

 Side 1  free  transition at x/c =  0.7255   63
 Side 2  free  transition at x/c =  0.7252   63

   5   rms: 0.1133E-03   max: 0.1853E-02   C at   63  2
       a =  0.000      CL =  0.0000
      Cm = -0.0000     CD =  0.00580   =>   CDf =  0.00446    CDp =  0.00134

 Side 1  free  transition at x/c =  0.7255   63
 Side 2  free  transition at x/c =  0.7252   63

   6   rms: 0.1462E-05   max: -.1737E-04   C at   63  1
       a =  0.000      CL =  0.0000
      Cm = -0.0000     CD =  0.00580   =>   CDf =  0.00446    CDp =  0.00134
 plradd ia,ip,cpol            9           0  9.86084044E-02

 Point added to stored polar  1
 Point written to save file  rae100_Re600k.base.pol                          
 Dump file unspecified or not available
 Calculating wake trajectory ...
 Calculating source influence matrix ...

 Solving BL system ...

 Side 1  free  transition at x/c =  0.7255   63
 Side 2  free  transition at x/c =  0.7252   63

   1   rms: 0.1216E+00   max: -.1165E+01   C at   63  2   RLX: 0.429
       a =  0.500      CL =  0.0211
      Cm =  0.0009     CD =  0.00580   =>   CDf =  0.00446    CDp =  0.00134

 Side 1  free  transition at x/c =  0.7018   61
 Side 2  free  transition at x/c =  0.7415   64

   2   rms: 0.6534E-01   max: -.6989E+00   C at   64  2   RLX: 0.715
       a =  0.500      CL =  0.0428
      Cm =  0.0012     CD =  0.00578   =>   CDf =  0.00450    CDp =  0.00128

 Side 1  free  transition at x/c =  0.6772   61
 Side 2  free  transition at x/c =  0.7612   64

   3   rms: 0.2554E-01   max: -.3952E+00   C at   64  2
       a =  0.500      CL =  0.0507
      Cm =  0.0016     CD =  0.00582   =>   CDf =  0.00454    CDp =  0.00128

 Side 1  free  transition at x/c =  0.6728   60
 Side 2  free  transition at x/c =  0.7769   65

   4   rms: 0.5288E-02   max: -.1009E+00   C at   65  2
       a =  0.500      CL =  0.0506
      Cm =  0.0017     CD =  0.00581   =>   CDf =  0.00447    CDp =  0.00134

 Side 1  free  transition at x/c =  0.6725   60
 Side 2  free  transition at x/c =  0.7798   65

   5   rms: 0.1728E-03   max: -.3265E-02   C at   65  2
       a =  0.500      CL =  0.0506
      Cm =  0.0017     CD =  0.00581   =>   CDf =  0.00445    CDp =  0.00136

 Side 1  free  transition at x/c =  0.6725   60
 Side 2  free  transition at x/c =  0.7798   65

   6   rms: 0.7820E-06   max: 0.1203E-04   C at   65  2
       a =  0.500      CL =  0.0506
      Cm =  0.0017     CD =  0.00581   =>   CDf =  0.00445    CDp =  0.00136
 plradd ia,ip,cpol           10           0  7.28527680E-02

 Point added to stored polar  1
 Point written to save file  rae100_Re600k.base.pol                          
 Dump file unspecified or not available
 Calculating wake trajectory ...
 Calculating source influence matrix ...

 Solving BL system ...

 Side 1  free  transition at x/c =  0.6725   60
 Side 2  free  transition at x/c =  0.7798   65

   1   rms: 0.1061E+00   max: -.9939E+00   C at   65  2   RLX: 0.503
       a =  1.000      CL =  0.0766
      Cm =  0.0024     CD =  0.00580   =>   CDf =  0.00445    CDp =  0.00135

 Side 1  free  transition at x/c =  0.6416   58
 Side 2  free  transition at x/c =  0.8018   67

   2   rms: 0.5822E-01   max: -.7213E+00   C at   67  2   RLX: 0.693
       a =  1.000      CL =  0.0939
      Cm =  0.0030     CD =  0.00578   =>   CDf =  0.00452    CDp =  0.00126

 Side 1  free  transition at x/c =  0.6242   57
 Side 2  free  transition at x/c =  0.8165   67

   3   rms: 0.1858E-01   max: -.1719E+00   C at   67  2
       a =  1.000      CL =  0.1021
      Cm =  0.0031     CD =  0.00590   =>   CDf =  0.00455    CDp =  0.00135

 Side 1  free  transition at x/c =  0.6188   57
 Side 2  free  transition at x/c =  0.8435   69

   4   rms: 0.1170E-01   max: -.1915E+00   C at   69  2
       a =  1.000      CL =  0.1011
      Cm =  0.0034     CD =  0.00582   =>   CDf =  0.00443    CDp =  0.00138

 Side 1  free  transition at x/c =  0.6195   57
 Side 2  free  transition at x/c =  0.8347   69

   5   rms: 0.4058E-02   max: -.6905E-01   C at   69  2
       a =  1.000      CL =  0.1011
      Cm =  0.0034     CD =  0.00583   =>   CDf =  0.00443    CDp =  0.00140

 Side 1  free  transition at x/c =  0.6194   57
 Side 2  free  transition at x/c =  0.8368   69

   6   rms: 0.9542E-04   max: -.1826E-02   D at   71  2
       a =  1.000      CL =  0.1011
      Cm =  0.0034     CD =  0.00584   =>   CDf =  0.00442    CDp =  0.00142
 plradd ia,ip,cpol           11           0  5.06813377E-02

 Point added to stored polar  1
 Point written to save file  rae100_Re600k.base.pol                          
 Dump file unspecified or not available
 Calculating wake trajectory ...
 Calculating source influence matrix ...

 Solving BL system ...

 Side 1  free  transition at x/c =  0.6194   57
 Side 2  free  transition at x/c =  0.8368   69

   1   rms: 0.1214E+00   max: -.1207E+01   C at   69  2   RLX: 0.414
       a =  1.500      CL =  0.1218
      Cm =  0.0042     CD =  0.00585   =>   CDf =  0.00439    CDp =  0.00146

 Side 1  free  transition at x/c =  0.5954   56
 Side 2  free  transition at x/c =  0.8548   69

   2   rms: 0.6210E-01   max: -.6367E+00   C at   69  2   RLX: 0.785
       a =  1.500      CL =  0.1462
      Cm =  0.0047     CD =  0.00587   =>   CDf =  0.00447    CDp =  0.00140

 Side 1  free  transition at x/c =  0.5671   55
 Side 2  free  transition at x/c =  0.8804   71

   3   rms: 0.2340E-01   max: -.3534E+00   C at   71  2
       a =  1.500      CL =  0.1527
      Cm =  0.0049     CD =  0.00592   =>   CDf =  0.00450    CDp =  0.00143

 Side 1  free  transition at x/c =  0.5655   54
 Side 2  free  transition at x/c =  0.8919   71

   4   rms: 0.6397E-02   max: -.1130E+00   C at   71  2
       a =  1.500      CL =  0.1526
      Cm =  0.0050     CD =  0.00595   =>   CDf =  0.00444    CDp =  0.00150

 Side 1  free  transition at x/c =  0.5652   54
 Side 2  free  transition at x/c =  0.8949   72

   5   rms: 0.3682E-02   max: -.6214E-01   C at   72  2
       a =  1.500      CL =  0.1527
      Cm =  0.0049     CD =  0.00595   =>   CDf =  0.00444    CDp =  0.00151

 Side 1  free  transition at x/c =  0.5652   54
 Side 2  free  transition at x/c =  0.8953   72

   6   rms: 0.1209E-03   max: 0.1896E-02   C at   72  2
       a =  1.500      CL =  0.1527
      Cm =  0.0049     CD =  0.00595   =>   CDf =  0.00443    CDp =  0.00152

 Side 1  free  transition at x/c =  0.5652   54
 Side 2  free  transition at x/c =  0.8953   72

   7   rms: 0.1179E-05   max: 0.1840E-04   C at   54  1
       a =  1.500      CL =  0.1527
      Cm =  0.0049     CD =  0.00595   =>   CDf =  0.00443    CDp =  0.00152
 plradd ia,ip,cpol           12           0  4.15092334E-02

 Point added to stored polar  1
 Point written to save file  rae100_Re600k.base.pol                          
 Dump file unspecified or not available
 Calculating wake trajectory ...
 Calculating source influence matrix ...

 Solving BL system ...

 Side 1  free  transition at x/c =  0.5652   54
 Side 2  free  transition at x/c =  0.8953   72

   1   rms: 0.1150E+00   max: -.1033E+01   C at   72  2   RLX: 0.484
       a =  2.000      CL =  0.1807
      Cm =  0.0051     CD =  0.00595   =>   CDf =  0.00443    CDp =  0.00153

 Side 1  free  transition at x/c =  0.5328   52
 Side 2  free  transition at x/c =  0.9106   73

   2   rms: 0.6006E-01   max: -.6529E+00   C at   73  2   RLX: 0.766
       a =  2.000      CL =  0.2009
      Cm =  0.0056     CD =  0.00602   =>   CDf =  0.00452    CDp =  0.00150

 Side 1  free  transition at x/c =  0.5109   52
 Side 2  free  transition at x/c =  0.9266   73

   3   rms: 0.4363E-01   max: -.6342E+00   C at   73  2   RLX: 0.788
       a =  2.000      CL =  0.2057
      Cm =  0.0056     CD =  0.00606   =>   CDf =  0.00461    CDp =  0.00145

 Side 1  free  transition at x/c =  0.5090   52
 Side 2  free  transition at x/c =  0.9428   74

   4   rms: 0.1012E-01   max: -.6492E-01   D at   73  2
       a =  2.000      CL =  0.2135
      Cm =  0.0045     CD =  0.00621   =>   CDf =  0.00452    CDp =  0.00169

 Side 1  free  transition at x/c =  0.5059   52
 Side 2  free  transition at x/c =  0.9426   74

   5   rms: 0.1266E-02   max: 0.1663E-01   C at   74  2
       a =  2.000      CL =  0.2134
      Cm =  0.0045     CD =  0.00621   =>   CDf =  0.00453    CDp =  0.00168

 Side 1  free  transition at x/c =  0.5061   52
 Side 2  free  transition at x/c =  0.9421   74

   6   rms: 0.1865E-04   max: -.1862E-03   D at   77  2
       a =  2.000      CL =  0.2134
      Cm =  0.0045     CD =  0.00621   =>   CDf =  0.00453    CDp =  0.00168
 plradd ia,ip,cpol           13           0  2.73266286E-02

 Point added to stored polar  1
 Point written to save file  rae100_Re600k.base.pol                          
 Dump file unspecified or not available
 Calculating wake trajectory ...
 Calculating source influence matrix ...

 Solving BL system ...

 Side 1  free  transition at x/c =  0.5061   52
 Side 2  free  transition at x/c =  0.9421   74

   1   rms: 0.1405E+00   max: 0.1560E+01   C at   52  1   RLX: 0.639
       a =  2.500      CL =  0.2605
      Cm =  0.0022     CD =  0.00651   =>   CDf =  0.00453    CDp =  0.00198

 Side 1  free  transition at x/c =  0.4592   49
 Side 2  free  transition at x/c =  0.9546   74

   2   rms: 0.3621E-01   max: -.2634E+00   T at   74  2
       a =  2.500      CL =  0.2611
      Cm =  0.0067     CD =  0.00659   =>   CDf =  0.00470    CDp =  0.00189

 MRCHDU: Convergence failed at  78  side 2    Res =  0.5915E+01
 Side 1  free  transition at x/c =  0.4482   48
 Side 2  free  transition at x/c =  0.9970   78

   3   rms: 0.6844E-01   max: 0.1121E+01   C at   78  2
       a =  2.500      CL =  0.2768
      Cm =  0.0035     CD =  0.00646   =>   CDf =  0.00471    CDp =  0.00175

 Side 1  free  transition at x/c =  0.4418   47
 Side 2  free  transition at x/c =  0.9641   75

   4   rms: 0.2378E-01   max: -.3865E+00   D at   77  2
       a =  2.500      CL =  0.2817
      Cm =  0.0021     CD =  0.00663   =>   CDf =  0.00474    CDp =  0.00189

 Side 1  free  transition at x/c =  0.4403   47
 Side 2  free  transition at x/c =  0.9702   76

   5   rms: 0.5167E-02   max: 0.4485E-01   C at   76  2
       a =  2.500      CL =  0.2826
      Cm =  0.0019     CD =  0.00661   =>   CDf =  0.00475    CDp =  0.00186

 Side 1  free  transition at x/c =  0.4400   47
 Side 2  free  transition at x/c =  0.9694   75

   6   rms: 0.2063E-02   max: 0.1821E-01   D at   78  2
       a =  2.500      CL =  0.2840
      Cm =  0.0016     CD =  0.00661   =>   CDf =  0.00475    CDp =  0.00186

 Side 1  free  transition at x/c =  0.4394   47
 Side 2  free  transition at x/c =  0.9683   75

   7   rms: 0.1767E-03   max: -.1611E-02   D at   78  2
       a =  2.500      CL =  0.2839
      Cm =  0.0016     CD =  0.00661   =>   CDf =  0.00475    CDp =  0.00186

 Side 1  free  transition at x/c =  0.4394   47
 Side 2  free  transition at x/c =  0.9683   75

   8   rms: 0.1493E-05   max: -.1214E-04   C at   47  1
       a =  2.500      CL =  0.2839
      Cm =  0.0016     CD =  0.00661   =>   CDf =  0.00475    CDp =  0.00186
 plradd ia,ip,cpol           14           0  1.76160019E-02

 Point added to stored polar  1
 Point written to save file  rae100_Re600k.base.pol                          
 Dump file unspecified or not available
 Calculating wake trajectory ...
 Calculating source influence matrix ...

 Solving BL system ...

 Side 1  free  transition at x/c =  0.4395   47
 Side 2  free  transition at x/c =  0.9683   75

   1   rms: 0.1119E+00   max: 0.1274E+01   C at   47  1
       a =  3.000      CL =  0.3425
      Cm =  0.0014     CD =  0.00694   =>   CDf =  0.00473    CDp =  0.00221

 Side 1  free  transition at x/c =  0.3669   44
 Side 2  free  transition at x/c =  0.9974   77

   2   rms: 0.7247E-01   max: 0.1250E+01   C at   77  2
       a =  3.000      CL =  0.3526
      Cm = -0.0009     CD =  0.00697   =>   CDf =  0.00504    CDp =  0.00193

 Side 1  free  transition at x/c =  0.3722   44
 Side 2  free  transition at x/c =  0.9856   76

   3   rms: 0.1312E-01   max: 0.1746E+00   C at   44  1
       a =  3.000      CL =  0.3583
      Cm = -0.0023     CD =  0.00709   =>   CDf =  0.00498    CDp =  0.00211

 Side 1  free  transition at x/c =  0.3667   44
 Side 2  free  transition at x/c =  0.9817   75

   4   rms: 0.4027E-02   max: -.3480E-01   D at   77  2
       a =  3.000      CL =  0.3571
      Cm = -0.0020     CD =  0.00710   =>   CDf =  0.00502    CDp =  0.00208

 Side 1  free  transition at x/c =  0.3675   44
 Side 2  free  transition at x/c =  0.9835   76

   5   rms: 0.5882E-02   max: 0.6289E-01   C at   76  2
       a =  3.000      CL =  0.3573
      Cm = -0.0020     CD =  0.00709   =>   CDf =  0.00501    CDp =  0.00208

 Side 1  free  transition at x/c =  0.3675   44
 Side 2  free  transition at x/c =  0.9830   76

   6   rms: 0.6255E-04   max: 0.5294E-03   T at   77  2
       a =  3.000      CL =  0.3573
      Cm = -0.0020     CD =  0.00710   =>   CDf =  0.00501    CDp =  0.00208
 plradd ia,ip,cpol           15           0  1.39538515E-02

 Point added to stored polar  1
 Point written to save file  rae100_Re600k.base.pol                          
 Dump file unspecified or not available
 Calculating wake trajectory ...
 Calculating source influence matrix ...

 Solving BL system ...

 Side 1  free  transition at x/c =  0.3675   44
 Side 2  free  transition at x/c =  0.9830   76

   1   rms: 0.1631E+00   max: 0.2165E+01   C at   44  1   RLX: 0.471
       a =  3.500      CL =  0.3949
      Cm = -0.0046     CD =  0.00741   =>   CDf =  0.00499    CDp =  0.00243

 Side 1  free  transition at x/c =  0.3287   42
 Side 2  free  transition at x/c =  0.9861   75

   2   rms: 0.1627E+00   max: 0.2567E+01   D at    2  1   RLX: 0.398
       a =  3.500      CL =  0.4108
      Cm = -0.0055     CD =  0.00746   =>   CDf =  0.00516    CDp =  0.00230

 Side 1  free  transition at x/c =  0.3139   41
 Side 2  free  transition at x/c =  0.9884   75

   3   rms: 0.3839E-01   max: 0.3784E+00   C at   41  1
       a =  3.500      CL =  0.4345
      Cm = -0.0067     CD =  0.00759   =>   CDf =  0.00522    CDp =  0.00237

 Side 1  free  transition at x/c =  0.2889   39
 Side 2  free  transition at x/c =  0.9924   75

   4   rms: 0.7025E-02   max: -.1410E+00   C at   39  1
       a =  3.500      CL =  0.4336
      Cm = -0.0066     CD =  0.00765   =>   CDf =  0.00533    CDp =  0.00231

 Side 1  free  transition at x/c =  0.2922   40
 Side 2  free  transition at x/c =  0.9929   75

   5   rms: 0.2326E-02   max: -.4077E-01   C at   40  1
       a =  3.500      CL =  0.4337
      Cm = -0.0066     CD =  0.00762   =>   CDf =  0.00531    CDp =  0.00232

 Side 1  free  transition at x/c =  0.2925   40
 Side 2  free  transition at x/c =  0.9929   75

   6   rms: 0.5082E-04   max: 0.9613E-03   C at   40  1
       a =  3.500      CL =  0.4337
      Cm = -0.0066     CD =  0.00762   =>   CDf =  0.00530    CDp =  0.00232
 plradd ia,ip,cpol           16           0  8.30611400E-03

 Point added to stored polar  1
 Point written to save file  rae100_Re600k.base.pol                          
 Dump file unspecified or not available
 Calculating wake trajectory ...
 Calculating source influence matrix ...

 Solving BL system ...

 Side 1  free  transition at x/c =  0.2925   40
 Side 2  free  transition at x/c =  0.9929   75

   1   rms: 0.1635E+00   max: 0.2347E+01   C at   40  1   RLX: 0.466
       a =  4.000      CL =  0.4671
      Cm = -0.0083     CD =  0.00797   =>   CDf =  0.00530    CDp =  0.00267

 Side 1  free  transition at x/c =  0.2541   37
 Side 2  free  transition at x/c =  0.9982   76

   2   rms: 0.6838E-01   max: 0.6019E+00   C at   37  1
       a =  4.000      CL =  0.5112
      Cm = -0.0114     CD =  0.00814   =>   CDf =  0.00543    CDp =  0.00271

 Side 1  free  transition at x/c =  0.2121   35
 Side 2 forced transition at x/c =  1.0000   75

   3   rms: 0.1473E-01   max: -.2179E+00   C at   35  1
       a =  4.000      CL =  0.5065
      Cm = -0.0105     CD =  0.00824   =>   CDf =  0.00566    CDp =  0.00258

 Side 1  free  transition at x/c =  0.2178   36
 Side 2 forced transition at x/c =  1.0000   75

   4   rms: 0.1747E-02   max: -.2212E-01   D at   35  1
       a =  4.000      CL =  0.5067
      Cm = -0.0106     CD =  0.00821   =>   CDf =  0.00561    CDp =  0.00260

 Side 1  free  transition at x/c =  0.2177   36
 Side 2 forced transition at x/c =  1.0000   75

   5   rms: 0.3811E-04   max: 0.7254E-03   C at   36  1
       a =  4.000      CL =  0.5067
      Cm = -0.0106     CD =  0.00821   =>   CDf =  0.00561    CDp =  0.00260
 plradd ia,ip,cpol           17           0  8.30611400E-03

 Point added to stored polar  1
 Point written to save file  rae100_Re600k.base.pol                          
 Dump file unspecified or not available
 Calculating wake trajectory ...
 Calculating source influence matrix ...

 Solving BL system ...

 Side 1  free  transition at x/c =  0.2177   36
 Side 2 forced transition at x/c =  1.0000   75

   1   rms: 0.1304E+00   max: 0.1835E+01   C at   36  1   RLX: 0.600
       a =  4.500      CL =  0.5324
      Cm = -0.0091     CD =  0.00859   =>   CDf =  0.00561    CDp =  0.00298

 Side 1  free  transition at x/c =  0.1832   33
 Side 2 forced transition at x/c =  1.0000   75

   2   rms: 0.3634E-01   max: -.2112E+00   D at   33  1
       a =  4.500      CL =  0.5513
      Cm = -0.0084     CD =  0.00868   =>   CDf =  0.00578    CDp =  0.00290

 Side 1  free  transition at x/c =  0.1622   32
 Side 2 forced transition at x/c =  1.0000   75

   3   rms: 0.5752E-02   max: -.1092E+00   C at   32  1
       a =  4.500      CL =  0.5506
      Cm = -0.0083     CD =  0.00876   =>   CDf =  0.00585    CDp =  0.00291

 Side 1  free  transition at x/c =  0.1641   32
 Side 2 forced transition at x/c =  1.0000   75

   4   rms: 0.1811E-03   max: 0.3234E-02   C at   32  1
       a =  4.500      CL =  0.5506
      Cm = -0.0083     CD =  0.00876   =>   CDf =  0.00584    CDp =  0.00292

 Side 1  free  transition at x/c =  0.1641   32
 Side 2 forced transition at x/c =  1.0000   75

   5   rms: 0.1293E-05   max: -.9253E-05   C at   32  1
       a =  4.500      CL =  0.5506
      Cm = -0.0083     CD =  0.00876   =>   CDf =  0.00584    CDp =  0.00292
 plradd ia,ip,cpol           18           0  6.13953918E-03

 Point added to stored polar  1
 Point written to save file  rae100_Re600k.base.pol                          
 Dump file unspecified or not available
 Calculating wake trajectory ...
 Calculating source influence matrix ...

 Solving BL system ...

 Side 1  free  transition at x/c =  0.1641   32
 Side 2 forced transition at x/c =  1.0000   75

   1   rms: 0.1160E+00   max: 0.1664E+01   C at   32  1   RLX: 0.821
       a =  5.000      CL =  0.5873
      Cm = -0.0066     CD =  0.00923   =>   CDf =  0.00579    CDp =  0.00344

 Side 1  free  transition at x/c =  0.1263   31
 Side 2 forced transition at x/c =  1.0000   74

   2   rms: 0.2346E-01   max: -.1785E+00   D at   33  1
       a =  5.000      CL =  0.5948
      Cm = -0.0061     CD =  0.00943   =>   CDf =  0.00604    CDp =  0.00339

 Side 1  free  transition at x/c =  0.1177   30
 Side 2 forced transition at x/c =  1.0000   74

   3   rms: 0.3356E-02   max: -.4910E-01   C at   30  1
       a =  5.000      CL =  0.5951
      Cm = -0.0062     CD =  0.00939   =>   CDf =  0.00605    CDp =  0.00334

 Side 1  free  transition at x/c =  0.1185   30
 Side 2 forced transition at x/c =  1.0000   74

   4   rms: 0.9116E-04   max: 0.1540E-02   C at   30  1
       a =  5.000      CL =  0.5951
      Cm = -0.0062     CD =  0.00939   =>   CDf =  0.00605    CDp =  0.00335
 plradd ia,ip,cpol           19           0  4.33527539E-03

 Point added to stored polar  1
 Point written to save file  rae100_Re600k.base.pol                          
 Dump file unspecified or not available
 Calculating wake trajectory ...
 Calculating source influence matrix ...

 Solving BL system ...

 Side 1  free  transition at x/c =  0.1185   30
 Side 2 forced transition at x/c =  1.0000   74

   1   rms: 0.1173E+00   max: 0.1403E+01   C at   30  1   RLX: 0.582
       a =  5.500      CL =  0.6210
      Cm = -0.0049     CD =  0.00982   =>   CDf =  0.00605    CDp =  0.00378

 Side 1  free  transition at x/c =  0.0984   28
 Side 2 forced transition at x/c =  1.0000   74

   2   rms: 0.4057E-01   max: -.3287E+00   C at   28  1
       a =  5.500      CL =  0.6411
      Cm = -0.0042     CD =  0.00996   =>   CDf =  0.00617    CDp =  0.00379

 Side 1  free  transition at x/c =  0.0850   27
 Side 2 forced transition at x/c =  1.0000   74

   3   rms: 0.4821E-02   max: -.8607E-01   C at   27  1
       a =  5.500      CL =  0.6402
      Cm = -0.0041     CD =  0.01008   =>   CDf =  0.00622    CDp =  0.00386

 Side 1  free  transition at x/c =  0.0846   27
 Side 2 forced transition at x/c =  1.0000   74

   4   rms: 0.2392E-03   max: 0.4638E-02   C at   27  1
       a =  5.500      CL =  0.6402
      Cm = -0.0041     CD =  0.01008   =>   CDf =  0.00622    CDp =  0.00387

 Side 1  free  transition at x/c =  0.0845   27
 Side 2 forced transition at x/c =  1.0000   74

   5   rms: 0.1634E-05   max: -.1666E-04   C at   27  1
       a =  5.500      CL =  0.6402
      Cm = -0.0041     CD =  0.01008   =>   CDf =  0.00622    CDp =  0.00387
 plradd ia,ip,cpol           20           0  4.33527539E-03

 Point added to stored polar  1
 Point written to save file  rae100_Re600k.base.pol                          
 Dump file unspecified or not available
 Calculating wake trajectory ...
 Calculating source influence matrix ...

 Solving BL system ...

 Side 1  free  transition at x/c =  0.0845   27
 Side 2 forced transition at x/c =  1.0000   74

   1   rms: 0.8560E-01   max: -.4674E+00   D at   27  1
       a =  6.000      CL =  0.6876
      Cm = -0.0023     CD =  0.01054   =>   CDf =  0.00614    CDp =  0.00440

 Side 1  free  transition at x/c =  0.0656   27
 Side 2 forced transition at x/c =  1.0000   73

   2   rms: 0.4296E-01   max: -.5786E+00   D at   27  1   RLX: 0.864
       a =  6.000      CL =  0.6874
      Cm = -0.0024     CD =  0.01062   =>   CDf =  0.00623    CDp =  0.00439

 Side 1  free  transition at x/c =  0.0653   27
 Side 2 forced transition at x/c =  1.0000   73

   3   rms: 0.8805E-02   max: -.1471E+00   D at   27  1
       a =  6.000      CL =  0.6859
      Cm = -0.0021     CD =  0.01079   =>   CDf =  0.00628    CDp =  0.00451

 Side 1  free  transition at x/c =  0.0632   27
 Side 2 forced transition at x/c =  1.0000   73

   4   rms: 0.1425E-02   max: -.2182E-01   D at   27  1
       a =  6.000      CL =  0.6858
      Cm = -0.0021     CD =  0.01081   =>   CDf =  0.00631    CDp =  0.00449

 Side 1  free  transition at x/c =  0.0628   27
 Side 2 forced transition at x/c =  1.0000   73

   5   rms: 0.8014E-04   max: -.1279E-02   D at   27  1
       a =  6.000      CL =  0.6858
      Cm = -0.0021     CD =  0.01081   =>   CDf =  0.00632    CDp =  0.00449
 plradd ia,ip,cpol           21           0  2.86100945E-03

 Point added to stored polar  1
 Point written to save file  rae100_Re600k.base.pol                          
 Dump file unspecified or not available
 Calculating wake trajectory ...
 Calculating source influence matrix ...

 Solving BL system ...

 Side 1  free  transition at x/c =  0.0628   27
 Side 2 forced transition at x/c =  1.0000   73

   1   rms: 0.1131E+00   max: -.7220E+00   D at   27  1   RLX: 0.692
       a =  6.500      CL =  0.7154
      Cm = -0.0004     CD =  0.01164   =>   CDf =  0.00632    CDp =  0.00532

 Side 1  free  transition at x/c =  0.0524   26
 Side 2 forced transition at x/c =  1.0000   73

   2   rms: 0.3986E-01   max: -.2411E+00   D at   27  1
       a =  6.500      CL =  0.7307
      Cm = -0.0000     CD =  0.01171   =>   CDf =  0.00640    CDp =  0.00531

 Side 1  free  transition at x/c =  0.0490   25
 Side 2 forced transition at x/c =  1.0000   73

   3   rms: 0.1890E-01   max: -.2262E+00   D at   25  1
       a =  6.500      CL =  0.7317
      Cm = -0.0002     CD =  0.01155   =>   CDf =  0.00633    CDp =  0.00522

 Side 1  free  transition at x/c =  0.0496   25
 Side 2 forced transition at x/c =  1.0000   73

   4   rms: 0.1067E-02   max: 0.1267E-01   D at   25  1
       a =  6.500      CL =  0.7316
      Cm = -0.0002     CD =  0.01157   =>   CDf =  0.00635    CDp =  0.00522

 Side 1  free  transition at x/c =  0.0495   25
 Side 2 forced transition at x/c =  1.0000   73

   5   rms: 0.3412E-05   max: -.4029E-04   C at   25  1
       a =  6.500      CL =  0.7316
      Cm = -0.0002     CD =  0.01157   =>   CDf =  0.00635    CDp =  0.00522
 plradd ia,ip,cpol           22           0  2.86100945E-03

 Point added to stored polar  1
 Point written to save file  rae100_Re600k.base.pol                          
 Dump file unspecified or not available
 Calculating wake trajectory ...
 Calculating source influence matrix ...

 Solving BL system ...

 Side 1  free  transition at x/c =  0.0495   25
 Side 2 forced transition at x/c =  1.0000   73

   1   rms: 0.8402E-01   max: 0.4632E+00   T at   25  1
       a =  7.000      CL =  0.7796
      Cm =  0.0015     CD =  0.01210   =>   CDf =  0.00622    CDp =  0.00588

 Side 1  free  transition at x/c =  0.0416   26
 Side 2 forced transition at x/c =  1.0000   72

   2   rms: 0.2185E-01   max: 0.9311E-01   D at   23  1
       a =  7.000      CL =  0.7737
      Cm =  0.0023     CD =  0.01287   =>   CDf =  0.00633    CDp =  0.00654

 Side 1  free  transition at x/c =  0.0398   25
 Side 2 forced transition at x/c =  1.0000   72

   3   rms: 0.2900E-01   max: -.3151E+00   D at   25  1
       a =  7.000      CL =  0.7770
      Cm =  0.0018     CD =  0.01242   =>   CDf =  0.00630    CDp =  0.00613

 Side 1  free  transition at x/c =  0.0409   25
 Side 2 forced transition at x/c =  1.0000   72

   4   rms: 0.1664E-02   max: 0.1722E-01   D at   25  1
       a =  7.000      CL =  0.7770
      Cm =  0.0018     CD =  0.01244   =>   CDf =  0.00634    CDp =  0.00610

 Side 1  free  transition at x/c =  0.0408   25
 Side 2 forced transition at x/c =  1.0000   72

   5   rms: 0.5439E-05   max: -.6118E-04   C at   25  1
       a =  7.000      CL =  0.7770
      Cm =  0.0018     CD =  0.01244   =>   CDf =  0.00634    CDp =  0.00610
 plradd ia,ip,cpol           23           0  2.86100945E-03

 Point added to stored polar  1
 Point written to save file  rae100_Re600k.base.pol                          
 Dump file unspecified or not available
 Calculating wake trajectory ...
 Calculating source influence matrix ...

 Solving BL system ...

 Side 1  free  transition at x/c =  0.0408   25
 Side 2 forced transition at x/c =  1.0000   72

   1   rms: 0.8290E-01   max: 0.4770E+00   T at   25  1
       a =  7.500      CL =  0.8251
      Cm =  0.0034     CD =  0.01297   =>   CDf =  0.00634    CDp =  0.00663

 Side 1  free  transition at x/c =  0.0349   25
 Side 2 forced transition at x/c =  1.0000   72

   2   rms: 0.5342E-02   max: -.7320E-01   D at   25  1
       a =  7.500      CL =  0.8223
      Cm =  0.0037     CD =  0.01333   =>   CDf =  0.00631    CDp =  0.00702

 Side 1  free  transition at x/c =  0.0344   25
 Side 2 forced transition at x/c =  1.0000   72

   3   rms: 0.1030E-02   max: 0.5977E-02   D at   24  1
       a =  7.500      CL =  0.8221
      Cm =  0.0038     CD =  0.01336   =>   CDf =  0.00632    CDp =  0.00704

 Side 1  free  transition at x/c =  0.0343   25
 Side 2 forced transition at x/c =  1.0000   72

   4   rms: 0.2567E-04   max: 0.1774E-03   D at   24  1
       a =  7.500      CL =  0.8221
      Cm =  0.0038     CD =  0.01336   =>   CDf =  0.00632    CDp =  0.00703
 plradd ia,ip,cpol           24           0  1.70003215E-03

 Point added to stored polar  1
 Point written to save file  rae100_Re600k.base.pol                          
 Dump file unspecified or not available
 Calculating wake trajectory ...
 Calculating source influence matrix ...

 Solving BL system ...

 Side 1  free  transition at x/c =  0.0343   25
 Side 2 forced transition at x/c =  1.0000   72

   1   rms: 0.1359E+00   max: 0.5087E+00   T at   25  1
       a =  8.000      CL =  0.8559
      Cm =  0.0074     CD =  0.01581   =>   CDf =  0.00614    CDp =  0.00966

 Side 1  free  transition at x/c =  0.0294   25
 Side 2 forced transition at x/c =  1.0000   71

   2   rms: 0.1016E+00   max: -.7017E+00   D at   25  1   RLX: 0.713
       a =  8.000      CL =  0.8604
      Cm =  0.0065     CD =  0.01505   =>   CDf =  0.00604    CDp =  0.00901

 Side 1  free  transition at x/c =  0.0303   25
 Side 2 forced transition at x/c =  1.0000   71

   3   rms: 0.3472E-01   max: -.3657E+00   D at   25  1
       a =  8.000      CL =  0.8677
      Cm =  0.0056     CD =  0.01421   =>   CDf =  0.00616    CDp =  0.00805

 Side 1  free  transition at x/c =  0.0305   25
 Side 2 forced transition at x/c =  1.0000   71

   4   rms: 0.2583E-02   max: 0.2452E-01   D at   25  1
       a =  8.000      CL =  0.8679
      Cm =  0.0056     CD =  0.01423   =>   CDf =  0.00623    CDp =  0.00800

 Side 1  free  transition at x/c =  0.0304   25
 Side 2 forced transition at x/c =  1.0000   71

   5   rms: 0.1075E-04   max: 0.9922E-04   T at   25  1
       a =  8.000      CL =  0.8679
      Cm =  0.0056     CD =  0.01423   =>   CDf =  0.00622    CDp =  0.00800
 plradd ia,ip,cpol           25           0  1.70003215E-03

 Point added to stored polar  1
 Point written to save file  rae100_Re600k.base.pol                          
 Dump file unspecified or not available
 Calculating wake trajectory ...
 Calculating source influence matrix ...

 Solving BL system ...

 Side 1  free  transition at x/c =  0.0304   25
 Side 2 forced transition at x/c =  1.0000   71

   1   rms: 0.8238E-01   max: 0.4168E+00   T at   25  1
       a =  8.500      CL =  0.9138
      Cm =  0.0073     CD =  0.01513   =>   CDf =  0.00622    CDp =  0.00890

 Side 1  free  transition at x/c =  0.0271   24
 Side 2 forced transition at x/c =  1.0000   71

   2   rms: 0.2555E-01   max: -.1593E+00   D at   25  1
       a =  8.500      CL =  0.9109
      Cm =  0.0077     CD =  0.01548   =>   CDf =  0.00613    CDp =  0.00936

 Side 1  free  transition at x/c =  0.0269   24
 Side 2 forced transition at x/c =  1.0000   71

   3   rms: 0.9027E-03   max: 0.9232E-02   D at   24  1
       a =  8.500      CL =  0.9102
      Cm =  0.0078     CD =  0.01555   =>   CDf =  0.00616    CDp =  0.00939

 Side 1  free  transition at x/c =  0.0268   24
 Side 2 forced transition at x/c =  1.0000   71

   4   rms: 0.2636E-05   max: 0.1216E-04   D at   25  1
       a =  8.500      CL =  0.9102
      Cm =  0.0078     CD =  0.01555   =>   CDf =  0.00616    CDp =  0.00939
 plradd ia,ip,cpol           26           0  1.70003215E-03

 Point added to stored polar  1
 Point written to save file  rae100_Re600k.base.pol                          
 Dump file unspecified or not available
 Calculating wake trajectory ...
 Calculating source influence matrix ...

 Solving BL system ...

 Side 1  free  transition at x/c =  0.0268   24
 Side 2 forced transition at x/c =  1.0000   71

   1   rms: 0.7941E-01   max: 0.4305E+00   T at   24  1
       a =  9.000      CL =  0.9574
      Cm =  0.0093     CD =  0.01630   =>   CDf =  0.00594    CDp =  0.01036

 Side 1  free  transition at x/c =  0.0244   25
 Side 2 forced transition at x/c =  1.0000   70

   2   rms: 0.5125E-02   max: -.5813E-01   D at    3  1
       a =  9.000      CL =  0.9553
      Cm =  0.0095     CD =  0.01653   =>   CDf =  0.00605    CDp =  0.01049

 Side 1  free  transition at x/c =  0.0243   25
 Side 2 forced transition at x/c =  1.0000   70

   3   rms: 0.4052E-03   max: -.3985E-02   D at    4  1
       a =  9.000      CL =  0.9553
      Cm =  0.0095     CD =  0.01654   =>   CDf =  0.00605    CDp =  0.01048

 Side 1  free  transition at x/c =  0.0243   25
 Side 2 forced transition at x/c =  1.0000   70

   4   rms: 0.9314E-06   max: -.2475E-05   D at   40  1
       a =  9.000      CL =  0.9553
      Cm =  0.0095     CD =  0.01654   =>   CDf =  0.00605    CDp =  0.01048
 plradd ia,ip,cpol           27           0  1.70003215E-03

 Point added to stored polar  1
 Point written to save file  rae100_Re600k.base.pol                          
 Dump file unspecified or not available
 Calculating wake trajectory ...
 Calculating source influence matrix ...

 Solving BL system ...

 Side 1  free  transition at x/c =  0.0243   25
 Side 2 forced transition at x/c =  1.0000   70

   1   rms: 0.7974E-01   max: 0.3569E+00   T at   25  1
       a =  9.500      CL =  0.9993
      Cm =  0.0113     CD =  0.01764   =>   CDf =  0.00605    CDp =  0.01158

 Side 1  free  transition at x/c =  0.0222   25
 Side 2 forced transition at x/c =  1.0000   70

   2   rms: 0.1294E-01   max: 0.5068E-01   D at   24  1
       a =  9.500      CL =  0.9909
      Cm =  0.0122     CD =  0.01866   =>   CDf =  0.00595    CDp =  0.01270

 Side 1  free  transition at x/c =  0.0219   24
 Side 2 forced transition at x/c =  1.0000   70

   3   rms: 0.5313E-02   max: -.4184E-01   D at   24  1
       a =  9.500      CL =  0.9923
      Cm =  0.0121     CD =  0.01847   =>   CDf =  0.00595    CDp =  0.01251

 Side 1  free  transition at x/c =  0.0220   24
 Side 2 forced transition at x/c =  1.0000   70

   4   rms: 0.8174E-04   max: 0.4713E-03   D at   25  1
       a =  9.500      CL =  0.9923
      Cm =  0.0121     CD =  0.01847   =>   CDf =  0.00596    CDp =  0.01250
 plradd ia,ip,cpol           28           0  1.70003215E-03

 Point added to stored polar  1
 Point written to save file  rae100_Re600k.base.pol                          
 Dump file unspecified or not available
 Calculating wake trajectory ...
 Calculating source influence matrix ...

 Solving BL system ...

 Side 1  free  transition at x/c =  0.0220   24
 Side 2 forced transition at x/c =  1.0000   70

   1   rms: 0.7619E-01   max: 0.3854E+00   T at   24  1
       a = 10.000      CL =  1.0375
      Cm =  0.0137     CD =  0.01940   =>   CDf =  0.00569    CDp =  0.01371

 Side 1  free  transition at x/c =  0.0206   25
 Side 2 forced transition at x/c =  1.0000   69

   2   rms: 0.6251E-02   max: -.3344E-01   D at    3  1
       a = 10.000      CL =  1.0349
      Cm =  0.0140     CD =  0.01966   =>   CDf =  0.00577    CDp =  0.01389

 Side 1  free  transition at x/c =  0.0205   25
 Side 2 forced transition at x/c =  1.0000   69

   3   rms: 0.5432E-03   max: -.6238E-02   D at    4  1
       a = 10.000      CL =  1.0348
      Cm =  0.0140     CD =  0.01966   =>   CDf =  0.00578    CDp =  0.01389

 Side 1  free  transition at x/c =  0.0205   25
 Side 2 forced transition at x/c =  1.0000   69

   4   rms: 0.6253E-06   max: 0.1677E-05   D at   79  1
       a = 10.000      CL =  1.0348
      Cm =  0.0140     CD =  0.01966   =>   CDf =  0.00578    CDp =  0.01389
 plradd ia,ip,cpol           29           0  8.44911323E-04

 Point added to stored polar  1
 Point written to save file  rae100_Re600k.base.pol                          
 Dump file unspecified or not available

.OPERva   c>  
 Solving BL system ...

 Side 1  free  transition at x/c =  0.0205   25
 Side 2 forced transition at x/c =  1.0000   69

   1   rms: 0.4090E-06   max: 0.3303E-05   D at   26  1
       a = 10.000      CL =  1.0348
      Cm =  0.0140     CD =  0.01966   =>   CDf =  0.00578    CDp =  0.01389
 plradd ia,ip,cpol           30         182  8.44911323E-04

 Point added to stored polar  1
 Point written to save file  rae100_Re600k.base.pol                          
 Dump file unspecified or not available
 Calculating wake trajectory ...
 Calculating source influence matrix ...

 Solving BL system ...

 Side 1  free  transition at x/c =  0.0205   25
 Side 2 forced transition at x/c =  1.0000   69

   1   rms: 0.3794E-01   max: 0.1547E+00   T at   25  1
       a = 10.250      CL =  1.0557
      Cm =  0.0150     CD =  0.02031   =>   CDf =  0.00578    CDp =  0.01453

 Side 1  free  transition at x/c =  0.0196   25
 Side 2 forced transition at x/c =  1.0000   69

   2   rms: 0.6027E-02   max: -.4288E-01   D at   25  1
       a = 10.250      CL =  1.0555
      Cm =  0.0150     CD =  0.02026   =>   CDf =  0.00571    CDp =  0.01455

 Side 1  free  transition at x/c =  0.0197   25
 Side 2 forced transition at x/c =  1.0000   69

   3   rms: 0.4989E-04   max: 0.2477E-03   D at   93  1
       a = 10.250      CL =  1.0555
      Cm =  0.0149     CD =  0.02027   =>   CDf =  0.00572    CDp =  0.01455
 plradd ia,ip,cpol           31           0  8.44911323E-04

 Point added to stored polar  1
 Point written to save file  rae100_Re600k.base.pol                          
 Dump file unspecified or not available
 Calculating wake trajectory ...
 Calculating source influence matrix ...

 Solving BL system ...

 Side 1  free  transition at x/c =  0.0197   25
 Side 2 forced transition at x/c =  1.0000   69

   1   rms: 0.3808E-01   max: 0.1545E+00   T at   25  1
       a = 10.500      CL =  1.0757
      Cm =  0.0159     CD =  0.02095   =>   CDf =  0.00572    CDp =  0.01523

 Side 1  free  transition at x/c =  0.0189   25
 Side 2 forced transition at x/c =  1.0000   69

   2   rms: 0.4755E-02   max: -.3218E-01   D at   25  1
       a = 10.500      CL =  1.0751
      Cm =  0.0160     CD =  0.02095   =>   CDf =  0.00567    CDp =  0.01529

 Side 1  free  transition at x/c =  0.0189   25
 Side 2 forced transition at x/c =  1.0000   69

   3   rms: 0.2857E-04   max: 0.1192E-03   T at   25  1
       a = 10.500      CL =  1.0751
      Cm =  0.0160     CD =  0.02096   =>   CDf =  0.00568    CDp =  0.01528
 plradd ia,ip,cpol           32           0  8.44911323E-04

 Point added to stored polar  1
 Point written to save file  rae100_Re600k.base.pol                          
 Dump file unspecified or not available
 Calculating wake trajectory ...
 Calculating source influence matrix ...

 Solving BL system ...

 Side 1  free  transition at x/c =  0.0189   25
 Side 2 forced transition at x/c =  1.0000   69

   1   rms: 0.3843E-01   max: 0.1581E+00   T at   25  1
       a = 10.750      CL =  1.0941
      Cm =  0.0171     CD =  0.02174   =>   CDf =  0.00568    CDp =  0.01606

 Side 1  free  transition at x/c =  0.0183   25
 Side 2 forced transition at x/c =  1.0000   69

   2   rms: 0.2890E-02   max: -.8526E-02   D at   26  1
       a = 10.750      CL =  1.0921
      Cm =  0.0173     CD =  0.02191   =>   CDf =  0.00563    CDp =  0.01629

 Side 1  free  transition at x/c =  0.0183   25
 Side 2 forced transition at x/c =  1.0000   69

   3   rms: 0.2651E-04   max: -.9354E-04   D at   26  1
       a = 10.750      CL =  1.0921
      Cm =  0.0173     CD =  0.02191   =>   CDf =  0.00563    CDp =  0.01628
 plradd ia,ip,cpol           33           0  8.44911323E-04

 Point added to stored polar  1
 Point written to save file  rae100_Re600k.base.pol                          
 Dump file unspecified or not available
 Calculating wake trajectory ...
 Calculating source influence matrix ...

 Solving BL system ...

 Side 1  free  transition at x/c =  0.0183   25
 Side 2 forced transition at x/c =  1.0000   69

   1   rms: 0.4344E-01   max: 0.1660E+00   T at   25  1
       a = 11.000      CL =  1.1066
      Cm =  0.0188     CD =  0.02322   =>   CDf =  0.00563    CDp =  0.01759

 Side 1  free  transition at x/c =  0.0177   25
 Side 2 forced transition at x/c =  1.0000   69

   2   rms: 0.1644E-01   max: 0.5319E-01   D at   24  1
       a = 11.000      CL =  1.0981
      Cm =  0.0196     CD =  0.02433   =>   CDf =  0.00551    CDp =  0.01883

 Side 1  free  transition at x/c =  0.0175   24
 Side 2 forced transition at x/c =  1.0000   69

   3   rms: 0.6698E-02   max: -.6529E-01   D at   24  1
       a = 11.000      CL =  1.1016
      Cm =  0.0193     CD =  0.02379   =>   CDf =  0.00550    CDp =  0.01829

 Side 1  free  transition at x/c =  0.0176   24
 Side 2 forced transition at x/c =  1.0000   69

   4   rms: 0.3458E-03   max: 0.1390E-02   D at   25  1
       a = 11.000      CL =  1.1018
      Cm =  0.0193     CD =  0.02378   =>   CDf =  0.00552    CDp =  0.01826

 Side 1  free  transition at x/c =  0.0176   24
 Side 2 forced transition at x/c =  1.0000   69

   5   rms: 0.6998E-05   max: 0.2045E-04   D at   86  1
       a = 11.000      CL =  1.1018
      Cm =  0.0193     CD =  0.02378   =>   CDf =  0.00552    CDp =  0.01827
 plradd ia,ip,cpol           34           0  8.44911323E-04

 Point added to stored polar  1
 Point written to save file  rae100_Re600k.base.pol                          
 Dump file unspecified or not available
 Calculating wake trajectory ...
 Calculating source influence matrix ...

 Solving BL system ...

 Side 1  free  transition at x/c =  0.0176   24
 Side 2 forced transition at x/c =  1.0000   69

   1   rms: 0.3584E-01   max: 0.1500E+00   T at   24  1
       a = 11.250      CL =  1.1205
      Cm =  0.0204     CD =  0.02450   =>   CDf =  0.00518    CDp =  0.01932

 Side 1  free  transition at x/c =  0.0173   25
 Side 2 forced transition at x/c =  1.0000   68

   2   rms: 0.2343E-02   max: -.2333E-01   D at    2  1
       a = 11.250      CL =  1.1192
      Cm =  0.0206     CD =  0.02458   =>   CDf =  0.00538    CDp =  0.01920

 Side 1  free  transition at x/c =  0.0172   25
 Side 2 forced transition at x/c =  1.0000   68

   3   rms: 0.6007E-03   max: -.7157E-02   D at    4  1
       a = 11.250      CL =  1.1192
      Cm =  0.0206     CD =  0.02458   =>   CDf =  0.00538    CDp =  0.01919

 Side 1  free  transition at x/c =  0.0172   25
 Side 2 forced transition at x/c =  1.0000   68

   4   rms: 0.7573E-06   max: -.4786E-05   T at   25  1
       a = 11.250      CL =  1.1192
      Cm =  0.0206     CD =  0.02458   =>   CDf =  0.00538    CDp =  0.01919
 plradd ia,ip,cpol           35           0  8.44911323E-04

 Point added to stored polar  1
 Point written to save file  rae100_Re600k.base.pol                          
 Dump file unspecified or not available
 Calculating wake trajectory ...
 Calculating source influence matrix ...

 Solving BL system ...

 Side 1  free  transition at x/c =  0.0172   25
 Side 2 forced transition at x/c =  1.0000   68

   1   rms: 0.3656E-01   max: 0.1152E+00   T at   25  1
       a = 11.500      CL =  1.1354
      Cm =  0.0219     CD =  0.02557   =>   CDf =  0.00538    CDp =  0.02019

 Side 1  free  transition at x/c =  0.0169   25
 Side 2 forced transition at x/c =  1.0000   68

   2   rms: 0.1604E-02   max: 0.5040E-02   D at   70  2
       a = 11.500      CL =  1.1340
      Cm =  0.0220     CD =  0.02561   =>   CDf =  0.00525    CDp =  0.02035

 Side 1  free  transition at x/c =  0.0169   25
 Side 2 forced transition at x/c =  1.0000   68

   3   rms: 0.1235E-04   max: -.6156E-04   D at   75  2
       a = 11.500      CL =  1.1340
      Cm =  0.0220     CD =  0.02561   =>   CDf =  0.00526    CDp =  0.02035
 plradd ia,ip,cpol           36           0  8.44911323E-04

 Point added to stored polar  1
 Point written to save file  rae100_Re600k.base.pol                          
 Dump file unspecified or not available
 Calculating wake trajectory ...
 Calculating source influence matrix ...

 Solving BL system ...

 Side 1  free  transition at x/c =  0.0169   25
 Side 2 forced transition at x/c =  1.0000   68

   1   rms: 0.3646E-01   max: 0.1252E+00   T at   25  1
       a = 11.750      CL =  1.1486
      Cm =  0.0235     CD =  0.02670   =>   CDf =  0.00526    CDp =  0.02144

 Side 1  free  transition at x/c =  0.0164   25
 Side 2 forced transition at x/c =  1.0000   68

   2   rms: 0.2158E-02   max: -.8980E-02   D at   26  1
       a = 11.750      CL =  1.1472
      Cm =  0.0236     CD =  0.02669   =>   CDf =  0.00512    CDp =  0.02157

 Side 1  free  transition at x/c =  0.0164   25
 Side 2 forced transition at x/c =  1.0000   68

   3   rms: 0.6918E-04   max: -.3241E-03   D at   76  2
       a = 11.750      CL =  1.1472
      Cm =  0.0236     CD =  0.02670   =>   CDf =  0.00513    CDp =  0.02157
 plradd ia,ip,cpol           37           0  8.44911323E-04

 Point added to stored polar  1
 Point written to save file  rae100_Re600k.base.pol                          
 Dump file unspecified or not available
 Calculating wake trajectory ...
 Calculating source influence matrix ...

 Solving BL system ...

 Side 1  free  transition at x/c =  0.0164   25
 Side 2 forced transition at x/c =  1.0000   68

   1   rms: 0.3567E-01   max: 0.1047E+00   T at   25  1
       a = 12.000      CL =  1.1602
      Cm =  0.0252     CD =  0.02785   =>   CDf =  0.00513    CDp =  0.02272

 Side 1  free  transition at x/c =  0.0160   25
 Side 2 forced transition at x/c =  1.0000   68

   2   rms: 0.2503E-02   max: 0.6934E-02   D at   70  2
       a = 12.000      CL =  1.1586
      Cm =  0.0254     CD =  0.02782   =>   CDf =  0.00500    CDp =  0.02282

 Side 1  free  transition at x/c =  0.0160   25
 Side 2 forced transition at x/c =  1.0000   68

   3   rms: 0.8913E-04   max: -.4025E-03   D at   76  2
       a = 12.000      CL =  1.1586
      Cm =  0.0253     CD =  0.02782   =>   CDf =  0.00501    CDp =  0.02281
 plradd ia,ip,cpol           38           0  8.44911323E-04

 Point added to stored polar  1
 Point written to save file  rae100_Re600k.base.pol                          
 Dump file unspecified or not available
 Calculating wake trajectory ...
 Calculating source influence matrix ...

 Solving BL system ...

 Side 1  free  transition at x/c =  0.0160   25
 Side 2 forced transition at x/c =  1.0000   68

   1   rms: 0.3565E-01   max: 0.8988E-01   T at   25  1
       a = 12.250      CL =  1.1693
      Cm =  0.0271     CD =  0.02911   =>   CDf =  0.00501    CDp =  0.02410

 Side 1  free  transition at x/c =  0.0156   25
 Side 2 forced transition at x/c =  1.0000   68

   2   rms: 0.4045E-02   max: 0.1790E-01   D at   94  1
       a = 12.250      CL =  1.1659
      Cm =  0.0276     CD =  0.02903   =>   CDf =  0.00489    CDp =  0.02414

 Side 1  free  transition at x/c =  0.0157   25
 Side 2 forced transition at x/c =  1.0000   68

   3   rms: 0.6675E-04   max: -.5581E-03   D at   70  2
       a = 12.250      CL =  1.1658
      Cm =  0.0276     CD =  0.02903   =>   CDf =  0.00490    CDp =  0.02413
 plradd ia,ip,cpol           39           0  8.44911323E-04

 Point added to stored polar  1
 Point written to save file  rae100_Re600k.base.pol                          
 Dump file unspecified or not available
 Calculating wake trajectory ...
 Calculating source influence matrix ...

 Solving BL system ...

 Side 1  free  transition at x/c =  0.0157   25
 Side 2 forced transition at x/c =  1.0000   68

   1   rms: 0.3349E-01   max: 0.8350E-01   D at   84  1
       a = 12.500      CL =  1.1716
      Cm =  0.0301     CD =  0.03028   =>   CDf =  0.00490    CDp =  0.02538

 Side 1  free  transition at x/c =  0.0154   25
 Side 2 forced transition at x/c =  1.0000   68

   2   rms: 0.3273E-02   max: 0.2246E-01   D at   92  1
       a = 12.500      CL =  1.1694
      Cm =  0.0302     CD =  0.03024   =>   CDf =  0.00479    CDp =  0.02545

 Side 1  free  transition at x/c =  0.0154   25
 Side 2 forced transition at x/c =  1.0000   68

   3   rms: 0.1896E-03   max: -.9168E-03   D at   93  1
       a = 12.500      CL =  1.1696
      Cm =  0.0302     CD =  0.03024   =>   CDf =  0.00480    CDp =  0.02544

 Side 1  free  transition at x/c =  0.0154   25
 Side 2 forced transition at x/c =  1.0000   68

   4   rms: 0.7294E-06   max: 0.4752E-05   C at   68  2
       a = 12.500      CL =  1.1696
      Cm =  0.0302     CD =  0.03024   =>   CDf =  0.00480    CDp =  0.02544
 plradd ia,ip,cpol           40           0  8.44911323E-04

 Point added to stored polar  1
 Point written to save file  rae100_Re600k.base.pol                          
 Dump file unspecified or not available
 Calculating wake trajectory ...
 Calculating source influence matrix ...

 Solving BL system ...

 Side 1  free  transition at x/c =  0.0154   25
 Side 2 forced transition at x/c =  1.0000   68

   1   rms: 0.3384E-01   max: 0.9053E-01   D at   83  1
       a = 12.750      CL =  1.1737
      Cm =  0.0325     CD =  0.03166   =>   CDf =  0.00480    CDp =  0.02686

 Side 1  free  transition at x/c =  0.0151   25
 Side 2 forced transition at x/c =  1.0000   68

   2   rms: 0.3773E-02   max: 0.2525E-01   D at   89  1
       a = 12.750      CL =  1.1717
      Cm =  0.0325     CD =  0.03163   =>   CDf =  0.00469    CDp =  0.02694

 Side 1  free  transition at x/c =  0.0152   25
 Side 2 forced transition at x/c =  1.0000   68

   3   rms: 0.2721E-03   max: -.1383E-02   D at   90  1
       a = 12.750      CL =  1.1719
      Cm =  0.0324     CD =  0.03163   =>   CDf =  0.00470    CDp =  0.02693

 Side 1  free  transition at x/c =  0.0152   25
 Side 2 forced transition at x/c =  1.0000   68

   4   rms: 0.1871E-05   max: 0.1225E-04   C at   68  2
       a = 12.750      CL =  1.1719
      Cm =  0.0324     CD =  0.03163   =>   CDf =  0.00470    CDp =  0.02693
 plradd ia,ip,cpol           41           0  8.44911323E-04

 Point added to stored polar  1
 Point written to save file  rae100_Re600k.base.pol                          
 Dump file unspecified or not available
 Calculating wake trajectory ...
 Calculating source influence matrix ...

 Solving BL system ...

 Side 1  free  transition at x/c =  0.0152   25
 Side 2 forced transition at x/c =  1.0000   68

   1   rms: 0.3346E-01   max: 0.9963E-01   T at   25  1
       a = 13.000      CL =  1.1769
      Cm =  0.0341     CD =  0.03299   =>   CDf =  0.00433    CDp =  0.02866

 Side 1  free  transition at x/c =  0.0148   26
 Side 2 forced transition at x/c =  1.0000   67
 idif Ue xi dudx           1  0.11405445      8.15820694E-03   13.980333    
 Uenew xinew           2  1.48326115E-04  1.06096268E-05

   2   rms: 0.1098E-01   max: -.1744E+00   D at    2  1
       a = 13.000      CL =  1.1749
      Cm =  0.0341     CD =  0.03299   =>   CDf =  0.00496    CDp =  0.02804

 Side 1  free  transition at x/c =  0.0148   25
 Side 2 forced transition at x/c =  1.0000   68

   3   rms: 0.7033E-02   max: 0.1236E+00   T at    2  2
       a = 13.000      CL =  1.1752
      Cm =  0.0340     CD =  0.03299   =>   CDf =  0.00463    CDp =  0.02836

 Side 1  free  transition at x/c =  0.0148   25
 Side 2 forced transition at x/c =  1.0000   68

   4   rms: 0.9075E-01   max: -.1605E+01   T at    2  2   RLX: 0.312
       a = 13.000      CL =  1.1752
      Cm =  0.0340     CD =  0.03299   =>   CDf =  0.00463    CDp =  0.02836

 Side 1  free  transition at x/c =  0.0148   25
 Side 2 forced transition at x/c =  1.0000   68

   5   rms: 0.3315E-01   max: -.5801E+00   T at    2  2   RLX: 0.862
       a = 13.000      CL =  1.1752
      Cm =  0.0340     CD =  0.03299   =>   CDf =  0.00463    CDp =  0.02836

 Side 1  free  transition at x/c =  0.0148   25
 Side 2 forced transition at x/c =  1.0000   68

   6   rms: 0.3961E-02   max: -.6936E-01   T at    2  2
       a = 13.000      CL =  1.1752
      Cm =  0.0340     CD =  0.03299   =>   CDf =  0.00463    CDp =  0.02836

 Side 1  free  transition at x/c =  0.0148   25
 Side 2 forced transition at x/c =  1.0000   68

   7   rms: 0.2777E-02   max: 0.4956E-01   D at    2  2
       a = 13.000      CL =  1.1752
      Cm =  0.0340     CD =  0.03299   =>   CDf =  0.00463    CDp =  0.02836

 Side 1  free  transition at x/c =  0.0148   25
 Side 2 forced transition at x/c =  1.0000   68

   8   rms: 0.5735E-02   max: -.1016E+00   T at    2  2
       a = 13.000      CL =  1.1752
      Cm =  0.0340     CD =  0.03299   =>   CDf =  0.00463    CDp =  0.02836

 Side 1  free  transition at x/c =  0.0148   25
 Side 2 forced transition at x/c =  1.0000   68

   9   rms: 0.3272E-02   max: 0.5843E-01   T at    2  2
       a = 13.000      CL =  1.1752
      Cm =  0.0340     CD =  0.03299   =>   CDf =  0.00463    CDp =  0.02836

 Side 1  free  transition at x/c =  0.0148   25
 Side 2 forced transition at x/c =  1.0000   68

  10   rms: 0.7550E-02   max: -.1336E+00   D at    2  2
       a = 13.000      CL =  1.1752
      Cm =  0.0340     CD =  0.03299   =>   CDf =  0.00463    CDp =  0.02836

 Side 1  free  transition at x/c =  0.0148   25
 Side 2 forced transition at x/c =  1.0000   68

  11   rms: 0.3387E-02   max: 0.6049E-01   T at    2  2
       a = 13.000      CL =  1.1752
      Cm =  0.0340     CD =  0.03299   =>   CDf =  0.00463    CDp =  0.02836

 Side 1  free  transition at x/c =  0.0148   25
 Side 2 forced transition at x/c =  1.0000   68

  12   rms: 0.7998E-02   max: -.1415E+00   T at    2  2
       a = 13.000      CL =  1.1752
      Cm =  0.0340     CD =  0.03299   =>   CDf =  0.00463    CDp =  0.02836

 Side 1  free  transition at x/c =  0.0148   25
 Side 2 forced transition at x/c =  1.0000   68

  13   rms: 0.3391E-02   max: 0.6055E-01   T at    2  2
       a = 13.000      CL =  1.1752
      Cm =  0.0340     CD =  0.03299   =>   CDf =  0.00463    CDp =  0.02836

 Side 1  free  transition at x/c =  0.0148   25
 Side 2 forced transition at x/c =  1.0000   68

  14   rms: 0.8048E-02   max: -.1424E+00   T at    2  2
       a = 13.000      CL =  1.1752
      Cm =  0.0340     CD =  0.03299   =>   CDf =  0.00463    CDp =  0.02836

 Side 1  free  transition at x/c =  0.0148   25
 Side 2 forced transition at x/c =  1.0000   68

  15   rms: 0.3425E-02   max: 0.6119E-01   T at    2  2
       a = 13.000      CL =  1.1752
      Cm =  0.0340     CD =  0.03299   =>   CDf =  0.00463    CDp =  0.02836

 Side 1  free  transition at x/c =  0.0148   25
 Side 2 forced transition at x/c =  1.0000   68

  16   rms: 0.8147E-02   max: -.1441E+00   T at    2  2
       a = 13.000      CL =  1.1752
      Cm =  0.0340     CD =  0.03299   =>   CDf =  0.00463    CDp =  0.02836

 Side 1  free  transition at x/c =  0.0148   25
 Side 2 forced transition at x/c =  1.0000   68

  17   rms: 0.3393E-02   max: 0.6060E-01   T at    2  2
       a = 13.000      CL =  1.1752
      Cm =  0.0340     CD =  0.03299   =>   CDf =  0.00463    CDp =  0.02836

 Side 1  free  transition at x/c =  0.0148   25
 Side 2 forced transition at x/c =  1.0000   68

  18   rms: 0.8033E-02   max: -.1421E+00   D at    2  2
       a = 13.000      CL =  1.1752
      Cm =  0.0340     CD =  0.03299   =>   CDf =  0.00463    CDp =  0.02836

 Side 1  free  transition at x/c =  0.0148   25
 Side 2 forced transition at x/c =  1.0000   68

  19   rms: 0.3442E-02   max: 0.6148E-01   T at    2  2
       a = 13.000      CL =  1.1752
      Cm =  0.0340     CD =  0.03299   =>   CDf =  0.00463    CDp =  0.02836

 Side 1  free  transition at x/c =  0.0148   25
 Side 2 forced transition at x/c =  1.0000   68

  20   rms: 0.8281E-02   max: -.1465E+00   T at    2  2
       a = 13.000      CL =  1.1752
      Cm =  0.0340     CD =  0.03299   =>   CDf =  0.00463    CDp =  0.02836

 Side 1  free  transition at x/c =  0.0148   25
 Side 2 forced transition at x/c =  1.0000   68

  21   rms: 0.3404E-02   max: 0.6080E-01   D at    2  2
       a = 13.000      CL =  1.1752
      Cm =  0.0340     CD =  0.03299   =>   CDf =  0.00463    CDp =  0.02836

 Side 1  free  transition at x/c =  0.0148   25
 Side 2 forced transition at x/c =  1.0000   68

  22   rms: 0.8064E-02   max: -.1427E+00   T at    2  2
       a = 13.000      CL =  1.1752
      Cm =  0.0340     CD =  0.03299   =>   CDf =  0.00463    CDp =  0.02836

 Side 1  free  transition at x/c =  0.0148   25
 Side 2 forced transition at x/c =  1.0000   68

  23   rms: 0.3356E-02   max: 0.5995E-01   T at    2  2
       a = 13.000      CL =  1.1752
      Cm =  0.0340     CD =  0.03299   =>   CDf =  0.00463    CDp =  0.02836

 Side 1  free  transition at x/c =  0.0148   25
 Side 2 forced transition at x/c =  1.0000   68

  24   rms: 0.7959E-02   max: -.1408E+00   T at    2  2
       a = 13.000      CL =  1.1752
      Cm =  0.0340     CD =  0.03299   =>   CDf =  0.00463    CDp =  0.02836

 Side 1  free  transition at x/c =  0.0148   25
 Side 2 forced transition at x/c =  1.0000   68

  25   rms: 0.3493E-02   max: 0.6241E-01   D at    2  2
       a = 13.000      CL =  1.1752
      Cm =  0.0340     CD =  0.03299   =>   CDf =  0.00463    CDp =  0.02836

 Side 1  free  transition at x/c =  0.0148   25
 Side 2 forced transition at x/c =  1.0000   68

  26   rms: 0.8529E-02   max: -.1509E+00   T at    2  2
       a = 13.000      CL =  1.1752
      Cm =  0.0340     CD =  0.03299   =>   CDf =  0.00463    CDp =  0.02836

 Side 1  free  transition at x/c =  0.0148   25
 Side 2 forced transition at x/c =  1.0000   68

  27   rms: 0.3473E-02   max: 0.6205E-01   T at    2  2
       a = 13.000      CL =  1.1752
      Cm =  0.0340     CD =  0.03299   =>   CDf =  0.00463    CDp =  0.02836

 Side 1  free  transition at x/c =  0.0148   25
 Side 2 forced transition at x/c =  1.0000   68

  28   rms: 0.8394E-02   max: -.1485E+00   T at    2  2
       a = 13.000      CL =  1.1752
      Cm =  0.0340     CD =  0.03299   =>   CDf =  0.00463    CDp =  0.02836

 Side 1  free  transition at x/c =  0.0148   25
 Side 2 forced transition at x/c =  1.0000   68

  29   rms: 0.3413E-02   max: 0.6098E-01   T at    2  2
       a = 13.000      CL =  1.1752
      Cm =  0.0340     CD =  0.03299   =>   CDf =  0.00463    CDp =  0.02836

 Side 1  free  transition at x/c =  0.0148   25
 Side 2 forced transition at x/c =  1.0000   68

  30   rms: 0.8203E-02   max: -.1451E+00   T at    2  2
       a = 13.000      CL =  1.1752
      Cm =  0.0340     CD =  0.03299   =>   CDf =  0.00463    CDp =  0.02836

 Side 1  free  transition at x/c =  0.0148   25
 Side 2 forced transition at x/c =  1.0000   68

  31   rms: 0.3491E-02   max: 0.6236E-01   D at    2  2
       a = 13.000      CL =  1.1752
      Cm =  0.0340     CD =  0.03299   =>   CDf =  0.00463    CDp =  0.02836

 Side 1  free  transition at x/c =  0.0148   25
 Side 2 forced transition at x/c =  1.0000   68

  32   rms: 0.8520E-02   max: -.1507E+00   T at    2  2
       a = 13.000      CL =  1.1752
      Cm =  0.0340     CD =  0.03299   =>   CDf =  0.00463    CDp =  0.02836

 Side 1  free  transition at x/c =  0.0148   25
 Side 2 forced transition at x/c =  1.0000   68

  33   rms: 0.3448E-02   max: 0.6159E-01   D at    2  2
       a = 13.000      CL =  1.1752
      Cm =  0.0340     CD =  0.03299   =>   CDf =  0.00463    CDp =  0.02836

 Side 1  free  transition at x/c =  0.0148   25
 Side 2 forced transition at x/c =  1.0000   68

  34   rms: 0.8350E-02   max: -.1477E+00   T at    2  2
       a = 13.000      CL =  1.1752
      Cm =  0.0340     CD =  0.03299   =>   CDf =  0.00463    CDp =  0.02836

 Side 1  free  transition at x/c =  0.0148   25
 Side 2 forced transition at x/c =  1.0000   68

  35   rms: 0.3499E-02   max: 0.6251E-01   D at    2  2
       a = 13.000      CL =  1.1752
      Cm =  0.0340     CD =  0.03299   =>   CDf =  0.00463    CDp =  0.02836

 Side 1  free  transition at x/c =  0.0148   25
 Side 2 forced transition at x/c =  1.0000   68

  36   rms: 0.8532E-02   max: -.1509E+00   T at    2  2
       a = 13.000      CL =  1.1752
      Cm =  0.0340     CD =  0.03299   =>   CDf =  0.00463    CDp =  0.02836

 Side 1  free  transition at x/c =  0.0148   25
 Side 2 forced transition at x/c =  1.0000   68

  37   rms: 0.3437E-02   max: 0.6140E-01   T at    2  2
       a = 13.000      CL =  1.1752
      Cm =  0.0340     CD =  0.03299   =>   CDf =  0.00463    CDp =  0.02836

[...]

 Side 1  free  transition at x/c =  0.0148   26
 Side 2 forced transition at x/c =  1.0000   67
 idif Ue xi dudx           1  0.11136788      8.14831257E-03   13.667601    
 Uenew xinew           2  9.77582931E-06  7.15255737E-07

   2   rms: 0.1429E+01   max: -.2572E+02   D at    2  1   RLX: 0.019
       a = 13.250      CL =  1.1752
      Cm =  0.0341     CD =  0.03310   =>   CDf =  0.00497    CDp =  0.02813

 Side 1  free  transition at x/c =  0.0148   25
 Side 2 forced transition at x/c =  1.0000   68

   3   rms: 0.1243E+01   max: 0.2228E+02   T at    2  2   RLX: 0.057
       a = 13.250      CL =  1.1753
      Cm =  0.0342     CD =  0.03320   =>   CDf =  0.00424    CDp =  0.02896

 Side 1  free  transition at x/c =  0.0148   26
 Side 2 forced transition at x/c =  1.0000   67

   4   rms: 0.9917E+01   max: 0.1759E+03   D at    2  1   RLX: 0.007
       a = 13.250      CL =  1.1754
      Cm =  0.0342     CD =  0.03320   =>   CDf =  0.00461    CDp =  0.02859

 Side 1  free  transition at x/c =  0.0148   26
 Side 2 forced transition at x/c =  1.0000   67

   5   rms: 0.3334E-01   max: 0.9757E-01   D at   82  1
       a = 13.250      CL =  1.1767
      Cm =  0.0353     CD =  0.03496   =>   CDf =  0.00461    CDp =  0.03035

 Side 1  free  transition at x/c =  0.0146   26
 Side 2 forced transition at x/c =  1.0000   67

   6   rms: 0.6855E-02   max: -.3640E-01   D at   26  1
       a = 13.250      CL =  1.1745
      Cm =  0.0353     CD =  0.03489   =>   CDf =  0.00450    CDp =  0.03038

 Side 1  free  transition at x/c =  0.0147   26
 Side 2 forced transition at x/c =  1.0000   67

   7   rms: 0.9759E-03   max: -.4135E-02   D at   85  1
       a = 13.250      CL =  1.1751
      Cm =  0.0352     CD =  0.03488   =>   CDf =  0.00452    CDp =  0.03035

 Side 1  free  transition at x/c =  0.0147   26
 Side 2 forced transition at x/c =  1.0000   67

   8   rms: 0.2143E-04   max: -.7196E-04   D at   76  2
       a = 13.250      CL =  1.1751
      Cm =  0.0352     CD =  0.03488   =>   CDf =  0.00452    CDp =  0.03036
 plradd ia,ip,cpol           42           0  8.44911323E-04

 Point added to stored polar  1
 Point written to save file  rae100_Re600k.base.pol                          
 Dump file unspecified or not available
 Calculating wake trajectory ...
 Calculating source influence matrix ...

 Solving BL system ...

 Side 1  free  transition at x/c =  0.0147   26
 Side 2 forced transition at x/c =  1.0000   67

   1   rms: 0.3903E-01   max: 0.1185E+00   D at   79  1
       a = 13.500      CL =  1.1760
      Cm =  0.0359     CD =  0.03716   =>   CDf =  0.00453    CDp =  0.03264

 Side 1  free  transition at x/c =  0.0144   26
 Side 2 forced transition at x/c =  1.0000   67

   2   rms: 0.7565E-02   max: 0.4866E-01   D at   81  1
       a = 13.500      CL =  1.1712
      Cm =  0.0358     CD =  0.03742   =>   CDf =  0.00442    CDp =  0.03300

 Side 1  free  transition at x/c =  0.0144   26
 Side 2 forced transition at x/c =  1.0000   67

   3   rms: 0.2459E-03   max: 0.4929E-02   D at   79  1
       a = 13.500      CL =  1.1712
      Cm =  0.0358     CD =  0.03739   =>   CDf =  0.00442    CDp =  0.03297

 Side 1  free  transition at x/c =  0.0144   26
 Side 2 forced transition at x/c =  1.0000   67

   4   rms: 0.1117E-04   max: 0.5815E-04   D at   79  1
       a = 13.500      CL =  1.1712
      Cm =  0.0358     CD =  0.03739   =>   CDf =  0.00442    CDp =  0.03297
 plradd ia,ip,cpol           43           0  8.44911323E-04

 Point added to stored polar  1
 Point written to save file  rae100_Re600k.base.pol                          
 Dump file unspecified or not available
 Calculating wake trajectory ...
 Calculating source influence matrix ...

 Solving BL system ...

 Side 1  free  transition at x/c =  0.0144   26
 Side 2 forced transition at x/c =  1.0000   67

   1   rms: 0.4305E-01   max: 0.1362E+00   D at   76  1
       a = 13.750      CL =  1.1696
      Cm =  0.0358     CD =  0.04037   =>   CDf =  0.00442    CDp =  0.03595

 Side 1  free  transition at x/c =  0.0141   26
 Side 2 forced transition at x/c =  1.0000   67

   2   rms: 0.1082E-01   max: 0.5796E-01   D at   77  1
       a = 13.750      CL =  1.1630
      Cm =  0.0356     CD =  0.04072   =>   CDf =  0.00427    CDp =  0.03645

 Side 1  free  transition at x/c =  0.0142   26
 Side 2 forced transition at x/c =  1.0000   67

   3   rms: 0.5078E-03   max: 0.6619E-02   D at   75  1
       a = 13.750      CL =  1.1631
      Cm =  0.0356     CD =  0.04068   =>   CDf =  0.00429    CDp =  0.03640

 Side 1  free  transition at x/c =  0.0142   26
 Side 2 forced transition at x/c =  1.0000   67

   4   rms: 0.4889E-04   max: 0.2185E-03   D at   75  1
       a = 13.750      CL =  1.1631
      Cm =  0.0356     CD =  0.04068   =>   CDf =  0.00429    CDp =  0.03640
 plradd ia,ip,cpol           44           0  8.44911323E-04

 Point added to stored polar  1
 Point written to save file  rae100_Re600k.base.pol                          
 Dump file unspecified or not available
 Calculating wake trajectory ...
 Calculating source influence matrix ...

 Solving BL system ...

 Side 1  free  transition at x/c =  0.0142   26
 Side 2 forced transition at x/c =  1.0000   67

   1   rms: 0.6027E-01   max: 0.1916E+00   D at   71  1
       a = 14.000      CL =  1.1523
      Cm =  0.0347     CD =  0.04556   =>   CDf =  0.00429    CDp =  0.04127

 Side 1  free  transition at x/c =  0.0139   25
 Side 2 forced transition at x/c =  1.0000   67

   2   rms: 0.1804E-01   max: 0.9694E-01   D at   73  1
       a = 14.000      CL =  1.1416
      Cm =  0.0342     CD =  0.04629   =>   CDf =  0.00405    CDp =  0.04224

 Side 1  free  transition at x/c =  0.0140   26
 Side 2 forced transition at x/c =  1.0000   67

   3   rms: 0.3403E-01   max: 0.1385E+00   D at   27  1
       a = 14.000      CL =  1.1474
      Cm =  0.0345     CD =  0.04565   =>   CDf =  0.00421    CDp =  0.04144

 Side 1  free  transition at x/c =  0.0140   26
 Side 2 forced transition at x/c =  1.0000   67

   4   rms: 0.6208E-02   max: -.2057E-01   D at   29  1
       a = 14.000      CL =  1.1459
      Cm =  0.0343     CD =  0.04549   =>   CDf =  0.00406    CDp =  0.04143

 Side 1  free  transition at x/c =  0.0140   26
 Side 2 forced transition at x/c =  1.0000   67

   5   rms: 0.7309E-03   max: 0.2406E-02   D at   30  1
       a = 14.000      CL =  1.1458
      Cm =  0.0343     CD =  0.04552   =>   CDf =  0.00408    CDp =  0.04144

 Side 1  free  transition at x/c =  0.0140   26
 Side 2 forced transition at x/c =  1.0000   67

   6   rms: 0.1084E-03   max: -.3626E-03   D at   29  1
       a = 14.000      CL =  1.1458
      Cm =  0.0343     CD =  0.04551   =>   CDf =  0.00408    CDp =  0.04144

 Side 1  free  transition at x/c =  0.0140   26
 Side 2 forced transition at x/c =  1.0000   67

   7   rms: 0.1230E-04   max: 0.4152E-04   T at   71  1
       a = 14.000      CL =  1.1458
      Cm =  0.0343     CD =  0.04551   =>   CDf =  0.00408    CDp =  0.04144
 plradd ia,ip,cpol           45           0  8.44911323E-04

 Point added to stored polar  1
 Point written to save file  rae100_Re600k.base.pol                          
 Dump file unspecified or not available
 Calculating wake trajectory ...
 Calculating source influence matrix ...

 Solving BL system ...

 Side 1  free  transition at x/c =  0.0140   26
 Side 2 forced transition at x/c =  1.0000   67

   1   rms: 0.7235E-01   max: 0.2326E+00   D at   67  1   RLX: 0.921
       a = 14.250      CL =  1.1302
      Cm =  0.0321     CD =  0.05160   =>   CDf =  0.00408    CDp =  0.04752

 Side 1  free  transition at x/c =  0.0139   25
 Side 2 forced transition at x/c =  1.0000   67

   2   rms: 0.9991E-02   max: 0.6222E-01   D at   69  1
       a = 14.250      CL =  1.1329
      Cm =  0.0320     CD =  0.05047   =>   CDf =  0.00390    CDp =  0.04657

 Side 1  free  transition at x/c =  0.0139   25
 Side 2 forced transition at x/c =  1.0000   67

   3   rms: 0.6249E-03   max: -.5194E-02   D at   69  1
       a = 14.250      CL =  1.1330
      Cm =  0.0322     CD =  0.05026   =>   CDf =  0.00390    CDp =  0.04636

 Side 1  free  transition at x/c =  0.0139   25
 Side 2 forced transition at x/c =  1.0000   67

   4   rms: 0.3752E-04   max: 0.1318E-03   D at   65  1
       a = 14.250      CL =  1.1330
      Cm =  0.0322     CD =  0.05026   =>   CDf =  0.00390    CDp =  0.04637
 plradd ia,ip,cpol           46           0  8.44911323E-04

 Point added to stored polar  1
 Point written to save file  rae100_Re600k.base.pol                          
 Dump file unspecified or not available
 Calculating wake trajectory ...
 Calculating source influence matrix ...

 Solving BL system ...

 Side 1  free  transition at x/c =  0.0139   25
 Side 2 forced transition at x/c =  1.0000   67

   1   rms: 0.4454E-01   max: 0.1554E+00   D at   65  1   RLX: 0.880
       a = 14.500      CL =  1.1321
      Cm =  0.0297     CD =  0.05424   =>   CDf =  0.00390    CDp =  0.05034

 Side 1  free  transition at x/c =  0.0138   25
 Side 2 forced transition at x/c =  1.0000   67

   2   rms: 0.1152E-01   max: 0.6980E-01   D at   65  1
       a = 14.500      CL =  1.1270
      Cm =  0.0294     CD =  0.05474   =>   CDf =  0.00375    CDp =  0.05099

 Side 1  free  transition at x/c =  0.0138   25
 Side 2 forced transition at x/c =  1.0000   67

   3   rms: 0.1354E-02   max: 0.1104E-01   D at   63  1
       a = 14.500      CL =  1.1261
      Cm =  0.0294     CD =  0.05461   =>   CDf =  0.00373    CDp =  0.05088

 Side 1  free  transition at x/c =  0.0138   25
 Side 2 forced transition at x/c =  1.0000   67

   4   rms: 0.6240E-04   max: 0.3964E-03   D at   79  2
       a = 14.500      CL =  1.1260
      Cm =  0.0295     CD =  0.05459   =>   CDf =  0.00373    CDp =  0.05086
 plradd ia,ip,cpol           47           0  8.44911323E-04

 Point added to stored polar  1
 Point written to save file  rae100_Re600k.base.pol                          
 Dump file unspecified or not available
 Calculating wake trajectory ...
 Calculating source influence matrix ...

 Solving BL system ...

 Side 1  free  transition at x/c =  0.0138   25
 Side 2 forced transition at x/c =  1.0000   67

   1   rms: 0.4694E-01   max: 0.1696E+00   D at   61  1   RLX: 0.825
       a = 14.750      CL =  1.1233
      Cm =  0.0267     CD =  0.05913   =>   CDf =  0.00374    CDp =  0.05539

 Side 1  free  transition at x/c =  0.0138   25
 Side 2 forced transition at x/c =  1.0000   67

   2   rms: 0.1688E-01   max: 0.8338E-01   D at   62  1
       a = 14.750      CL =  1.1166
      Cm =  0.0261     CD =  0.06011   =>   CDf =  0.00361    CDp =  0.05649

 Side 1  free  transition at x/c =  0.0138   25
 Side 2 forced transition at x/c =  1.0000   67

   3   rms: 0.2606E-02   max: 0.1619E-01   D at   60  1
       a = 14.750      CL =  1.1148
      Cm =  0.0262     CD =  0.05988   =>   CDf =  0.00358    CDp =  0.05630

 Side 1  free  transition at x/c =  0.0138   25
 Side 2 forced transition at x/c =  1.0000   67

   4   rms: 0.1068E-03   max: -.8279E-03   C at   67  2
       a = 14.750      CL =  1.1147
      Cm =  0.0262     CD =  0.05984   =>   CDf =  0.00358    CDp =  0.05626

 Side 1  free  transition at x/c =  0.0138   25
 Side 2 forced transition at x/c =  1.0000   67

   5   rms: 0.9404E-05   max: -.3510E-04   D at   82  2
       a = 14.750      CL =  1.1147
      Cm =  0.0262     CD =  0.05984   =>   CDf =  0.00358    CDp =  0.05626
 plradd ia,ip,cpol           48           0  8.44911323E-04

 Point added to stored polar  1
 Point written to save file  rae100_Re600k.base.pol                          
 Dump file unspecified or not available
 Calculating wake trajectory ...
 Calculating source influence matrix ...

 Solving BL system ...

 Side 1  free  transition at x/c =  0.0138   25
 Side 2 forced transition at x/c =  1.0000   67

   1   rms: 0.5389E-01   max: 0.2009E+00   D at   58  1   RLX: 0.769
       a = 15.000      CL =  1.1089
      Cm =  0.0229     CD =  0.06519   =>   CDf =  0.00358    CDp =  0.06161

 Side 1  free  transition at x/c =  0.0137   25
 Side 2 forced transition at x/c =  1.0000   67

   2   rms: 0.2072E-01   max: 0.1035E+00   D at   58  1
       a = 15.000      CL =  1.1006
      Cm =  0.0219     CD =  0.06665   =>   CDf =  0.00345    CDp =  0.06320

 Side 1  free  transition at x/c =  0.0138   25
 Side 2 forced transition at x/c =  1.0000   67

   3   rms: 0.3089E-02   max: 0.1546E-01   D at   80  2
       a = 15.000      CL =  1.0984
      Cm =  0.0221     CD =  0.06627   =>   CDf =  0.00341    CDp =  0.06286

 Side 1  free  transition at x/c =  0.0138   25
 Side 2 forced transition at x/c =  1.0000   67

   4   rms: 0.1477E-03   max: 0.1975E-02   D at   80  2
       a = 15.000      CL =  1.0983
      Cm =  0.0221     CD =  0.06621   =>   CDf =  0.00341    CDp =  0.06280

 Side 1  free  transition at x/c =  0.0138   25
 Side 2 forced transition at x/c =  1.0000   67

   5   rms: 0.1326E-04   max: -.4511E-04   D at   82  2
       a = 15.000      CL =  1.0983
      Cm =  0.0221     CD =  0.06621   =>   CDf =  0.00341    CDp =  0.06280
 plradd ia,ip,cpol           49           0  8.44911323E-04

 Point added to stored polar  1
 Point written to save file  rae100_Re600k.base.pol                          
 Dump file unspecified or not available
 Calculating wake trajectory ...
 Calculating source influence matrix ...

 Solving BL system ...

 Side 1  free  transition at x/c =  0.0138   25
 Side 2 forced transition at x/c =  1.0000   67

   1   rms: 0.5830E-01   max: 0.2222E+00   D at   54  1   RLX: 0.717
       a = 15.250      CL =  1.0912
      Cm =  0.0184     CD =  0.07217   =>   CDf =  0.00342    CDp =  0.06875

 Side 1  free  transition at x/c =  0.0137   25
 Side 2 forced transition at x/c =  1.0000   67

   2   rms: 0.2673E-01   max: 0.1227E+00   D at   55  1
       a = 15.250      CL =  1.0804
      Cm =  0.0170     CD =  0.07437   =>   CDf =  0.00328    CDp =  0.07109

 Side 1  free  transition at x/c =  0.0138   25
 Side 2 forced transition at x/c =  1.0000   67

   3   rms: 0.4472E-02   max: 0.2273E-01   D at   53  1
       a = 15.250      CL =  1.0771
      Cm =  0.0173     CD =  0.07380   =>   CDf =  0.00323    CDp =  0.07057

 Side 1  free  transition at x/c =  0.0138   25
 Side 2 forced transition at x/c =  1.0000   67

   4   rms: 0.1707E-03   max: -.1533E-02   C at   67  2
       a = 15.250      CL =  1.0770
      Cm =  0.0174     CD =  0.07371   =>   CDf =  0.00324    CDp =  0.07047

 Side 1  free  transition at x/c =  0.0138   25
 Side 2 forced transition at x/c =  1.0000   67

   5   rms: 0.2235E-04   max: -.8495E-04   D at   83  2
       a = 15.250      CL =  1.0770
      Cm =  0.0174     CD =  0.07371   =>   CDf =  0.00324    CDp =  0.07047
 plradd ia,ip,cpol           50           0  8.44911323E-04

 Point added to stored polar  1
 Point written to save file  rae100_Re600k.base.pol                          
 Dump file unspecified or not available
 Calculating wake trajectory ...
 Calculating source influence matrix ...

 Solving BL system ...

 Side 1  free  transition at x/c =  0.0138   25
 Side 2 forced transition at x/c =  1.0000   67

   1   rms: 0.5430E-01   max: 0.2129E+00   D at   51  1   RLX: 0.670
       a = 15.500      CL =  1.0709
      Cm =  0.0138     CD =  0.07952   =>   CDf =  0.00324    CDp =  0.07628

 Side 1  free  transition at x/c =  0.0138   25
 Side 2 forced transition at x/c =  1.0000   67

   2   rms: 0.2669E-01   max: 0.1199E+00   D at   52  1
       a = 15.500      CL =  1.0608
      Cm =  0.0122     CD =  0.08208   =>   CDf =  0.00314    CDp =  0.07894

 Side 1  free  transition at x/c =  0.0138   25
 Side 2 forced transition at x/c =  1.0000   67

   3   rms: 0.4675E-02   max: 0.2556E-01   D at   81  2
       a = 15.500      CL =  1.0574
      Cm =  0.0126     CD =  0.08128   =>   CDf =  0.00309    CDp =  0.07819

 Side 1  free  transition at x/c =  0.0138   25
 Side 2 forced transition at x/c =  1.0000   67

   4   rms: 0.1950E-03   max: 0.2736E-02   D at   81  2
       a = 15.500      CL =  1.0574
      Cm =  0.0126     CD =  0.08117   =>   CDf =  0.00310    CDp =  0.07807

 Side 1  free  transition at x/c =  0.0138   25
 Side 2 forced transition at x/c =  1.0000   67

   5   rms: 0.2949E-04   max: -.1172E-03   D at   82  2
       a = 15.500      CL =  1.0574
      Cm =  0.0126     CD =  0.08118   =>   CDf =  0.00310    CDp =  0.07808
 plradd ia,ip,cpol           51           0  8.44911323E-04

 Point added to stored polar  1
 Point written to save file  rae100_Re600k.base.pol                          
 Dump file unspecified or not available
 Calculating wake trajectory ...
 Calculating source influence matrix ...

 Solving BL system ...

 Side 1  free  transition at x/c =  0.0138   25
 Side 2 forced transition at x/c =  1.0000   67

   1   rms: 0.6339E-01   max: 0.2546E+00   D at   48  1   RLX: 0.625
       a = 15.750      CL =  1.0485
      Cm =  0.0086     CD =  0.08786   =>   CDf =  0.00310    CDp =  0.08476

 Side 1  free  transition at x/c =  0.0138   25
 Side 2 forced transition at x/c =  1.0000   67

   2   rms: 0.3335E-01   max: 0.1493E+00   D at   49  1
       a = 15.750      CL =  1.0356
      Cm =  0.0064     CD =  0.09149   =>   CDf =  0.00299    CDp =  0.08849

 Side 1  free  transition at x/c =  0.0138   25
 Side 2 forced transition at x/c =  1.0000   67

   3   rms: 0.5391E-02   max: 0.2604E-01   D at   82  2
       a = 15.750      CL =  1.0318
      Cm =  0.0068     CD =  0.09034   =>   CDf =  0.00293    CDp =  0.08741

 Side 1  free  transition at x/c =  0.0138   25
 Side 2 forced transition at x/c =  1.0000   67

   4   rms: 0.2366E-03   max: 0.1241E-02   D at   82  2
       a = 15.750      CL =  1.0318
      Cm =  0.0069     CD =  0.09016   =>   CDf =  0.00294    CDp =  0.08721

 Side 1  free  transition at x/c =  0.0138   25
 Side 2 forced transition at x/c =  1.0000   67

   5   rms: 0.4147E-04   max: -.1763E-03   D at   82  2
       a = 15.750      CL =  1.0318
      Cm =  0.0069     CD =  0.09017   =>   CDf =  0.00294    CDp =  0.08722
 plradd ia,ip,cpol           52           0  8.44911323E-04

 Point added to stored polar  1
 Point written to save file  rae100_Re600k.base.pol                          
 Dump file unspecified or not available
 Calculating wake trajectory ...
 Calculating source influence matrix ...

 Solving BL system ...

 Side 1  free  transition at x/c =  0.0138   25
 Side 2 forced transition at x/c =  1.0000   67

   1   rms: 0.6656E-01   max: 0.2736E+00   D at   45  1   RLX: 0.585
       a = 16.000      CL =  1.0228
      Cm =  0.0028     CD =  0.09733   =>   CDf =  0.00295    CDp =  0.09439

 Side 1  free  transition at x/c =  0.0138   25
 Side 2 forced transition at x/c =  1.0000   67

   2   rms: 0.3825E-01   max: 0.1661E+00   D at   46  1
       a = 16.000      CL =  1.0083
      Cm =  0.0000     CD =  0.10197   =>   CDf =  0.00285    CDp =  0.09911

 Side 1  free  transition at x/c =  0.0139   25
 Side 2 forced transition at x/c =  1.0000   67

   3   rms: 0.7079E-02   max: 0.4181E-01   D at   82  2
       a = 16.000      CL =  1.0037
      Cm =  0.0005     CD =  0.10045   =>   CDf =  0.00278    CDp =  0.09767

 Side 1  free  transition at x/c =  0.0139   25
 Side 2 forced transition at x/c =  1.0000   67

   4   rms: 0.3663E-03   max: -.1843E-02   D at   45  1
       a = 16.000      CL =  1.0037
      Cm =  0.0006     CD =  0.10019   =>   CDf =  0.00279    CDp =  0.09739

 Side 1  free  transition at x/c =  0.0139   25
 Side 2 forced transition at x/c =  1.0000   67

   5   rms: 0.6409E-04   max: -.2740E-03   D at   84  2
       a = 16.000      CL =  1.0037
      Cm =  0.0006     CD =  0.10020   =>   CDf =  0.00279    CDp =  0.09741
 plradd ia,ip,cpol           53           0  8.44911323E-04

 Point added to stored polar  1
 Point written to save file  rae100_Re600k.base.pol                          
 Dump file unspecified or not available

.OPERva   c>  
 Polar accumulation disabled

.OPERv   c>  
 XFOIL   c>  
 XFOIL   c>  