
 ===================================================
  XFOIL Version 6.99
  Copyright (C) 2000   Mark Drela, Harold Youngren

  This software comes with ABSOLUTELY NO WARRANTY,
    subject to the GNU General Public License.

  Caveat computor
 ===================================================

 File  xfoil.def  not found

   QUIT    Exit program

  .OPER    Direct operating point(s)
  .MDES    Complex mapping design routine
  .QDES    Surface speed design routine
  .GDES    Geometry design routine

   SAVE f  Write airfoil to labeled coordinate file
   PSAV f  Write airfoil to plain coordinate file
   ISAV f  Write airfoil to ISES coordinate file
   MSAV f  Write airfoil to MSES coordinate file
   REVE    Reverse written-airfoil node ordering

   LOAD f  Read buffer airfoil from coordinate file
   NACA i  Set NACA 4,5-digit airfoil and buffer airfoil
   INTE    Set buffer airfoil by interpolating two airfoils
   NORM    Buffer airfoil normalization toggle
   XYCM rr Change CM reference location, currently  0.25000 0.00000

   BEND    Display structural properties of current airfoil

   PCOP    Set current-airfoil panel nodes directly from buffer airfoil points
   PANE    Set current-airfoil panel nodes ( 160 ) based on curvature
  .PPAR    Show/change paneling

  .PLOP    Plotting options

   WDEF f  Write  current-settings file
   RDEF f  Reread current-settings file
   NAME s  Specify new airfoil name
   NINC    Increment name version number

   Z       Zoom    | (available in all menus)
   U       Unzoom  | 

 XFOIL   c>  
 Labeled airfoil file.  Name:  RAE 104 AIRFOIL                                 

 Number of input coordinate points: 171
 Counterclockwise ordering
 Max thickness =     0.100000  at x =   0.420
 Max camber    =    -0.000000  at x =   0.008

  LE  x,y  =   0.00000   0.00000  |   Chord =   1.00000
  TE  x,y  =   1.00000   0.00000  |

 Current airfoil nodes set from buffer airfoil nodes ( 171 )

 XFOIL   c>  
 XFOIL   c>  
 Sharp trailing edge

 Paneling parameters used...
   Number of panel nodes       160
   Panel bunching parameter    1.000
   TE/LE panel density ratio   0.150
   Refined-area/LE panel density ratio    0.200
   Top    side refined area x/c limits  1.000 1.000
   Bottom side refined area x/c limits  1.000 1.000

 XFOIL   c>  
.OPERi   c>  
 Xtr/c     =  1.0000    top    side
 Xtr/c     =  1.0000    bottom side
 Ncrit     =    9.00   ( 0.070 % turb. level )
 Vacc      =  0.0100

 Klag  =  5.6000     Uxwt  =    1.00
 A     =  6.7000     B     =  0.7500       KCt = 0.01485
 CtiniK=  1.8000     CtiniX=  3.3000

..VPAR   c>  
..VPAR   c>  
.OPERi   c>  
 M  =    0.0000
 Re =    500000

.OPERv   c>  
.OPERv   c>  
.OPERv   c>  
 Polar  1 newly created for accumulation
 Airfoil archived with polar: RAE 104 AIRFOIL                                 

Enter  polar save filename  OR  <return> for no file   s>  
 New polar save file available

Enter  polar dump filename  OR  <return> for no file   s>  
 Polar dump file will NOT be written

 Polar accumulation enabled

.OPERva   c>   Calculating unit vorticity distributions ...
 Calculating wake trajectory ...
 Calculating source influence matrix ...

 Solving BL system ...

 Initializing BL ...
    side            1  ...
 MRCHUE: Inverse mode at  56     Hk =   4.233
 MRCHUE: Inverse mode at  57     Hk =   4.784
 MRCHUE: Inverse mode at  58     Hk =   5.326
 MRCHUE: Inverse mode at  59     Hk =   5.861
 MRCHUE: Inverse mode at  60     Hk =   6.389
 MRCHUE: Inverse mode at  61     Hk =   6.913
 MRCHUE: Inverse mode at  62     Hk =   7.433
 MRCHUE: Inverse mode at  63     Hk =   7.949
 MRCHUE: Inverse mode at  64     Hk =   8.462
 MRCHUE: Inverse mode at  65     Hk =   8.972
 MRCHUE: Inverse mode at  66     Hk =   9.479
 MRCHUE: Inverse mode at  67     Hk =   7.294
 MRCHUE: Inverse mode at  68     Hk =   5.736
 MRCHUE: Inverse mode at  69     Hk =   4.635
 MRCHUE: Inverse mode at  70     Hk =   3.783
 MRCHUE: Inverse mode at  71     Hk =   3.092
    side            2  ...
 MRCHUE: Inverse mode at  13     Hk =   4.909
 MRCHUE: Inverse mode at  14     Hk =   6.614
 MRCHUE: Inverse mode at  15     Hk =   8.517
 MRCHUE: Inverse mode at  16     Hk =   7.606
 MRCHUE: Inverse mode at  17     Hk =   2.500
 MRCHUE: Inverse mode at  84     Hk =   2.500
 MRCHUE: Inverse mode at  85     Hk =   2.500

 Side 1  free  transition at x/c =  0.8576   67
 Side 2  free  transition at x/c =  0.0418   16

   1   rms: 0.1956E+00   max: -.1658E+01   T at   67  1   RLX: 0.302
       a = -4.000      CL = -0.4490
      Cm =  0.0020     CD =  0.00999   =>   CDf =  0.00691    CDp =  0.00308

 Side 1  free  transition at x/c =  0.8684   67
 Side 2  free  transition at x/c =  0.0492   17

   2   rms: 0.2414E+00   max: -.2704E+01   T at   67  1   RLX: 0.185
       a = -4.000      CL = -0.4449
      Cm =  0.0022     CD =  0.01102   =>   CDf =  0.00692    CDp =  0.00410

 Side 1  free  transition at x/c =  0.8830   68
 Side 2  free  transition at x/c =  0.0540   17

   3   rms: 0.1588E+00   max: -.1436E+01   T at   68  1   RLX: 0.348
       a = -4.000      CL = -0.4175
      Cm = -0.0048     CD =  0.00962   =>   CDf =  0.00696    CDp =  0.00266

 MRCHDU: Convergence failed at  70  side 1    Res =  0.9262E+01
 MRCHDU: Convergence failed at  71  side 1    Res =  0.9309E+01
 Side 1  free  transition at x/c =  0.9068   70
 Side 2  free  transition at x/c =  0.0707   19

   4   rms: 0.2377E+00   max: -.2427E+01   C at   19  2   RLX: 0.206
       a = -4.000      CL = -0.3991
      Cm = -0.0117     CD =  0.00868   =>   CDf =  0.00671    CDp =  0.00197

 Side 1  free  transition at x/c =  0.9155   71
 Side 2  free  transition at x/c =  0.1049   21

   5   rms: 0.2827E+00   max: -.6424E+01   C at   21  2   RLX: 0.078
       a = -4.000      CL = -0.4011
      Cm = -0.0106     CD =  0.00885   =>   CDf =  0.00665    CDp =  0.00220

 Side 1  free  transition at x/c =  0.9184   71
 Side 2  free  transition at x/c =  0.1070   21

   6   rms: 0.9636E-01   max: -.1121E+01   C at   21  2   RLX: 0.446
       a = -4.000      CL = -0.3903
      Cm = -0.0119     CD =  0.00898   =>   CDf =  0.00663    CDp =  0.00235

 Side 1  free  transition at x/c =  0.9403   72
 Side 2  free  transition at x/c =  0.1609   25

   7   rms: 0.2549E+00   max: -.5665E+01   C at   25  2   RLX: 0.088
       a = -4.000      CL = -0.3903
      Cm = -0.0125     CD =  0.00876   =>   CDf =  0.00620    CDp =  0.00255

 Side 1  free  transition at x/c =  0.9418   73
 Side 2  free  transition at x/c =  0.1641   26

   8   rms: 0.8861E-01   max: -.1597E+01   C at   26  2   RLX: 0.313
       a = -4.000      CL = -0.3926
      Cm = -0.0116     CD =  0.00883   =>   CDf =  0.00620    CDp =  0.00263

 Side 1  free  transition at x/c =  0.9437   73
 Side 2  free  transition at x/c =  0.1801   27

   9   rms: 0.9481E-01   max: -.2005E+01   C at   27  2   RLX: 0.249
       a = -4.000      CL = -0.3939
      Cm = -0.0113     CD =  0.00882   =>   CDf =  0.00607    CDp =  0.00275

 Side 1  free  transition at x/c =  0.9443   73
 Side 2  free  transition at x/c =  0.1905   27

  10   rms: 0.6668E-01   max: -.1418E+01   C at   27  2   RLX: 0.353
       a = -4.000      CL = -0.3946
      Cm = -0.0110     CD =  0.00888   =>   CDf =  0.00602    CDp =  0.00286

 Side 1  free  transition at x/c =  0.9449   73
 Side 2  free  transition at x/c =  0.2029   28

  11   rms: 0.3310E-01   max: -.6820E+00   C at   28  2   RLX: 0.733
       a = -4.000      CL = -0.3954
      Cm = -0.0108     CD =  0.00893   =>   CDf =  0.00596    CDp =  0.00297

 Side 1  free  transition at x/c =  0.9459   73
 Side 2  free  transition at x/c =  0.2158   29

  12   rms: 0.7124E-02   max: -.1396E+00   C at   29  2
       a = -4.000      CL = -0.3953
      Cm = -0.0108     CD =  0.00895   =>   CDf =  0.00589    CDp =  0.00306

 Side 1  free  transition at x/c =  0.9464   73
 Side 2  free  transition at x/c =  0.2193   29

  13   rms: 0.6254E-03   max: -.1333E-01   C at   29  2
       a = -4.000      CL = -0.3952
      Cm = -0.0108     CD =  0.00895   =>   CDf =  0.00588    CDp =  0.00307

 Side 1  free  transition at x/c =  0.9464   73
 Side 2  free  transition at x/c =  0.2195   29

  14   rms: 0.2789E-05   max: 0.2702E-04   C at   29  2
       a = -4.000      CL = -0.3952
      Cm = -0.0108     CD =  0.00895   =>   CDf =  0.00588    CDp =  0.00307
 plradd ia,ip,cpol            1           0  2.73196097E-03

 Point added to stored polar  1
 Point written to save file  rae104_Re500k.base.pol                          
 Dump file unspecified or not available
 Calculating wake trajectory ...
 Calculating source influence matrix ...

 Solving BL system ...

 Side 1  free  transition at x/c =  0.9464   73
 Side 2  free  transition at x/c =  0.2195   29

   1   rms: 0.4619E+00   max: -.9710E+01   C at   29  2   RLX: 0.051
       a = -3.500      CL = -0.3925
      Cm = -0.0108     CD =  0.00887   =>   CDf =  0.00588    CDp =  0.00299

 Side 1  free  transition at x/c =  0.9457   73
 Side 2  free  transition at x/c =  0.2335   30

   2   rms: 0.3985E+00   max: -.8276E+01   C at   30  2   RLX: 0.060
       a = -3.500      CL = -0.3894
      Cm = -0.0109     CD =  0.00877   =>   CDf =  0.00582    CDp =  0.00295

 Side 1  free  transition at x/c =  0.9449   73
 Side 2  free  transition at x/c =  0.2520   32

   3   rms: 0.4427E+00   max: -.9026E+01   C at   32  2   RLX: 0.055
       a = -3.500      CL = -0.3874
      Cm = -0.0109     CD =  0.00862   =>   CDf =  0.00574    CDp =  0.00288

 Side 1  free  transition at x/c =  0.9441   73
 Side 2  free  transition at x/c =  0.2627   33

   4   rms: 0.3785E+00   max: -.7327E+01   C at   33  2   RLX: 0.068
       a = -3.500      CL = -0.3844
      Cm = -0.0109     CD =  0.00853   =>   CDf =  0.00571    CDp =  0.00282

 Side 1  free  transition at x/c =  0.9433   73
 Side 2  free  transition at x/c =  0.2747   33

   5   rms: 0.3794E+00   max: -.7782E+01   C at   33  2   RLX: 0.064
       a = -3.500      CL = -0.3814
      Cm = -0.0109     CD =  0.00848   =>   CDf =  0.00566    CDp =  0.00283

 Side 1  free  transition at x/c =  0.9427   73
 Side 2  free  transition at x/c =  0.2882   34

   6   rms: 0.4130E+00   max: -.8441E+01   C at   34  2   RLX: 0.059
       a = -3.500      CL = -0.3792
      Cm = -0.0109     CD =  0.00838   =>   CDf =  0.00560    CDp =  0.00279

 Side 1  free  transition at x/c =  0.9421   73
 Side 2  free  transition at x/c =  0.3007   35

   7   rms: 0.4042E+00   max: -.8233E+01   C at   35  2   RLX: 0.061
       a = -3.500      CL = -0.3771
      Cm = -0.0109     CD =  0.00829   =>   CDf =  0.00554    CDp =  0.00275

 Side 1  free  transition at x/c =  0.9416   73
 Side 2  free  transition at x/c =  0.3138   36

   8   rms: 0.3688E+00   max: -.7473E+01   C at   36  2   RLX: 0.067
       a = -3.500      CL = -0.3750
      Cm = -0.0109     CD =  0.00820   =>   CDf =  0.00549    CDp =  0.00271

 Side 1  free  transition at x/c =  0.9411   72
 Side 2  free  transition at x/c =  0.3287   37

   9   rms: 0.2729E+00   max: -.5479E+01   C at   37  2   RLX: 0.091
       a = -3.500      CL = -0.3736
      Cm = -0.0106     CD =  0.00811   =>   CDf =  0.00543    CDp =  0.00268

 Side 1  free  transition at x/c =  0.9393   72
 Side 2  free  transition at x/c =  0.3453   38

  10   rms: 0.2513E+00   max: -.4985E+01   C at   38  2   RLX: 0.100
       a = -3.500      CL = -0.3720
      Cm = -0.0104     CD =  0.00801   =>   CDf =  0.00537    CDp =  0.00265

 Side 1  free  transition at x/c =  0.9378   72
 Side 2  free  transition at x/c =  0.3648   40

  11   rms: 0.2495E+00   max: -.4926E+01   C at   40  2   RLX: 0.102
       a = -3.500      CL = -0.3710
      Cm = -0.0101     CD =  0.00787   =>   CDf =  0.00528    CDp =  0.00259

 Side 1  free  transition at x/c =  0.9364   72
 Side 2  free  transition at x/c =  0.3772   41

  12   rms: 0.2141E+00   max: -.4183E+01   C at   41  2   RLX: 0.120
       a = -3.500      CL = -0.3693
      Cm = -0.0099     CD =  0.00779   =>   CDf =  0.00524    CDp =  0.00255

 Side 1  free  transition at x/c =  0.9351   72
 Side 2  free  transition at x/c =  0.3896   42

  13   rms: 0.1934E+00   max: -.3732E+01   C at   42  2   RLX: 0.134
       a = -3.500      CL = -0.3676
      Cm = -0.0097     CD =  0.00771   =>   CDf =  0.00519    CDp =  0.00251

 Side 1  free  transition at x/c =  0.9338   72
 Side 2  free  transition at x/c =  0.4025   42

  14   rms: 0.1928E+00   max: -.3742E+01   C at   42  2   RLX: 0.134
       a = -3.500      CL = -0.3658
      Cm = -0.0096     CD =  0.00765   =>   CDf =  0.00514    CDp =  0.00251

 Side 1  free  transition at x/c =  0.9329   72
 Side 2  free  transition at x/c =  0.4174   43

  15   rms: 0.1814E+00   max: -.3487E+01   C at   43  2   RLX: 0.143
       a = -3.500      CL = -0.3645
      Cm = -0.0094     CD =  0.00756   =>   CDf =  0.00508    CDp =  0.00248

 Side 1  free  transition at x/c =  0.9321   72
 Side 2  free  transition at x/c =  0.4324   45

  16   rms: 0.1455E+00   max: -.2810E+01   C at   45  2   RLX: 0.178
       a = -3.500      CL = -0.3634
      Cm = -0.0092     CD =  0.00744   =>   CDf =  0.00502    CDp =  0.00242

 Side 1  free  transition at x/c =  0.9312   72
 Side 2  free  transition at x/c =  0.4454   45

  17   rms: 0.1239E+00   max: -.2365E+01   C at   45  2   RLX: 0.211
       a = -3.500      CL = -0.3616
      Cm = -0.0091     CD =  0.00739   =>   CDf =  0.00497    CDp =  0.00242

 Side 1  free  transition at x/c =  0.9305   72
 Side 2  free  transition at x/c =  0.4625   47

  18   rms: 0.9698E-01   max: -.1867E+01   C at   47  2   RLX: 0.268
       a = -3.500      CL = -0.3607
      Cm = -0.0089     CD =  0.00726   =>   CDf =  0.00490    CDp =  0.00236

 Side 1  free  transition at x/c =  0.9297   72
 Side 2  free  transition at x/c =  0.4755   48

  19   rms: 0.7254E-01   max: -.1388E+01   C at   48  2   RLX: 0.360
       a = -3.500      CL = -0.3594
      Cm = -0.0087     CD =  0.00718   =>   CDf =  0.00485    CDp =  0.00233

 Side 1  free  transition at x/c =  0.9290   72
 Side 2  free  transition at x/c =  0.4889   49

  20   rms: 0.5247E-01   max: -.9987E+00   C at   49  2   RLX: 0.501
       a = -3.500      CL = -0.3584
      Cm = -0.0085     CD =  0.00710   =>   CDf =  0.00480    CDp =  0.00230

 Side 1  free  transition at x/c =  0.9284   72
 Side 2  free  transition at x/c =  0.5026   49

  21   rms: 0.3394E-01   max: -.6384E+00   C at   49  2   RLX: 0.783
       a = -3.500      CL = -0.3574
      Cm = -0.0084     CD =  0.00705   =>   CDf =  0.00475    CDp =  0.00230

 Side 1  free  transition at x/c =  0.9281   72
 Side 2  free  transition at x/c =  0.5208   51

  22   rms: 0.4331E-02   max: -.8018E-01   C at   51  2
       a = -3.500      CL = -0.3576
      Cm = -0.0082     CD =  0.00701   =>   CDf =  0.00466    CDp =  0.00234

 Side 1  free  transition at x/c =  0.9279   72
 Side 2  free  transition at x/c =  0.5238   51

  23   rms: 0.4164E-03   max: -.7946E-02   C at   51  2
       a = -3.500      CL = -0.3575
      Cm = -0.0083     CD =  0.00701   =>   CDf =  0.00466    CDp =  0.00235

 Side 1  free  transition at x/c =  0.9279   72
 Side 2  free  transition at x/c =  0.5240   51

  24   rms: 0.8969E-06   max: 0.6549E-05   D at   72  1
       a = -3.500      CL = -0.3575
      Cm = -0.0083     CD =  0.00701   =>   CDf =  0.00465    CDp =  0.00235
 plradd ia,ip,cpol            2           0  2.73196097E-03

 Point added to stored polar  1
 Point written to save file  rae104_Re500k.base.pol                          
 Dump file unspecified or not available
 Calculating wake trajectory ...
 Calculating source influence matrix ...

 Solving BL system ...

 Side 1  free  transition at x/c =  0.9279   72
 Side 2  free  transition at x/c =  0.5240   51

   1   rms: 0.5216E+00   max: -.9826E+01   C at   51  2   RLX: 0.051
       a = -3.000      CL = -0.3558
      Cm = -0.0080     CD =  0.00692   =>   CDf =  0.00465    CDp =  0.00226

 Side 1  free  transition at x/c =  0.9272   71
 Side 2  free  transition at x/c =  0.5406   52

   2   rms: 0.4103E+00   max: -.7633E+01   C at   52  2   RLX: 0.066
       a = -3.000      CL = -0.3544
      Cm = -0.0076     CD =  0.00684   =>   CDf =  0.00459    CDp =  0.00225

 Side 1  free  transition at x/c =  0.9254   71
 Side 2  free  transition at x/c =  0.5596   54

   3   rms: 0.3834E+00   max: -.7132E+01   C at   54  2   RLX: 0.070
       a = -3.000      CL = -0.3534
      Cm = -0.0071     CD =  0.00674   =>   CDf =  0.00451    CDp =  0.00223

 Side 1  free  transition at x/c =  0.9237   71
 Side 2  free  transition at x/c =  0.5732   54

   4   rms: 0.3377E+00   max: -.6151E+01   C at   54  2   RLX: 0.081
       a = -3.000      CL = -0.3510
      Cm = -0.0069     CD =  0.00670   =>   CDf =  0.00446    CDp =  0.00225

 Side 1  free  transition at x/c =  0.9221   71
 Side 2  free  transition at x/c =  0.5942   56

   5   rms: 0.2788E+00   max: -.5068E+01   C at   56  2   RLX: 0.099
       a = -3.000      CL = -0.3490
      Cm = -0.0064     CD =  0.00662   =>   CDf =  0.00436    CDp =  0.00226

 Side 1  free  transition at x/c =  0.9205   71
 Side 2  free  transition at x/c =  0.6129   57

   6   rms: 0.1136E+00   max: -.1683E+01   C at   57  2   RLX: 0.297
       a = -3.000      CL = -0.3395
      Cm = -0.0060     CD =  0.00658   =>   CDf =  0.00442    CDp =  0.00216

 Side 1  free  transition at x/c =  0.9170   72
 Side 2  free  transition at x/c =  0.6673   60

   7   rms: 0.9344E-01   max: -.1203E+01   T at    2  1   RLX: 0.415
       a = -3.000      CL = -0.3326
      Cm = -0.0044     CD =  0.00647   =>   CDf =  0.00414    CDp =  0.00233

 Side 1  free  transition at x/c =  0.9143   72
 Side 2  free  transition at x/c =  0.6816   61

   8   rms: 0.2984E-01   max: 0.1231E+00   D at   60  2
       a = -3.000      CL = -0.3151
      Cm = -0.0053     CD =  0.00648   =>   CDf =  0.00414    CDp =  0.00234

 Side 1  free  transition at x/c =  0.9117   71
 Side 2  free  transition at x/c =  0.6923   62

   9   rms: 0.5240E-02   max: 0.7138E-01   C at   62  2
       a = -3.000      CL = -0.3158
      Cm = -0.0051     CD =  0.00646   =>   CDf =  0.00416    CDp =  0.00230

 Side 1  free  transition at x/c =  0.9108   71
 Side 2  free  transition at x/c =  0.6895   62

  10   rms: 0.2660E-03   max: -.3828E-02   C at   62  2
       a = -3.000      CL = -0.3158
      Cm = -0.0051     CD =  0.00646   =>   CDf =  0.00418    CDp =  0.00228

 Side 1  free  transition at x/c =  0.9108   71
 Side 2  free  transition at x/c =  0.6896   62

  11   rms: 0.1021E-05   max: 0.7932E-05   D at   65  2
       a = -3.000      CL = -0.3158
      Cm = -0.0051     CD =  0.00646   =>   CDf =  0.00418    CDp =  0.00228
 plradd ia,ip,cpol            3           0  4.66079824E-03

 Point added to stored polar  1
 Point written to save file  rae104_Re500k.base.pol                          
 Dump file unspecified or not available
 Calculating wake trajectory ...
 Calculating source influence matrix ...

 Solving BL system ...

 Side 1  free  transition at x/c =  0.9108   71
 Side 2  free  transition at x/c =  0.6896   62

   1   rms: 0.1117E+00   max: -.8355E+00   C at   62  2   RLX: 0.598
       a = -2.500      CL = -0.2881
      Cm = -0.0037     CD =  0.00639   =>   CDf =  0.00418    CDp =  0.00221

 Side 1  free  transition at x/c =  0.8994   71
 Side 2  free  transition at x/c =  0.7111   63

   2   rms: 0.4626E-01   max: -.3267E+00   T at   63  2
       a = -2.500      CL = -0.2649
      Cm = -0.0039     CD =  0.00661   =>   CDf =  0.00432    CDp =  0.00230

 Side 1  free  transition at x/c =  0.8973   70
 Side 2  free  transition at x/c =  0.7396   65

   3   rms: 0.1136E-01   max: -.1562E+00   C at   65  2
       a = -2.500      CL = -0.2644
      Cm = -0.0039     CD =  0.00642   =>   CDf =  0.00423    CDp =  0.00219

 Side 1  free  transition at x/c =  0.8969   70
 Side 2  free  transition at x/c =  0.7347   65

   4   rms: 0.2129E-02   max: -.2444E-01   C at   65  2
       a = -2.500      CL = -0.2647
      Cm = -0.0039     CD =  0.00643   =>   CDf =  0.00420    CDp =  0.00223

 Side 1  free  transition at x/c =  0.8968   70
 Side 2  free  transition at x/c =  0.7353   65

   5   rms: 0.4003E-04   max: -.6943E-03   D at   67  2
       a = -2.500      CL = -0.2647
      Cm = -0.0039     CD =  0.00643   =>   CDf =  0.00419    CDp =  0.00224
 plradd ia,ip,cpol            4           0  4.66079824E-03

 Point added to stored polar  1
 Point written to save file  rae104_Re500k.base.pol                          
 Dump file unspecified or not available
 Calculating wake trajectory ...
 Calculating source influence matrix ...

 Solving BL system ...

 Side 1  free  transition at x/c =  0.8968   70
 Side 2  free  transition at x/c =  0.7353   65

   1   rms: 0.9090E-01   max: -.3629E+00   T at   65  2
       a = -2.000      CL = -0.2152
      Cm = -0.0024     CD =  0.00645   =>   CDf =  0.00428    CDp =  0.00217

 Side 1  free  transition at x/c =  0.8816   70
 Side 2  free  transition at x/c =  0.7612   66

   2   rms: 0.1831E-01   max: 0.1715E+00   D at   66  2
       a = -2.000      CL = -0.2120
      Cm = -0.0029     CD =  0.00644   =>   CDf =  0.00429    CDp =  0.00215

 SETBL: Xtr???  n1 n2:    8.4223404       8.9999924    
 Side 1  free  transition at x/c =  0.8816   70
 Side 2  free  transition at x/c =  0.7648   66

   3   rms: 0.1050E-01   max: 0.1282E+00   C at   70  1
       a = -2.000      CL = -0.2095
      Cm = -0.0035     CD =  0.00646   =>   CDf =  0.00428    CDp =  0.00218

 Side 1  free  transition at x/c =  0.8842   70
 Side 2  free  transition at x/c =  0.7660   66

   4   rms: 0.7846E-02   max: -.1461E+00   D at   71  1
       a = -2.000      CL = -0.2124
      Cm = -0.0029     CD =  0.00646   =>   CDf =  0.00425    CDp =  0.00221

 Side 1  free  transition at x/c =  0.8844   70
 Side 2  free  transition at x/c =  0.7656   66

   5   rms: 0.5655E-02   max: -.8471E-01   C at   70  1
       a = -2.000      CL = -0.2122
      Cm = -0.0029     CD =  0.00646   =>   CDf =  0.00427    CDp =  0.00219

 Side 1  free  transition at x/c =  0.8844   70
 Side 2  free  transition at x/c =  0.7657   66

   6   rms: 0.5818E-02   max: -.8542E-01   C at   70  1
       a = -2.000      CL = -0.2122
      Cm = -0.0029     CD =  0.00646   =>   CDf =  0.00427    CDp =  0.00219

 Side 1  free  transition at x/c =  0.8844   70
 Side 2  free  transition at x/c =  0.7657   66

   7   rms: 0.5867E-02   max: -.8540E-01   C at   70  1
       a = -2.000      CL = -0.2122
      Cm = -0.0029     CD =  0.00646   =>   CDf =  0.00427    CDp =  0.00219

 Side 1  free  transition at x/c =  0.8844   70
 Side 2  free  transition at x/c =  0.7657   66

   8   rms: 0.5858E-02   max: -.8541E-01   C at   70  1
       a = -2.000      CL = -0.2122
      Cm = -0.0029     CD =  0.00646   =>   CDf =  0.00427    CDp =  0.00219

 Side 1  free  transition at x/c =  0.8844   70
 Side 2  free  transition at x/c =  0.7657   66

   9   rms: 0.5860E-02   max: -.8541E-01   C at   70  1
       a = -2.000      CL = -0.2122
      Cm = -0.0029     CD =  0.00646   =>   CDf =  0.00427    CDp =  0.00219

 Side 1  free  transition at x/c =  0.8844   70
 Side 2  free  transition at x/c =  0.7657   66

  10   rms: 0.5860E-02   max: -.8541E-01   C at   70  1
       a = -2.000      CL = -0.2122
      Cm = -0.0029     CD =  0.00646   =>   CDf =  0.00427    CDp =  0.00219

 Side 1  free  transition at x/c =  0.8844   70
 Side 2  free  transition at x/c =  0.7657   66

  11   rms: 0.5860E-02   max: -.8540E-01   C at   70  1
       a = -2.000      CL = -0.2122
      Cm = -0.0029     CD =  0.00646   =>   CDf =  0.00427    CDp =  0.00219

 Side 1  free  transition at x/c =  0.8844   70
 Side 2  free  transition at x/c =  0.7657   66

  12   rms: 0.5859E-02   max: -.8541E-01   C at   70  1
       a = -2.000      CL = -0.2122
      Cm = -0.0029     CD =  0.00646   =>   CDf =  0.00427    CDp =  0.00219

 Side 1  free  transition at x/c =  0.8844   70
 Side 2  free  transition at x/c =  0.7657   66

  13   rms: 0.5860E-02   max: -.8541E-01   C at   70  1
       a = -2.000      CL = -0.2122
      Cm = -0.0029     CD =  0.00646   =>   CDf =  0.00427    CDp =  0.00219

 Side 1  free  transition at x/c =  0.8844   70
 Side 2  free  transition at x/c =  0.7657   66

  14   rms: 0.5860E-02   max: -.8541E-01   C at   70  1
       a = -2.000      CL = -0.2122
      Cm = -0.0029     CD =  0.00646   =>   CDf =  0.00427    CDp =  0.00219

 Side 1  free  transition at x/c =  0.8844   70
 Side 2  free  transition at x/c =  0.7657   66

  15   rms: 0.5860E-02   max: -.8541E-01   C at   70  1
       a = -2.000      CL = -0.2122
      Cm = -0.0029     CD =  0.00646   =>   CDf =  0.00427    CDp =  0.00219

 Side 1  free  transition at x/c =  0.8844   70
 Side 2  free  transition at x/c =  0.7657   66

  16   rms: 0.5860E-02   max: -.8541E-01   C at   70  1
       a = -2.000      CL = -0.2122
      Cm = -0.0029     CD =  0.00646   =>   CDf =  0.00427    CDp =  0.00219

 Side 1  free  transition at x/c =  0.8844   70
 Side 2  free  transition at x/c =  0.7657   66

  17   rms: 0.5860E-02   max: -.8541E-01   C at   70  1
       a = -2.000      CL = -0.2122
      Cm = -0.0029     CD =  0.00646   =>   CDf =  0.00427    CDp =  0.00219

 Side 1  free  transition at x/c =  0.8844   70
 Side 2  free  transition at x/c =  0.7657   66

  18   rms: 0.5860E-02   max: -.8541E-01   C at   70  1
       a = -2.000      CL = -0.2122
      Cm = -0.0029     CD =  0.00646   =>   CDf =  0.00427    CDp =  0.00219

 Side 1  free  transition at x/c =  0.8844   70
 Side 2  free  transition at x/c =  0.7657   66

  19   rms: 0.5860E-02   max: -.8541E-01   C at   70  1
       a = -2.000      CL = -0.2122
      Cm = -0.0029     CD =  0.00646   =>   CDf =  0.00427    CDp =  0.00219

 Side 1  free  transition at x/c =  0.8844   70
 Side 2  free  transition at x/c =  0.7657   66

  20   rms: 0.5860E-02   max: -.8541E-01   C at   70  1
       a = -2.000      CL = -0.2122
      Cm = -0.0029     CD =  0.00646   =>   CDf =  0.00427    CDp =  0.00219

 Side 1  free  transition at x/c =  0.8844   70
 Side 2  free  transition at x/c =  0.7657   66

  21   rms: 0.5860E-02   max: -.8541E-01   C at   70  1
       a = -2.000      CL = -0.2122
      Cm = -0.0029     CD =  0.00646   =>   CDf =  0.00427    CDp =  0.00219

 Side 1  free  transition at x/c =  0.8844   70
 Side 2  free  transition at x/c =  0.7657   66

  22   rms: 0.5860E-02   max: -.8541E-01   C at   70  1
       a = -2.000      CL = -0.2122
      Cm = -0.0029     CD =  0.00646   =>   CDf =  0.00427    CDp =  0.00219

 Side 1  free  transition at x/c =  0.8844   70
 Side 2  free  transition at x/c =  0.7657   66

  23   rms: 0.5860E-02   max: -.8540E-01   C at   70  1
       a = -2.000      CL = -0.2122
      Cm = -0.0029     CD =  0.00646   =>   CDf =  0.00427    CDp =  0.00219

 Side 1  free  transition at x/c =  0.8844   70
 Side 2  free  transition at x/c =  0.7657   66

  24   rms: 0.5860E-02   max: -.8541E-01   C at   70  1
       a = -2.000      CL = -0.2122
      Cm = -0.0029     CD =  0.00646   =>   CDf =  0.00427    CDp =  0.00219

 Side 1  free  transition at x/c =  0.8844   70
 Side 2  free  transition at x/c =  0.7657   66

  25   rms: 0.5860E-02   max: -.8540E-01   C at   70  1
       a = -2.000      CL = -0.2122
      Cm = -0.0029     CD =  0.00646   =>   CDf =  0.00427    CDp =  0.00219

 Side 1  free  transition at x/c =  0.8844   70
 Side 2  free  transition at x/c =  0.7657   66

  26   rms: 0.5859E-02   max: -.8541E-01   C at   70  1
       a = -2.000      CL = -0.2122
      Cm = -0.0029     CD =  0.00646   =>   CDf =  0.00427    CDp =  0.00219

 Side 1  free  transition at x/c =  0.8844   70
 Side 2  free  transition at x/c =  0.7657   66

  27   rms: 0.5860E-02   max: -.8541E-01   C at   70  1
       a = -2.000      CL = -0.2122
      Cm = -0.0029     CD =  0.00646   =>   CDf =  0.00427    CDp =  0.00219

 Side 1  free  transition at x/c =  0.8844   70
 Side 2  free  transition at x/c =  0.7657   66

  28   rms: 0.5860E-02   max: -.8541E-01   C at   70  1
       a = -2.000      CL = -0.2122
      Cm = -0.0029     CD =  0.00646   =>   CDf =  0.00427    CDp =  0.00219

 Side 1  free  transition at x/c =  0.8844   70
 Side 2  free  transition at x/c =  0.7657   66

  29   rms: 0.5860E-02   max: -.8540E-01   C at   70  1
       a = -2.000      CL = -0.2122
      Cm = -0.0029     CD =  0.00646   =>   CDf =  0.00427    CDp =  0.00219

 Side 1  free  transition at x/c =  0.8844   70
 Side 2  free  transition at x/c =  0.7657   66

  30   rms: 0.5860E-02   max: -.8541E-01   C at   70  1
       a = -2.000      CL = -0.2122
      Cm = -0.0029     CD =  0.00646   =>   CDf =  0.00427    CDp =  0.00219

 Side 1  free  transition at x/c =  0.8844   70
 Side 2  free  transition at x/c =  0.7657   66

  31   rms: 0.5860E-02   max: -.8540E-01   C at   70  1
       a = -2.000      CL = -0.2122
      Cm = -0.0029     CD =  0.00646   =>   CDf =  0.00427    CDp =  0.00219

 Side 1  free  transition at x/c =  0.8844   70
 Side 2  free  transition at x/c =  0.7657   66

  32   rms: 0.5859E-02   max: -.8540E-01   C at   70  1
       a = -2.000      CL = -0.2122
      Cm = -0.0029     CD =  0.00646   =>   CDf =  0.00427    CDp =  0.00219

 Side 1  free  transition at x/c =  0.8844   70
 Side 2  free  transition at x/c =  0.7657   66

  33   rms: 0.5860E-02   max: -.8541E-01   C at   70  1
       a = -2.000      CL = -0.2122
      Cm = -0.0029     CD =  0.00646   =>   CDf =  0.00427    CDp =  0.00219

 Side 1  free  transition at x/c =  0.8844   70
 Side 2  free  transition at x/c =  0.7657   66

  34   rms: 0.5860E-02   max: -.8541E-01   C at   70  1
       a = -2.000      CL = -0.2122
      Cm = -0.0029     CD =  0.00646   =>   CDf =  0.00427    CDp =  0.00219

 Side 1  free  transition at x/c =  0.8844   70
 Side 2  free  transition at x/c =  0.7657   66

  35   rms: 0.5859E-02   max: -.8540E-01   C at   70  1
       a = -2.000      CL = -0.2122
      Cm = -0.0029     CD =  0.00646   =>   CDf =  0.00427    CDp =  0.00219

 Side 1  free  transition at x/c =  0.8844   70
 Side 2  free  transition at x/c =  0.7657   66

  36   rms: 0.5860E-02   max: -.8541E-01   C at   70  1
       a = -2.000      CL = -0.2122
      Cm = -0.0029     CD =  0.00646   =>   CDf =  0.00427    CDp =  0.00219

 Side 1  free  transition at x/c =  0.8844   70
 Side 2  free  transition at x/c =  0.7657   66

  37   rms: 0.5860E-02   max: -.8540E-01   C at   70  1
       a = -2.000      CL = -0.2122
      Cm = -0.0029     CD =  0.00646   =>   CDf =  0.00427    CDp =  0.00219

 Side 1  free  transition at x/c =  0.8844   70
 Side 2  free  transition at x/c =  0.7657   66

  38   rms: 0.5859E-02   max: -.8540E-01   C at   70  1
       a = -2.000      CL = -0.2122
      Cm = -0.0029     CD =  0.00646   =>   CDf =  0.00427    CDp =  0.00219

 Side 1  free  transition at x/c =  0.8844   70
 Side 2  free  transition at x/c =  0.7657   66

  39   rms: 0.5859E-02   max: -.8540E-01   C at   70  1
       a = -2.000      CL = -0.2122
      Cm = -0.0029     CD =  0.00646   =>   CDf =  0.00427    CDp =  0.00219

 Side 1  free  transition at x/c =  0.8844   70
 Side 2  free  transition at x/c =  0.7657   66

  40   rms: 0.5860E-02   max: -.8541E-01   C at   70  1
       a = -2.000      CL = -0.2122
      Cm = -0.0029     CD =  0.00646   =>   CDf =  0.00427    CDp =  0.00219

 Side 1  free  transition at x/c =  0.8844   70
 Side 2  free  transition at x/c =  0.7657   66

  41   rms: 0.5859E-02   max: -.8540E-01   C at   70  1
       a = -2.000      CL = -0.2122
      Cm = -0.0029     CD =  0.00646   =>   CDf =  0.00427    CDp =  0.00219

 Side 1  free  transition at x/c =  0.8844   70
 Side 2  free  transition at x/c =  0.7657   66

  42   rms: 0.5859E-02   max: -.8541E-01   C at   70  1
       a = -2.000      CL = -0.2122
      Cm = -0.0029     CD =  0.00646   =>   CDf =  0.00427    CDp =  0.00219

 Side 1  free  transition at x/c =  0.8844   70
 Side 2  free  transition at x/c =  0.7657   66

  43   rms: 0.5860E-02   max: -.8541E-01   C at   70  1
       a = -2.000      CL = -0.2122
      Cm = -0.0029     CD =  0.00646   =>   CDf =  0.00427    CDp =  0.00219

 Side 1  free  transition at x/c =  0.8844   70
 Side 2  free  transition at x/c =  0.7657   66

  44   rms: 0.5860E-02   max: -.8540E-01   C at   70  1
       a = -2.000      CL = -0.2122
      Cm = -0.0029     CD =  0.00646   =>   CDf =  0.00427    CDp =  0.00219

 Side 1  free  transition at x/c =  0.8844   70
 Side 2  free  transition at x/c =  0.7657   66

  45   rms: 0.5860E-02   max: -.8541E-01   C at   70  1
       a = -2.000      CL = -0.2122
      Cm = -0.0029     CD =  0.00646   =>   CDf =  0.00427    CDp =  0.00219

 Side 1  free  transition at x/c =  0.8844   70
 Side 2  free  transition at x/c =  0.7657   66

  46   rms: 0.5860E-02   max: -.8541E-01   C at   70  1
       a = -2.000      CL = -0.2122
      Cm = -0.0029     CD =  0.00646   =>   CDf =  0.00427    CDp =  0.00219

 Side 1  free  transition at x/c =  0.8844   70
 Side 2  free  transition at x/c =  0.7657   66

  47   rms: 0.5860E-02   max: -.8541E-01   C at   70  1
       a = -2.000      CL = -0.2122
      Cm = -0.0029     CD =  0.00646   =>   CDf =  0.00427    CDp =  0.00219

 Side 1  free  transition at x/c =  0.8844   70
 Side 2  free  transition at x/c =  0.7657   66

  48   rms: 0.5860E-02   max: -.8540E-01   C at   70  1
       a = -2.000      CL = -0.2122
      Cm = -0.0029     CD =  0.00646   =>   CDf =  0.00427    CDp =  0.00219

 Side 1  free  transition at x/c =  0.8844   70
 Side 2  free  transition at x/c =  0.7657   66

  49   rms: 0.5860E-02   max: -.8541E-01   C at   70  1
       a = -2.000      CL = -0.2122
      Cm = -0.0029     CD =  0.00646   =>   CDf =  0.00427    CDp =  0.00219

 Side 1  free  transition at x/c =  0.8844   70
 Side 2  free  transition at x/c =  0.7657   66

  50   rms: 0.5860E-02   max: -.8541E-01   C at   70  1
       a = -2.000      CL = -0.2122
      Cm = -0.0029     CD =  0.00646   =>   CDf =  0.00427    CDp =  0.00219

 Side 1  free  transition at x/c =  0.8844   70
 Side 2  free  transition at x/c =  0.7657   66

  51   rms: 0.5860E-02   max: -.8541E-01   C at   70  1
       a = -2.000      CL = -0.2122
      Cm = -0.0029     CD =  0.00646   =>   CDf =  0.00427    CDp =  0.00219

 Side 1  free  transition at x/c =  0.8844   70
 Side 2  free  transition at x/c =  0.7657   66

  52   rms: 0.5860E-02   max: -.8541E-01   C at   70  1
       a = -2.000      CL = -0.2122
      Cm = -0.0029     CD =  0.00646   =>   CDf =  0.00427    CDp =  0.00219

 Side 1  free  transition at x/c =  0.8844   70
 Side 2  free  transition at x/c =  0.7657   66

  53   rms: 0.5860E-02   max: -.8541E-01   C at   70  1
       a = -2.000      CL = -0.2122
      Cm = -0.0029     CD =  0.00646   =>   CDf =  0.00427    CDp =  0.00219

 Side 1  free  transition at x/c =  0.8844   70
 Side 2  free  transition at x/c =  0.7657   66

  54   rms: 0.5860E-02   max: -.8541E-01   C at   70  1
       a = -2.000      CL = -0.2122
      Cm = -0.0029     CD =  0.00646   =>   CDf =  0.00427    CDp =  0.00219

 Side 1  free  transition at x/c =  0.8844   70
 Side 2  free  transition at x/c =  0.7657   66

  55   rms: 0.5860E-02   max: -.8540E-01   C at   70  1
       a = -2.000      CL = -0.2122
      Cm = -0.0029     CD =  0.00646   =>   CDf =  0.00427    CDp =  0.00219

 Side 1  free  transition at x/c =  0.8844   70
 Side 2  free  transition at x/c =  0.7657   66

  56   rms: 0.5860E-02   max: -.8541E-01   C at   70  1
       a = -2.000      CL = -0.2122
      Cm = -0.0029     CD =  0.00646   =>   CDf =  0.00427    CDp =  0.00219

 Side 1  free  transition at x/c =  0.8844   70
 Side 2  free  transition at x/c =  0.7657   66

  57   rms: 0.5860E-02   max: -.8541E-01   C at   70  1
       a = -2.000      CL = -0.2122
      Cm = -0.0029     CD =  0.00646   =>   CDf =  0.00427    CDp =  0.00219

 Side 1  free  transition at x/c =  0.8844   70
 Side 2  free  transition at x/c =  0.7657   66

  58   rms: 0.5860E-02   max: -.8542E-01   C at   70  1
       a = -2.000      CL = -0.2122
      Cm = -0.0029     CD =  0.00646   =>   CDf =  0.00427    CDp =  0.00219

 Side 1  free  transition at x/c =  0.8844   70
 Side 2  free  transition at x/c =  0.7657   66

  59   rms: 0.5860E-02   max: -.8540E-01   C at   70  1
       a = -2.000      CL = -0.2122
      Cm = -0.0029     CD =  0.00646   =>   CDf =  0.00427    CDp =  0.00219

 Side 1  free  transition at x/c =  0.8844   70
 Side 2  free  transition at x/c =  0.7657   66

  60   rms: 0.5860E-02   max: -.8541E-01   C at   70  1
       a = -2.000      CL = -0.2122
      Cm = -0.0029     CD =  0.00646   =>   CDf =  0.00427    CDp =  0.00219

 Side 1  free  transition at x/c =  0.8844   70
 Side 2  free  transition at x/c =  0.7657   66

  61   rms: 0.5860E-02   max: -.8540E-01   C at   70  1
       a = -2.000      CL = -0.2122
      Cm = -0.0029     CD =  0.00646   =>   CDf =  0.00427    CDp =  0.00219

 Side 1  free  transition at x/c =  0.8844   70
 Side 2  free  transition at x/c =  0.7657   66

  62   rms: 0.5860E-02   max: -.8541E-01   C at   70  1
       a = -2.000      CL = -0.2122
      Cm = -0.0029     CD =  0.00646   =>   CDf =  0.00427    CDp =  0.00219

 Side 1  free  transition at x/c =  0.8844   70
 Side 2  free  transition at x/c =  0.7657   66

  63   rms: 0.5860E-02   max: -.8541E-01   C at   70  1
       a = -2.000      CL = -0.2122
      Cm = -0.0029     CD =  0.00646   =>   CDf =  0.00427    CDp =  0.00219

 Side 1  free  transition at x/c =  0.8844   70
 Side 2  free  transition at x/c =  0.7657   66

  64   rms: 0.5860E-02   max: -.8540E-01   C at   70  1
       a = -2.000      CL = -0.2122
      Cm = -0.0029     CD =  0.00646   =>   CDf =  0.00427    CDp =  0.00219

 Side 1  free  transition at x/c =  0.8844   70
 Side 2  free  transition at x/c =  0.7657   66

  65   rms: 0.5859E-02   max: -.8540E-01   C at   70  1
       a = -2.000      CL = -0.2122
      Cm = -0.0029     CD =  0.00646   =>   CDf =  0.00427    CDp =  0.00219

 Side 1  free  transition at x/c =  0.8844   70
 Side 2  free  transition at x/c =  0.7657   66

  66   rms: 0.5860E-02   max: -.8541E-01   C at   70  1
       a = -2.000      CL = -0.2122
      Cm = -0.0029     CD =  0.00646   =>   CDf =  0.00427    CDp =  0.00219

 Side 1  free  transition at x/c =  0.8844   70
 Side 2  free  transition at x/c =  0.7657   66

  67   rms: 0.5860E-02   max: -.8541E-01   C at   70  1
       a = -2.000      CL = -0.2122
      Cm = -0.0029     CD =  0.00646   =>   CDf =  0.00427    CDp =  0.00219

 Side 1  free  transition at x/c =  0.8844   70
 Side 2  free  transition at x/c =  0.7657   66

  68   rms: 0.5859E-02   max: -.8540E-01   C at   70  1
       a = -2.000      CL = -0.2122
      Cm = -0.0029     CD =  0.00646   =>   CDf =  0.00427    CDp =  0.00219

 Side 1  free  transition at x/c =  0.8844   70
 Side 2  free  transition at x/c =  0.7657   66

  69   rms: 0.5860E-02   max: -.8541E-01   C at   70  1
       a = -2.000      CL = -0.2122
      Cm = -0.0029     CD =  0.00646   =>   CDf =  0.00427    CDp =  0.00219

 Side 1  free  transition at x/c =  0.8844   70
 Side 2  free  transition at x/c =  0.7657   66

  70   rms: 0.5860E-02   max: -.8541E-01   C at   70  1
       a = -2.000      CL = -0.2122
      Cm = -0.0029     CD =  0.00646   =>   CDf =  0.00427    CDp =  0.00219

 Side 1  free  transition at x/c =  0.8844   70
 Side 2  free  transition at x/c =  0.7657   66

  71   rms: 0.5860E-02   max: -.8541E-01   C at   70  1
       a = -2.000      CL = -0.2122
      Cm = -0.0029     CD =  0.00646   =>   CDf =  0.00427    CDp =  0.00219

 Side 1  free  transition at x/c =  0.8844   70
 Side 2  free  transition at x/c =  0.7657   66

  72   rms: 0.5860E-02   max: -.8541E-01   C at   70  1
       a = -2.000      CL = -0.2122
      Cm = -0.0029     CD =  0.00646   =>   CDf =  0.00427    CDp =  0.00219

 Side 1  free  transition at x/c =  0.8844   70
 Side 2  free  transition at x/c =  0.7657   66

  73   rms: 0.5860E-02   max: -.8541E-01   C at   70  1
       a = -2.000      CL = -0.2122
      Cm = -0.0029     CD =  0.00646   =>   CDf =  0.00427    CDp =  0.00219

 Side 1  free  transition at x/c =  0.8844   70
 Side 2  free  transition at x/c =  0.7657   66

  74   rms: 0.5860E-02   max: -.8541E-01   C at   70  1
       a = -2.000      CL = -0.2122
      Cm = -0.0029     CD =  0.00646   =>   CDf =  0.00427    CDp =  0.00219

 Side 1  free  transition at x/c =  0.8844   70
 Side 2  free  transition at x/c =  0.7657   66

  75   rms: 0.5860E-02   max: -.8541E-01   C at   70  1
       a = -2.000      CL = -0.2122
      Cm = -0.0029     CD =  0.00646   =>   CDf =  0.00427    CDp =  0.00219

 Side 1  free  transition at x/c =  0.8844   70
 Side 2  free  transition at x/c =  0.7657   66

  76   rms: 0.5860E-02   max: -.8540E-01   C at   70  1
       a = -2.000      CL = -0.2122
      Cm = -0.0029     CD =  0.00646   =>   CDf =  0.00427    CDp =  0.00219

 Side 1  free  transition at x/c =  0.8844   70
 Side 2  free  transition at x/c =  0.7657   66

  77   rms: 0.5860E-02   max: -.8541E-01   C at   70  1
       a = -2.000      CL = -0.2122
      Cm = -0.0029     CD =  0.00646   =>   CDf =  0.00427    CDp =  0.00219

 Side 1  free  transition at x/c =  0.8844   70
 Side 2  free  transition at x/c =  0.7657   66

  78   rms: 0.5860E-02   max: -.8541E-01   C at   70  1
       a = -2.000      CL = -0.2122
      Cm = -0.0029     CD =  0.00646   =>   CDf =  0.00427    CDp =  0.00219

 Side 1  free  transition at x/c =  0.8844   70
 Side 2  free  transition at x/c =  0.7657   66

  79   rms: 0.5860E-02   max: -.8541E-01   C at   70  1
       a = -2.000      CL = -0.2122
      Cm = -0.0029     CD =  0.00646   =>   CDf =  0.00427    CDp =  0.00219

 Side 1  free  transition at x/c =  0.8844   70
 Side 2  free  transition at x/c =  0.7657   66

  80   rms: 0.5860E-02   max: -.8541E-01   C at   70  1
       a = -2.000      CL = -0.2122
      Cm = -0.0029     CD =  0.00646   =>   CDf =  0.00427    CDp =  0.00219

 Side 1  free  transition at x/c =  0.8844   70
 Side 2  free  transition at x/c =  0.7657   66

  81   rms: 0.5860E-02   max: -.8541E-01   C at   70  1
       a = -2.000      CL = -0.2122
      Cm = -0.0029     CD =  0.00646   =>   CDf =  0.00427    CDp =  0.00219

 Side 1  free  transition at x/c =  0.8844   70
 Side 2  free  transition at x/c =  0.7657   66

  82   rms: 0.5860E-02   max: -.8541E-01   C at   70  1
       a = -2.000      CL = -0.2122
      Cm = -0.0029     CD =  0.00646   =>   CDf =  0.00427    CDp =  0.00219

 Side 1  free  transition at x/c =  0.8844   70
 Side 2  free  transition at x/c =  0.7657   66

  83   rms: 0.5860E-02   max: -.8541E-01   C at   70  1
       a = -2.000      CL = -0.2122
      Cm = -0.0029     CD =  0.00646   =>   CDf =  0.00427    CDp =  0.00219

 Side 1  free  transition at x/c =  0.8844   70
 Side 2  free  transition at x/c =  0.7657   66

  84   rms: 0.5860E-02   max: -.8540E-01   C at   70  1
       a = -2.000      CL = -0.2122
      Cm = -0.0029     CD =  0.00646   =>   CDf =  0.00427    CDp =  0.00219

 Side 1  free  transition at x/c =  0.8844   70
 Side 2  free  transition at x/c =  0.7657   66

  85   rms: 0.5860E-02   max: -.8541E-01   C at   70  1
       a = -2.000      CL = -0.2122
      Cm = -0.0029     CD =  0.00646   =>   CDf =  0.00427    CDp =  0.00219

 Side 1  free  transition at x/c =  0.8844   70
 Side 2  free  transition at x/c =  0.7657   66

  86   rms: 0.5860E-02   max: -.8541E-01   C at   70  1
       a = -2.000      CL = -0.2122
      Cm = -0.0029     CD =  0.00646   =>   CDf =  0.00427    CDp =  0.00219

 Side 1  free  transition at x/c =  0.8844   70
 Side 2  free  transition at x/c =  0.7657   66

  87   rms: 0.5860E-02   max: -.8540E-01   C at   70  1
       a = -2.000      CL = -0.2122
      Cm = -0.0029     CD =  0.00646   =>   CDf =  0.00427    CDp =  0.00219

 Side 1  free  transition at x/c =  0.8844   70
 Side 2  free  transition at x/c =  0.7657   66

  88   rms: 0.5859E-02   max: -.8540E-01   C at   70  1
       a = -2.000      CL = -0.2122
      Cm = -0.0029     CD =  0.00646   =>   CDf =  0.00427    CDp =  0.00219

 Side 1  free  transition at x/c =  0.8844   70
 Side 2  free  transition at x/c =  0.7657   66

  89   rms: 0.5860E-02   max: -.8541E-01   C at   70  1
       a = -2.000      CL = -0.2122
      Cm = -0.0029     CD =  0.00646   =>   CDf =  0.00427    CDp =  0.00219

 Side 1  free  transition at x/c =  0.8844   70
 Side 2  free  transition at x/c =  0.7657   66

  90   rms: 0.5860E-02   max: -.8541E-01   C at   70  1
       a = -2.000      CL = -0.2122
      Cm = -0.0029     CD =  0.00646   =>   CDf =  0.00427    CDp =  0.00219

 Side 1  free  transition at x/c =  0.8844   70
 Side 2  free  transition at x/c =  0.7657   66

  91   rms: 0.5860E-02   max: -.8541E-01   C at   70  1
       a = -2.000      CL = -0.2122
      Cm = -0.0029     CD =  0.00646   =>   CDf =  0.00427    CDp =  0.00219

 Side 1  free  transition at x/c =  0.8844   70
 Side 2  free  transition at x/c =  0.7657   66

  92   rms: 0.5860E-02   max: -.8540E-01   C at   70  1
       a = -2.000      CL = -0.2122
      Cm = -0.0029     CD =  0.00646   =>   CDf =  0.00427    CDp =  0.00219

 Side 1  free  transition at x/c =  0.8844   70
 Side 2  free  transition at x/c =  0.7657   66

  93   rms: 0.5860E-02   max: -.8541E-01   C at   70  1
       a = -2.000      CL = -0.2122
      Cm = -0.0029     CD =  0.00646   =>   CDf =  0.00427    CDp =  0.00219

 Side 1  free  transition at x/c =  0.8844   70
 Side 2  free  transition at x/c =  0.7657   66

  94   rms: 0.5860E-02   max: -.8541E-01   C at   70  1
       a = -2.000      CL = -0.2122
      Cm = -0.0029     CD =  0.00646   =>   CDf =  0.00427    CDp =  0.00219

 Side 1  free  transition at x/c =  0.8844   70
 Side 2  free  transition at x/c =  0.7657   66

  95   rms: 0.5860E-02   max: -.8541E-01   C at   70  1
       a = -2.000      CL = -0.2122
      Cm = -0.0029     CD =  0.00646   =>   CDf =  0.00427    CDp =  0.00219

 Side 1  free  transition at x/c =  0.8844   70
 Side 2  free  transition at x/c =  0.7657   66

  96   rms: 0.5860E-02   max: -.8541E-01   C at   70  1
       a = -2.000      CL = -0.2122
      Cm = -0.0029     CD =  0.00646   =>   CDf =  0.00427    CDp =  0.00219

 Side 1  free  transition at x/c =  0.8844   70
 Side 2  free  transition at x/c =  0.7657   66

  97   rms: 0.5859E-02   max: -.8540E-01   C at   70  1
       a = -2.000      CL = -0.2122
      Cm = -0.0029     CD =  0.00646   =>   CDf =  0.00427    CDp =  0.00219

 Side 1  free  transition at x/c =  0.8844   70
 Side 2  free  transition at x/c =  0.7657   66

  98   rms: 0.5860E-02   max: -.8541E-01   C at   70  1
       a = -2.000      CL = -0.2122
      Cm = -0.0029     CD =  0.00646   =>   CDf =  0.00427    CDp =  0.00219

 Side 1  free  transition at x/c =  0.8844   70
 Side 2  free  transition at x/c =  0.7657   66

  99   rms: 0.5860E-02   max: -.8541E-01   C at   70  1
       a = -2.000      CL = -0.2122
      Cm = -0.0029     CD =  0.00646   =>   CDf =  0.00427    CDp =  0.00219

 Side 1  free  transition at x/c =  0.8844   70
 Side 2  free  transition at x/c =  0.7657   66

 100   rms: 0.5860E-02   max: -.8541E-01   C at   70  1
       a = -2.000      CL = -0.2122
      Cm = -0.0029     CD =  0.00646   =>   CDf =  0.00427    CDp =  0.00219

 Side 1  free  transition at x/c =  0.8844   70
 Side 2  free  transition at x/c =  0.7657   66

 101   rms: 0.5860E-02   max: -.8541E-01   C at   70  1
       a = -2.000      CL = -0.2122
      Cm = -0.0029     CD =  0.00646   =>   CDf =  0.00427    CDp =  0.00219

 Side 1  free  transition at x/c =  0.8844   70
 Side 2  free  transition at x/c =  0.7657   66

 102   rms: 0.5860E-02   max: -.8541E-01   C at   70  1
       a = -2.000      CL = -0.2122
      Cm = -0.0029     CD =  0.00646   =>   CDf =  0.00427    CDp =  0.00219

 Side 1  free  transition at x/c =  0.8844   70
 Side 2  free  transition at x/c =  0.7657   66

 103   rms: 0.5860E-02   max: -.8541E-01   C at   70  1
       a = -2.000      CL = -0.2122
      Cm = -0.0029     CD =  0.00646   =>   CDf =  0.00427    CDp =  0.00219

 Side 1  free  transition at x/c =  0.8844   70
 Side 2  free  transition at x/c =  0.7657   66

 104   rms: 0.5860E-02   max: -.8541E-01   C at   70  1
       a = -2.000      CL = -0.2122
      Cm = -0.0029     CD =  0.00646   =>   CDf =  0.00427    CDp =  0.00219

 Side 1  free  transition at x/c =  0.8844   70
 Side 2  free  transition at x/c =  0.7657   66

 105   rms: 0.5860E-02   max: -.8540E-01   C at   70  1
       a = -2.000      CL = -0.2122
      Cm = -0.0029     CD =  0.00646   =>   CDf =  0.00427    CDp =  0.00219

 Side 1  free  transition at x/c =  0.8844   70
 Side 2  free  transition at x/c =  0.7657   66

 106   rms: 0.5860E-02   max: -.8541E-01   C at   70  1
       a = -2.000      CL = -0.2122
      Cm = -0.0029     CD =  0.00646   =>   CDf =  0.00427    CDp =  0.00219

 Side 1  free  transition at x/c =  0.8844   70
 Side 2  free  transition at x/c =  0.7657   66

 107   rms: 0.5860E-02   max: -.8541E-01   C at   70  1
       a = -2.000      CL = -0.2122
      Cm = -0.0029     CD =  0.00646   =>   CDf =  0.00427    CDp =  0.00219

 Side 1  free  transition at x/c =  0.8844   70
 Side 2  free  transition at x/c =  0.7657   66

 108   rms: 0.5860E-02   max: -.8541E-01   C at   70  1
       a = -2.000      CL = -0.2122
      Cm = -0.0029     CD =  0.00646   =>   CDf =  0.00427    CDp =  0.00219

 Side 1  free  transition at x/c =  0.8844   70
 Side 2  free  transition at x/c =  0.7657   66

 109   rms: 0.5860E-02   max: -.8540E-01   C at   70  1
       a = -2.000      CL = -0.2122
      Cm = -0.0029     CD =  0.00646   =>   CDf =  0.00427    CDp =  0.00219

 Side 1  free  transition at x/c =  0.8844   70
 Side 2  free  transition at x/c =  0.7657   66

 110   rms: 0.5859E-02   max: -.8540E-01   C at   70  1
       a = -2.000      CL = -0.2122
      Cm = -0.0029     CD =  0.00646   =>   CDf =  0.00427    CDp =  0.00219

 Side 1  free  transition at x/c =  0.8844   70
 Side 2  free  transition at x/c =  0.7657   66

 111   rms: 0.5860E-02   max: -.8541E-01   C at   70  1
       a = -2.000      CL = -0.2122
      Cm = -0.0029     CD =  0.00646   =>   CDf =  0.00427    CDp =  0.00219

 Side 1  free  transition at x/c =  0.8844   70
 Side 2  free  transition at x/c =  0.7657   66

 112   rms: 0.5860E-02   max: -.8540E-01   C at   70  1
       a = -2.000      CL = -0.2122
      Cm = -0.0029     CD =  0.00646   =>   CDf =  0.00427    CDp =  0.00219

 Side 1  free  transition at x/c =  0.8844   70
 Side 2  free  transition at x/c =  0.7657   66

 113   rms: 0.5860E-02   max: -.8541E-01   C at   70  1
       a = -2.000      CL = -0.2122
      Cm = -0.0029     CD =  0.00646   =>   CDf =  0.00427    CDp =  0.00219

 Side 1  free  transition at x/c =  0.8844   70
 Side 2  free  transition at x/c =  0.7657   66

 114   rms: 0.5860E-02   max: -.8540E-01   C at   70  1
       a = -2.000      CL = -0.2122
      Cm = -0.0029     CD =  0.00646   =>   CDf =  0.00427    CDp =  0.00219

 Side 1  free  transition at x/c =  0.8844   70
 Side 2  free  transition at x/c =  0.7657   66

 115   rms: 0.5860E-02   max: -.8541E-01   C at   70  1
       a = -2.000      CL = -0.2122
      Cm = -0.0029     CD =  0.00646   =>   CDf =  0.00427    CDp =  0.00219

 Side 1  free  transition at x/c =  0.8844   70
 Side 2  free  transition at x/c =  0.7657   66

 116   rms: 0.5859E-02   max: -.8540E-01   C at   70  1
       a = -2.000      CL = -0.2122
      Cm = -0.0029     CD =  0.00646   =>   CDf =  0.00427    CDp =  0.00219

 Side 1  free  transition at x/c =  0.8844   70
 Side 2  free  transition at x/c =  0.7657   66

 117   rms: 0.5860E-02   max: -.8542E-01   C at   70  1
       a = -2.000      CL = -0.2122
      Cm = -0.0029     CD =  0.00646   =>   CDf =  0.00427    CDp =  0.00219

 Side 1  free  transition at x/c =  0.8844   70
 Side 2  free  transition at x/c =  0.7657   66

 118   rms: 0.5860E-02   max: -.8540E-01   C at   70  1
       a = -2.000      CL = -0.2122
      Cm = -0.0029     CD =  0.00646   =>   CDf =  0.00427    CDp =  0.00219

 Side 1  free  transition at x/c =  0.8844   70
 Side 2  free  transition at x/c =  0.7657   66

 119   rms: 0.5859E-02   max: -.8541E-01   C at   70  1
       a = -2.000      CL = -0.2122
      Cm = -0.0029     CD =  0.00646   =>   CDf =  0.00427    CDp =  0.00219

 Side 1  free  transition at x/c =  0.8844   70
 Side 2  free  transition at x/c =  0.7657   66

 120   rms: 0.5860E-02   max: -.8540E-01   C at   70  1
       a = -2.000      CL = -0.2122
      Cm = -0.0029     CD =  0.00646   =>   CDf =  0.00427    CDp =  0.00219

 Side 1  free  transition at x/c =  0.8844   70
 Side 2  free  transition at x/c =  0.7657   66

 121   rms: 0.5860E-02   max: -.8541E-01   C at   70  1
       a = -2.000      CL = -0.2122
      Cm = -0.0029     CD =  0.00646   =>   CDf =  0.00427    CDp =  0.00219

 Side 1  free  transition at x/c =  0.8844   70
 Side 2  free  transition at x/c =  0.7657   66

 122   rms: 0.5860E-02   max: -.8541E-01   C at   70  1
       a = -2.000      CL = -0.2122
      Cm = -0.0029     CD =  0.00646   =>   CDf =  0.00427    CDp =  0.00219

 Side 1  free  transition at x/c =  0.8844   70
 Side 2  free  transition at x/c =  0.7657   66

 123   rms: 0.5860E-02   max: -.8541E-01   C at   70  1
       a = -2.000      CL = -0.2122
      Cm = -0.0029     CD =  0.00646   =>   CDf =  0.00427    CDp =  0.00219

 Side 1  free  transition at x/c =  0.8844   70
 Side 2  free  transition at x/c =  0.7657   66

 124   rms: 0.5860E-02   max: -.8540E-01   C at   70  1
       a = -2.000      CL = -0.2122
      Cm = -0.0029     CD =  0.00646   =>   CDf =  0.00427    CDp =  0.00219

 Side 1  free  transition at x/c =  0.8844   70
 Side 2  free  transition at x/c =  0.7657   66

 125   rms: 0.5860E-02   max: -.8541E-01   C at   70  1
       a = -2.000      CL = -0.2122
      Cm = -0.0029     CD =  0.00646   =>   CDf =  0.00427    CDp =  0.00219

 Side 1  free  transition at x/c =  0.8844   70
 Side 2  free  transition at x/c =  0.7657   66

 126   rms: 0.5860E-02   max: -.8541E-01   C at   70  1
       a = -2.000      CL = -0.2122
      Cm = -0.0029     CD =  0.00646   =>   CDf =  0.00427    CDp =  0.00219

 Side 1  free  transition at x/c =  0.8844   70
 Side 2  free  transition at x/c =  0.7657   66

 127   rms: 0.5860E-02   max: -.8541E-01   C at   70  1
       a = -2.000      CL = -0.2122
      Cm = -0.0029     CD =  0.00646   =>   CDf =  0.00427    CDp =  0.00219

 Side 1  free  transition at x/c =  0.8844   70
 Side 2  free  transition at x/c =  0.7657   66

 128   rms: 0.5860E-02   max: -.8541E-01   C at   70  1
       a = -2.000      CL = -0.2122
      Cm = -0.0029     CD =  0.00646   =>   CDf =  0.00427    CDp =  0.00219

 Side 1  free  transition at x/c =  0.8844   70
 Side 2  free  transition at x/c =  0.7657   66

 129   rms: 0.5860E-02   max: -.8540E-01   C at   70  1
       a = -2.000      CL = -0.2122
      Cm = -0.0029     CD =  0.00646   =>   CDf =  0.00427    CDp =  0.00219

 Side 1  free  transition at x/c =  0.8844   70
 Side 2  free  transition at x/c =  0.7657   66

 130   rms: 0.5860E-02   max: -.8541E-01   C at   70  1
       a = -2.000      CL = -0.2122
      Cm = -0.0029     CD =  0.00646   =>   CDf =  0.00427    CDp =  0.00219

 Side 1  free  transition at x/c =  0.8844   70
 Side 2  free  transition at x/c =  0.7657   66

 131   rms: 0.5860E-02   max: -.8541E-01   C at   70  1
       a = -2.000      CL = -0.2122
      Cm = -0.0029     CD =  0.00646   =>   CDf =  0.00427    CDp =  0.00219

 Side 1  free  transition at x/c =  0.8844   70
 Side 2  free  transition at x/c =  0.7657   66

 132   rms: 0.5860E-02   max: -.8541E-01   C at   70  1
       a = -2.000      CL = -0.2122
      Cm = -0.0029     CD =  0.00646   =>   CDf =  0.00427    CDp =  0.00219

 Side 1  free  transition at x/c =  0.8844   70
 Side 2  free  transition at x/c =  0.7657   66

 133   rms: 0.5860E-02   max: -.8540E-01   C at   70  1
       a = -2.000      CL = -0.2122
      Cm = -0.0029     CD =  0.00646   =>   CDf =  0.00427    CDp =  0.00219

 Side 1  free  transition at x/c =  0.8844   70
 Side 2  free  transition at x/c =  0.7657   66

 134   rms: 0.5860E-02   max: -.8541E-01   C at   70  1
       a = -2.000      CL = -0.2122
      Cm = -0.0029     CD =  0.00646   =>   CDf =  0.00427    CDp =  0.00219

 Side 1  free  transition at x/c =  0.8844   70
 Side 2  free  transition at x/c =  0.7657   66

 135   rms: 0.5860E-02   max: -.8540E-01   C at   70  1
       a = -2.000      CL = -0.2122
      Cm = -0.0029     CD =  0.00646   =>   CDf =  0.00427    CDp =  0.00219

 Side 1  free  transition at x/c =  0.8844   70
 Side 2  free  transition at x/c =  0.7657   66

 136   rms: 0.5860E-02   max: -.8541E-01   C at   70  1
       a = -2.000      CL = -0.2122
      Cm = -0.0029     CD =  0.00646   =>   CDf =  0.00427    CDp =  0.00219

 Side 1  free  transition at x/c =  0.8844   70
 Side 2  free  transition at x/c =  0.7657   66

 137   rms: 0.5860E-02   max: -.8541E-01   C at   70  1
       a = -2.000      CL = -0.2122
      Cm = -0.0029     CD =  0.00646   =>   CDf =  0.00427    CDp =  0.00219

 Side 1  free  transition at x/c =  0.8844   70
 Side 2  free  transition at x/c =  0.7657   66

 138   rms: 0.5860E-02   max: -.8541E-01   C at   70  1
       a = -2.000      CL = -0.2122
      Cm = -0.0029     CD =  0.00646   =>   CDf =  0.00427    CDp =  0.00219

 Side 1  free  transition at x/c =  0.8844   70
 Side 2  free  transition at x/c =  0.7657   66

 139   rms: 0.5860E-02   max: -.8540E-01   C at   70  1
       a = -2.000      CL = -0.2122
      Cm = -0.0029     CD =  0.00646   =>   CDf =  0.00427    CDp =  0.00219

 Side 1  free  transition at x/c =  0.8844   70
 Side 2  free  transition at x/c =  0.7657   66

 140   rms: 0.5859E-02   max: -.8541E-01   C at   70  1
       a = -2.000      CL = -0.2122
      Cm = -0.0029     CD =  0.00646   =>   CDf =  0.00427    CDp =  0.00219

 Side 1  free  transition at x/c =  0.8844   70
 Side 2  free  transition at x/c =  0.7657   66

 141   rms: 0.5859E-02   max: -.8540E-01   C at   70  1
       a = -2.000      CL = -0.2122
      Cm = -0.0029     CD =  0.00646   =>   CDf =  0.00427    CDp =  0.00219

 Side 1  free  transition at x/c =  0.8844   70
 Side 2  free  transition at x/c =  0.7657   66

 142   rms: 0.5860E-02   max: -.8541E-01   C at   70  1
       a = -2.000      CL = -0.2122
      Cm = -0.0029     CD =  0.00646   =>   CDf =  0.00427    CDp =  0.00219

 Side 1  free  transition at x/c =  0.8844   70
 Side 2  free  transition at x/c =  0.7657   66

 143   rms: 0.5860E-02   max: -.8541E-01   C at   70  1
       a = -2.000      CL = -0.2122
      Cm = -0.0029     CD =  0.00646   =>   CDf =  0.00427    CDp =  0.00219

 Side 1  free  transition at x/c =  0.8844   70
 Side 2  free  transition at x/c =  0.7657   66

 144   rms: 0.5860E-02   max: -.8541E-01   C at   70  1
       a = -2.000      CL = -0.2122
      Cm = -0.0029     CD =  0.00646   =>   CDf =  0.00427    CDp =  0.00219

 Side 1  free  transition at x/c =  0.8844   70
 Side 2  free  transition at x/c =  0.7657   66

 145   rms: 0.5860E-02   max: -.8541E-01   C at   70  1
       a = -2.000      CL = -0.2122
      Cm = -0.0029     CD =  0.00646   =>   CDf =  0.00427    CDp =  0.00219

 Side 1  free  transition at x/c =  0.8844   70
 Side 2  free  transition at x/c =  0.7657   66

 146   rms: 0.5860E-02   max: -.8541E-01   C at   70  1
       a = -2.000      CL = -0.2122
      Cm = -0.0029     CD =  0.00646   =>   CDf =  0.00427    CDp =  0.00219

 Side 1  free  transition at x/c =  0.8844   70
 Side 2  free  transition at x/c =  0.7657   66

 147   rms: 0.5860E-02   max: -.8541E-01   C at   70  1
       a = -2.000      CL = -0.2122
      Cm = -0.0029     CD =  0.00646   =>   CDf =  0.00427    CDp =  0.00219

 Side 1  free  transition at x/c =  0.8844   70
 Side 2  free  transition at x/c =  0.7657   66

 148   rms: 0.5860E-02   max: -.8540E-01   C at   70  1
       a = -2.000      CL = -0.2122
      Cm = -0.0029     CD =  0.00646   =>   CDf =  0.00427    CDp =  0.00219

 Side 1  free  transition at x/c =  0.8844   70
 Side 2  free  transition at x/c =  0.7657   66

 149   rms: 0.5860E-02   max: -.8541E-01   C at   70  1
       a = -2.000      CL = -0.2122
      Cm = -0.0029     CD =  0.00646   =>   CDf =  0.00427    CDp =  0.00219

 Side 1  free  transition at x/c =  0.8844   70
 Side 2  free  transition at x/c =  0.7657   66

 150   rms: 0.5860E-02   max: -.8541E-01   C at   70  1
       a = -2.000      CL = -0.2122
      Cm = -0.0029     CD =  0.00646   =>   CDf =  0.00427    CDp =  0.00219

 Side 1  free  transition at x/c =  0.8844   70
 Side 2  free  transition at x/c =  0.7657   66

 151   rms: 0.5860E-02   max: -.8541E-01   C at   70  1
       a = -2.000      CL = -0.2122
      Cm = -0.0029     CD =  0.00646   =>   CDf =  0.00427    CDp =  0.00219

 Side 1  free  transition at x/c =  0.8844   70
 Side 2  free  transition at x/c =  0.7657   66

 152   rms: 0.5860E-02   max: -.8540E-01   C at   70  1
       a = -2.000      CL = -0.2122
      Cm = -0.0029     CD =  0.00646   =>   CDf =  0.00427    CDp =  0.00219

 Side 1  free  transition at x/c =  0.8844   70
 Side 2  free  transition at x/c =  0.7657   66

 153   rms: 0.5859E-02   max: -.8540E-01   C at   70  1
       a = -2.000      CL = -0.2122
      Cm = -0.0029     CD =  0.00646   =>   CDf =  0.00427    CDp =  0.00219

 Side 1  free  transition at x/c =  0.8844   70
 Side 2  free  transition at x/c =  0.7657   66

 154   rms: 0.5860E-02   max: -.8541E-01   C at   70  1
       a = -2.000      CL = -0.2122
      Cm = -0.0029     CD =  0.00646   =>   CDf =  0.00427    CDp =  0.00219

 Side 1  free  transition at x/c =  0.8844   70
 Side 2  free  transition at x/c =  0.7657   66

 155   rms: 0.5860E-02   max: -.8541E-01   C at   70  1
       a = -2.000      CL = -0.2122
      Cm = -0.0029     CD =  0.00646   =>   CDf =  0.00427    CDp =  0.00219
 VISCAL:  Convergence failed
 Calculating wake trajectory ...
 Calculating source influence matrix ...

 Solving BL system ...

 Side 1  free  transition at x/c =  0.8844   70
 Side 2  free  transition at x/c =  0.7657   66

   1   rms: 0.9131E-01   max: -.4097E+00   T at   66  2
       a = -1.500      CL = -0.1642
      Cm = -0.0012     CD =  0.00651   =>   CDf =  0.00427    CDp =  0.00224

 Side 1  free  transition at x/c =  0.8682   69
 Side 2  free  transition at x/c =  0.7865   68

   2   rms: 0.1974E-01   max: -.2092E+00   D at   70  1
       a = -1.500      CL = -0.1590
      Cm = -0.0021     CD =  0.00648   =>   CDf =  0.00438    CDp =  0.00210

 Side 1  free  transition at x/c =  0.8739   70
 Side 2  free  transition at x/c =  0.7897   68

   3   rms: 0.5569E-02   max: 0.9840E-01   D at   70  1
       a = -1.500      CL = -0.1602
      Cm = -0.0019     CD =  0.00649   =>   CDf =  0.00426    CDp =  0.00223

 Side 1  free  transition at x/c =  0.8725   70
 Side 2  free  transition at x/c =  0.7895   68

   4   rms: 0.5891E-03   max: 0.8028E-02   D at   70  1
       a = -1.500      CL = -0.1602
      Cm = -0.0019     CD =  0.00649   =>   CDf =  0.00427    CDp =  0.00222

 Side 1  free  transition at x/c =  0.8724   70
 Side 2  free  transition at x/c =  0.7895   68

   5   rms: 0.4847E-05   max: -.6111E-04   D at   72  1
       a = -1.500      CL = -0.1602
      Cm = -0.0019     CD =  0.00649   =>   CDf =  0.00427    CDp =  0.00222
 plradd ia,ip,cpol            5           0  1.58556458E-02

 Point added to stored polar  1
 Point written to save file  rae104_Re500k.base.pol                          
 Dump file unspecified or not available
 Calculating wake trajectory ...
 Calculating source influence matrix ...

 Solving BL system ...

 Side 1  free  transition at x/c =  0.8724   70
 Side 2  free  transition at x/c =  0.7895   68

   1   rms: 0.9206E-01   max: -.4436E+00   T at   68  2
       a = -1.000      CL = -0.1061
      Cm = -0.0012     CD =  0.00655   =>   CDf =  0.00433    CDp =  0.00222

 Side 1  free  transition at x/c =  0.8635   70
 Side 2  free  transition at x/c =  0.8020   68

   2   rms: 0.5250E-01   max: -.4123E+00   T at   68  2
       a = -1.000      CL = -0.1080
      Cm = -0.0011     CD =  0.00627   =>   CDf =  0.00442    CDp =  0.00185

 Side 1  free  transition at x/c =  0.8609   70
 Side 2  free  transition at x/c =  0.8116   68

   3   rms: 0.1444E-01   max: -.1782E+00   C at   68  2
       a = -1.000      CL = -0.1073
      Cm = -0.0011     CD =  0.00652   =>   CDf =  0.00433    CDp =  0.00219

 Side 1  free  transition at x/c =  0.8612   70
 Side 2  free  transition at x/c =  0.8095   68

   4   rms: 0.3775E-03   max: 0.5492E-02   D at   68  2
       a = -1.000      CL = -0.1074
      Cm = -0.0011     CD =  0.00653   =>   CDf =  0.00429    CDp =  0.00224

 Side 1  free  transition at x/c =  0.8612   70
 Side 2  free  transition at x/c =  0.8095   68

   5   rms: 0.3892E-05   max: 0.5158E-04   D at   69  2
       a = -1.000      CL = -0.1074
      Cm = -0.0011     CD =  0.00653   =>   CDf =  0.00429    CDp =  0.00224
 plradd ia,ip,cpol            6           0  3.21311690E-02

 Point added to stored polar  1
 Point written to save file  rae104_Re500k.base.pol                          
 Dump file unspecified or not available
 Calculating wake trajectory ...
 Calculating source influence matrix ...

 Solving BL system ...

 Side 1  free  transition at x/c =  0.8612   70
 Side 2  free  transition at x/c =  0.8095   68

   1   rms: 0.8451E-01   max: -.3484E+00   T at   68  2
       a = -0.500      CL = -0.0550
      Cm = -0.0003     CD =  0.00659   =>   CDf =  0.00429    CDp =  0.00230

 Side 1  free  transition at x/c =  0.8508   69
 Side 2  free  transition at x/c =  0.8258   69

   2   rms: 0.1418E-01   max: 0.1630E+00   D at   70  2
       a = -0.500      CL = -0.0541
      Cm = -0.0005     CD =  0.00655   =>   CDf =  0.00429    CDp =  0.00226

 Side 1  free  transition at x/c =  0.8506   69
 Side 2  free  transition at x/c =  0.8262   69

   3   rms: 0.1119E-02   max: 0.1602E-01   D at   70  2
       a = -0.500      CL = -0.0540
      Cm = -0.0005     CD =  0.00656   =>   CDf =  0.00431    CDp =  0.00226

 Side 1  free  transition at x/c =  0.8505   69
 Side 2  free  transition at x/c =  0.8259   69

   4   rms: 0.3708E-05   max: -.4680E-04   C at   69  2
       a = -0.500      CL = -0.0540
      Cm = -0.0005     CD =  0.00656   =>   CDf =  0.00431    CDp =  0.00226
 plradd ia,ip,cpol            7           0  0.10869002    

 Point added to stored polar  1
 Point written to save file  rae104_Re500k.base.pol                          
 Dump file unspecified or not available
 Calculating wake trajectory ...
 Calculating source influence matrix ...

 Solving BL system ...

 Side 1  free  transition at x/c =  0.8505   69
 Side 2  free  transition at x/c =  0.8259   69

   1   rms: 0.8236E-01   max: -.3296E+00   T at   69  2
       a =  0.000      CL = -0.0026
      Cm =  0.0004     CD =  0.00662   =>   CDf =  0.00433    CDp =  0.00229

 Side 1  free  transition at x/c =  0.8372   69
 Side 2  free  transition at x/c =  0.8406   69

   2   rms: 0.1931E-01   max: -.1754E+00   D at   70  1
       a =  0.000      CL =  0.0002
      Cm = -0.0001     CD =  0.00658   =>   CDf =  0.00437    CDp =  0.00221

 Side 1  free  transition at x/c =  0.8396   69
 Side 2  free  transition at x/c =  0.8396   69

   3   rms: 0.2636E-02   max: 0.2980E-01   D at   70  2
       a =  0.000      CL = -0.0000
      Cm =  0.0000     CD =  0.00658   =>   CDf =  0.00432    CDp =  0.00226

 Side 1  free  transition at x/c =  0.8393   69
 Side 2  free  transition at x/c =  0.8392   69

   4   rms: 0.2487E-04   max: 0.3708E-03   D at   70  2
       a =  0.000      CL = -0.0000
      Cm = -0.0000     CD =  0.00658   =>   CDf =  0.00432    CDp =  0.00226
 plradd ia,ip,cpol            8           0  0.37543687    

 Point added to stored polar  1
 Point written to save file  rae104_Re500k.base.pol                          
 Dump file unspecified or not available
 Calculating wake trajectory ...
 Calculating source influence matrix ...

 Solving BL system ...

 Side 1  free  transition at x/c =  0.8393   69
 Side 2  free  transition at x/c =  0.8392   69

   1   rms: 0.8128E-01   max: -.2741E+00   T at   69  2
       a =  0.500      CL =  0.0512
      Cm =  0.0009     CD =  0.00658   =>   CDf =  0.00432    CDp =  0.00226

 Side 1  free  transition at x/c =  0.8222   69
 Side 2  free  transition at x/c =  0.8527   69

   2   rms: 0.2303E-01   max: -.2459E+00   D at   70  1
       a =  0.500      CL =  0.0537
      Cm =  0.0005     CD =  0.00656   =>   CDf =  0.00430    CDp =  0.00225

 Side 1  free  transition at x/c =  0.8263   69
 Side 2  free  transition at x/c =  0.8514   69

   3   rms: 0.3045E-02   max: 0.3321E-01   D at   70  1
       a =  0.500      CL =  0.0540
      Cm =  0.0005     CD =  0.00656   =>   CDf =  0.00431    CDp =  0.00226

 Side 1  free  transition at x/c =  0.8259   69
 Side 2  free  transition at x/c =  0.8505   69

   4   rms: 0.5595E-04   max: -.5503E-03   D at   69  2
       a =  0.500      CL =  0.0540
      Cm =  0.0005     CD =  0.00656   =>   CDf =  0.00431    CDp =  0.00226
 plradd ia,ip,cpol            9           0  0.10869079    

 Point added to stored polar  1
 Point written to save file  rae104_Re500k.base.pol                          
 Dump file unspecified or not available
 Calculating wake trajectory ...
 Calculating source influence matrix ...

 Solving BL system ...

 Side 1  free  transition at x/c =  0.8259   69
 Side 2  free  transition at x/c =  0.8505   69

   1   rms: 0.8238E-01   max: -.2329E+00   T at   69  2
       a =  1.000      CL =  0.1055
      Cm =  0.0013     CD =  0.00652   =>   CDf =  0.00431    CDp =  0.00221

 Side 1  free  transition at x/c =  0.8047   68
 Side 2  free  transition at x/c =  0.8612   70

   2   rms: 0.2513E-01   max: -.2926E+00   D at   69  1
       a =  1.000      CL =  0.1075
      Cm =  0.0011     CD =  0.00653   =>   CDf =  0.00434    CDp =  0.00220

 Side 1  free  transition at x/c =  0.8103   68
 Side 2  free  transition at x/c =  0.8612   70

   3   rms: 0.3116E-02   max: 0.5120E-01   D at   69  1
       a =  1.000      CL =  0.1074
      Cm =  0.0011     CD =  0.00653   =>   CDf =  0.00429    CDp =  0.00224

 Side 1  free  transition at x/c =  0.8095   68
 Side 2  free  transition at x/c =  0.8612   70

   4   rms: 0.3761E-04   max: 0.5599E-03   D at   70  1
       a =  1.000      CL =  0.1074
      Cm =  0.0011     CD =  0.00653   =>   CDf =  0.00429    CDp =  0.00224
 plradd ia,ip,cpol           10           0  3.21320295E-02

 Point added to stored polar  1
 Point written to save file  rae104_Re500k.base.pol                          
 Dump file unspecified or not available
 Calculating wake trajectory ...
 Calculating source influence matrix ...

 Solving BL system ...

 Side 1  free  transition at x/c =  0.8095   68
 Side 2  free  transition at x/c =  0.8612   70

   1   rms: 0.8464E-01   max: -.2416E+00   T at   70  2
       a =  1.500      CL =  0.1598
      Cm =  0.0019     CD =  0.00646   =>   CDf =  0.00426    CDp =  0.00221

 Side 1  free  transition at x/c =  0.7851   68
 Side 2  free  transition at x/c =  0.8701   69

   2   rms: 0.3319E-01   max: -.3485E+00   D at   68  1
       a =  1.500      CL =  0.1595
      Cm =  0.0020     CD =  0.00650   =>   CDf =  0.00436    CDp =  0.00215

 Side 1  free  transition at x/c =  0.7911   68
 Side 2  free  transition at x/c =  0.8746   70

   3   rms: 0.9556E-02   max: 0.1351E+00   D at   70  2
       a =  1.500      CL =  0.1601
      Cm =  0.0019     CD =  0.00649   =>   CDf =  0.00424    CDp =  0.00225

 Side 1  free  transition at x/c =  0.7896   68
 Side 2  free  transition at x/c =  0.8727   70

   4   rms: 0.9344E-03   max: 0.1008E-01   D at   70  2
       a =  1.500      CL =  0.1602
      Cm =  0.0019     CD =  0.00649   =>   CDf =  0.00427    CDp =  0.00222

 Side 1  free  transition at x/c =  0.7895   68
 Side 2  free  transition at x/c =  0.8724   70

   5   rms: 0.1140E-04   max: -.1925E-03   D at   72  2
       a =  1.500      CL =  0.1602
      Cm =  0.0019     CD =  0.00649   =>   CDf =  0.00427    CDp =  0.00222
 plradd ia,ip,cpol           11           0  1.58560891E-02

 Point added to stored polar  1
 Point written to save file  rae104_Re500k.base.pol                          
 Dump file unspecified or not available
 Calculating wake trajectory ...
 Calculating source influence matrix ...

 Solving BL system ...

 Side 1  free  transition at x/c =  0.7895   68
 Side 2  free  transition at x/c =  0.8724   70

   1   rms: 0.9157E-01   max: -.2408E+00   T at   70  2
       a =  2.000      CL =  0.2145
      Cm =  0.0025     CD =  0.00642   =>   CDf =  0.00427    CDp =  0.00215

 Side 1  free  transition at x/c =  0.7640   66
 Side 2  free  transition at x/c =  0.8815   70

   2   rms: 0.3370E-01   max: -.3855E+00   D at   67  1
       a =  2.000      CL =  0.2124
      Cm =  0.0029     CD =  0.00644   =>   CDf =  0.00427    CDp =  0.00218

 Side 1  free  transition at x/c =  0.7669   66
 Side 2  free  transition at x/c =  0.8847   71

   3   rms: 0.5209E-02   max: -.6945E-01   D at   70  2
       a =  2.000      CL =  0.2123
      Cm =  0.0029     CD =  0.00646   =>   CDf =  0.00426    CDp =  0.00220

 Side 1  free  transition at x/c =  0.7657   66
 Side 2  free  transition at x/c =  0.8847   71

   4   rms: 0.4978E-03   max: 0.5463E-02   C at   71  2
       a =  2.000      CL =  0.2123
      Cm =  0.0029     CD =  0.00646   =>   CDf =  0.00425    CDp =  0.00221

 Side 1  free  transition at x/c =  0.7657   66
 Side 2  free  transition at x/c =  0.8845   71

   5   rms: 0.3827E-05   max: -.5207E-04   D at   73  2
       a =  2.000      CL =  0.2123
      Cm =  0.0029     CD =  0.00646   =>   CDf =  0.00425    CDp =  0.00221
 plradd ia,ip,cpol           12           0  7.28139002E-03

 Point added to stored polar  1
 Point written to save file  rae104_Re500k.base.pol                          
 Dump file unspecified or not available
 Calculating wake trajectory ...
 Calculating source influence matrix ...

 Solving BL system ...

 Side 1  free  transition at x/c =  0.7657   66
 Side 2  free  transition at x/c =  0.8845   71

   1   rms: 0.9306E-01   max: -.2504E+00   T at   71  2
       a =  2.500      CL =  0.2662
      Cm =  0.0035     CD =  0.00632   =>   CDf =  0.00418    CDp =  0.00214

 Side 1  free  transition at x/c =  0.7293   65
 Side 2  free  transition at x/c =  0.8943   70

   2   rms: 0.2681E-01   max: 0.4042E+00   D at   66  1
       a =  2.500      CL =  0.2635
      Cm =  0.0041     CD =  0.00645   =>   CDf =  0.00431    CDp =  0.00214

 Side 1  free  transition at x/c =  0.7377   65
 Side 2  free  transition at x/c =  0.8975   70

   3   rms: 0.6151E-02   max: 0.7330E-01   C at   65  1
       a =  2.500      CL =  0.2647
      Cm =  0.0039     CD =  0.00643   =>   CDf =  0.00417    CDp =  0.00226

 Side 1  free  transition at x/c =  0.7354   65
 Side 2  free  transition at x/c =  0.8967   70

   4   rms: 0.2010E-03   max: -.2448E-02   D at   65  1
       a =  2.500      CL =  0.2647
      Cm =  0.0039     CD =  0.00643   =>   CDf =  0.00419    CDp =  0.00224

 Side 1  free  transition at x/c =  0.7354   65
 Side 2  free  transition at x/c =  0.8967   70

   5   rms: 0.1419E-05   max: 0.7483E-05   D at    6  1
       a =  2.500      CL =  0.2647
      Cm =  0.0039     CD =  0.00643   =>   CDf =  0.00419    CDp =  0.00224
 plradd ia,ip,cpol           13           0  7.28139002E-03

 Point added to stored polar  1
 Point written to save file  rae104_Re500k.base.pol                          
 Dump file unspecified or not available
 Calculating wake trajectory ...
 Calculating source influence matrix ...

 Solving BL system ...

 Side 1  free  transition at x/c =  0.7354   65
 Side 2  free  transition at x/c =  0.8967   70

   1   rms: 0.9136E-01   max: -.2383E+00   T at   70  2
       a =  3.000      CL =  0.3142
      Cm =  0.0053     CD =  0.00641   =>   CDf =  0.00419    CDp =  0.00222

 Side 1  free  transition at x/c =  0.6821   61
 Side 2  free  transition at x/c =  0.9138   72

   2   rms: 0.2757E-01   max: 0.3490E+00   D at   64  1
       a =  3.000      CL =  0.3141
      Cm =  0.0055     CD =  0.00649   =>   CDf =  0.00428    CDp =  0.00220

 Side 1  free  transition at x/c =  0.6959   62
 Side 2  free  transition at x/c =  0.9121   71

   3   rms: 0.1620E-01   max: 0.2657E+00   C at   62  1
       a =  3.000      CL =  0.3158
      Cm =  0.0051     CD =  0.00645   =>   CDf =  0.00412    CDp =  0.00232

 Side 1  free  transition at x/c =  0.6903   62
 Side 2  free  transition at x/c =  0.9108   71

   4   rms: 0.1100E-02   max: -.1502E-01   D at   65  1
       a =  3.000      CL =  0.3158
      Cm =  0.0051     CD =  0.00646   =>   CDf =  0.00417    CDp =  0.00229

 Side 1  free  transition at x/c =  0.6900   62
 Side 2  free  transition at x/c =  0.9108   71

   5   rms: 0.6808E-05   max: -.9000E-04   D at   65  1
       a =  3.000      CL =  0.3158
      Cm =  0.0051     CD =  0.00646   =>   CDf =  0.00418    CDp =  0.00228
 plradd ia,ip,cpol           14           0  2.73212651E-03

 Point added to stored polar  1
 Point written to save file  rae104_Re500k.base.pol                          
 Dump file unspecified or not available
 Calculating wake trajectory ...
 Calculating source influence matrix ...

 Solving BL system ...

 Side 1  free  transition at x/c =  0.6900   62
 Side 2  free  transition at x/c =  0.9108   71

   1   rms: 0.1110E+00   max: 0.8149E+00   C at   62  1   RLX: 0.775
       a =  3.500      CL =  0.3517
      Cm =  0.0069     CD =  0.00654   =>   CDf =  0.00408    CDp =  0.00247

 Side 1  free  transition at x/c =  0.5778   55
 Side 2  free  transition at x/c =  0.9255   71

   2   rms: 0.4794E-01   max: 0.7263E+00   C at   55  1
       a =  3.500      CL =  0.3572
      Cm =  0.0084     CD =  0.00690   =>   CDf =  0.00447    CDp =  0.00243

 Side 1  free  transition at x/c =  0.5160   50
 Side 2  free  transition at x/c =  0.9298   72

   3   rms: 0.1482E-01   max: -.2365E+00   C at   50  1
       a =  3.500      CL =  0.3571
      Cm =  0.0083     CD =  0.00702   =>   CDf =  0.00470    CDp =  0.00233

 Side 1  free  transition at x/c =  0.5247   51
 Side 2  free  transition at x/c =  0.9281   72

   4   rms: 0.4221E-02   max: 0.7780E-01   C at   51  1
       a =  3.500      CL =  0.3574
      Cm =  0.0083     CD =  0.00702   =>   CDf =  0.00465    CDp =  0.00237

 Side 1  free  transition at x/c =  0.5224   51
 Side 2  free  transition at x/c =  0.9280   72

   5   rms: 0.6180E-04   max: -.1106E-02   C at   51  1
       a =  3.500      CL =  0.3574
      Cm =  0.0083     CD =  0.00702   =>   CDf =  0.00466    CDp =  0.00235
 plradd ia,ip,cpol           15           0  2.73212651E-03

 Point added to stored polar  1
 Point written to save file  rae104_Re500k.base.pol                          
 Dump file unspecified or not available
 Calculating wake trajectory ...
 Calculating source influence matrix ...

 Solving BL system ...

 Side 1  free  transition at x/c =  0.5224   51
 Side 2  free  transition at x/c =  0.9280   72

   1   rms: 0.5364E+00   max: 0.1014E+02   C at   51  1   RLX: 0.148
       a =  4.000      CL =  0.3621
      Cm =  0.0089     CD =  0.00731   =>   CDf =  0.00466    CDp =  0.00265

 Side 1  free  transition at x/c =  0.4683   47
 Side 2  free  transition at x/c =  0.9303   72

   2   rms: 0.3750E+00   max: 0.7134E+01   C at   47  1   RLX: 0.210
       a =  4.000      CL =  0.3686
      Cm =  0.0095     CD =  0.00765   =>   CDf =  0.00488    CDp =  0.00277

 Side 1  free  transition at x/c =  0.4039   43
 Side 2  free  transition at x/c =  0.9332   72

   3   rms: 0.2670E+00   max: 0.5030E+01   C at   43  1   RLX: 0.298
[...]
 MRCHDU: Convergence failed at  91  side 2    Res =  0.5421E-03
 Side 1  free  transition at x/c =  0.0186   15
 Side 2 forced transition at x/c =  1.0000   76

 134   rms: 0.5244E+03   max: 0.1210E+05   T at   93  2   RLX: 0.000
       a = 10.250      CL =  0.9327
      Cm = -0.1307     CD =+Infinity   =>   CDf =  0.00312    CDp =+Infinity

 MRCHDU: Convergence failed at  76  side 1    Res =  0.1096E-01
 MRCHDU: Convergence failed at  77  side 1    Res =  0.3792E-01
 MRCHDU: Convergence failed at  78  side 1    Res =  0.3308E-01
 MRCHDU: Convergence failed at  79  side 1    Res =  0.2793E-01
 MRCHDU: Convergence failed at  80  side 1    Res =  0.2381E-01
 MRCHDU: Convergence failed at  81  side 1    Res =  0.2849E-01
 MRCHDU: Convergence failed at  82  side 1    Res =  0.8418E-01
 MRCHDU: Convergence failed at  83  side 1    Res =  0.1492E-01
 MRCHDU: Convergence failed at  84  side 1    Res =  0.4827E-02
 MRCHDU: Convergence failed at  85  side 1    Res =  0.2191E-02
 MRCHDU: Convergence failed at  86  side 1    Res =  0.5199E-03
 MRCHDU: Convergence failed at  89  side 2    Res =  0.1147E-01
 MRCHDU: Convergence failed at  90  side 2    Res =  0.3608E-02
 MRCHDU: Convergence failed at  91  side 2    Res =  0.4708E-03
 Side 1  free  transition at x/c =  0.0186   15
 Side 2 forced transition at x/c =  1.0000   76

 135   rms: 0.3336E+03   max: 0.6196E+04   T at   93  2   RLX: 0.000
       a = 10.250      CL =  0.9326
      Cm = -0.1307     CD =+Infinity   =>   CDf =  0.00312    CDp =+Infinity

 MRCHDU: Convergence failed at  76  side 1    Res =  0.1096E-01
 MRCHDU: Convergence failed at  77  side 1    Res =  0.3791E-01
 MRCHDU: Convergence failed at  78  side 1    Res =  0.3308E-01
 MRCHDU: Convergence failed at  79  side 1    Res =  0.2794E-01
 MRCHDU: Convergence failed at  80  side 1    Res =  0.2381E-01
 MRCHDU: Convergence failed at  81  side 1    Res =  0.2849E-01
 MRCHDU: Convergence failed at  82  side 1    Res =  0.8462E-01
 MRCHDU: Convergence failed at  83  side 1    Res =  0.1497E-01
 MRCHDU: Convergence failed at  84  side 1    Res =  0.4841E-02
 MRCHDU: Convergence failed at  85  side 1    Res =  0.2199E-02
 MRCHDU: Convergence failed at  86  side 1    Res =  0.5229E-03
 MRCHDU: Convergence failed at  89  side 2    Res =  0.8600E-02
 MRCHDU: Convergence failed at  90  side 2    Res =  0.3397E-02
 MRCHDU: Convergence failed at  91  side 2    Res =  0.3866E-03
 Side 1  free  transition at x/c =  0.0186   15
 Side 2 forced transition at x/c =  1.0000   76

 136   rms: 0.3723E+03   max: -.6075E+04   T at   91  2   RLX: 0.000
       a = 10.250      CL =  0.9325
      Cm = -0.1307     CD =+Infinity   =>   CDf =  0.00312    CDp =+Infinity

 MRCHDU: Convergence failed at  76  side 1    Res =  0.1096E-01
 MRCHDU: Convergence failed at  77  side 1    Res =  0.3791E-01
 MRCHDU: Convergence failed at  78  side 1    Res =  0.3309E-01
 MRCHDU: Convergence failed at  79  side 1    Res =  0.2794E-01
 MRCHDU: Convergence failed at  80  side 1    Res =  0.2383E-01
 MRCHDU: Convergence failed at  81  side 1    Res =  0.2846E-01
 MRCHDU: Convergence failed at  82  side 1    Res =  0.8457E-01
 MRCHDU: Convergence failed at  83  side 1    Res =  0.1512E-01
 MRCHDU: Convergence failed at  84  side 1    Res =  0.4894E-02
 MRCHDU: Convergence failed at  85  side 1    Res =  0.2232E-02
 MRCHDU: Convergence failed at  86  side 1    Res =  0.5342E-03
 Side 1  free  transition at x/c =  0.0186   15
 Side 2 forced transition at x/c =  1.0000   76

 137   rms: 0.2070E+04   max: 0.4704E+05   T at   96  2   RLX: 0.000
       a = 10.250      CL =  0.9324
      Cm = -0.1307     CD =+Infinity   =>   CDf =  0.00312    CDp =+Infinity

 MRCHDU: Convergence failed at  76  side 1    Res =  0.1096E-01
 MRCHDU: Convergence failed at  77  side 1    Res =  0.3791E-01
 MRCHDU: Convergence failed at  78  side 1    Res =  0.3308E-01
 MRCHDU: Convergence failed at  79  side 1    Res =  0.2794E-01
 MRCHDU: Convergence failed at  80  side 1    Res =  0.2381E-01
 MRCHDU: Convergence failed at  81  side 1    Res =  0.2849E-01
 MRCHDU: Convergence failed at  82  side 1    Res =  0.8516E-01
 MRCHDU: Convergence failed at  83  side 1    Res =  0.1511E-01
 MRCHDU: Convergence failed at  84  side 1    Res =  0.4889E-02
 MRCHDU: Convergence failed at  85  side 1    Res =  0.2228E-02
 MRCHDU: Convergence failed at  86  side 1    Res =  0.5325E-03
 MRCHDU: Convergence failed at  89  side 2    Res =  0.8104E-03
 MRCHDU: Convergence failed at  90  side 2    Res =  0.2420E-02
 MRCHDU: Convergence failed at  91  side 2    Res =  0.4024E-04
 Side 1  free  transition at x/c =  0.0186   15
 Side 2 forced transition at x/c =  1.0000   76

 138   rms: 0.1862E+04   max: -.4247E+05   T at   96  2   RLX: 0.000
       a = 10.250      CL =  0.9324
      Cm = -0.1307     CD =+Infinity   =>   CDf =  0.00312    CDp =+Infinity

 MRCHDU: Convergence failed at  76  side 1    Res =  0.1096E-01
 MRCHDU: Convergence failed at  77  side 1    Res =  0.3791E-01
 MRCHDU: Convergence failed at  78  side 1    Res =  0.3309E-01
 MRCHDU: Convergence failed at  79  side 1    Res =  0.2794E-01
 MRCHDU: Convergence failed at  80  side 1    Res =  0.2381E-01
 MRCHDU: Convergence failed at  81  side 1    Res =  0.2849E-01
 MRCHDU: Convergence failed at  82  side 1    Res =  0.8505E-01
 MRCHDU: Convergence failed at  83  side 1    Res =  0.1508E-01
 MRCHDU: Convergence failed at  84  side 1    Res =  0.4879E-02
 MRCHDU: Convergence failed at  85  side 1    Res =  0.2222E-02
 MRCHDU: Convergence failed at  86  side 1    Res =  0.5301E-03
 MRCHDU: Convergence failed at  89  side 2    Res =  0.3848E-02
 MRCHDU: Convergence failed at  90  side 2    Res =  0.2638E-02
 MRCHDU: Convergence failed at  91  side 2    Res =  0.7820E-04
 Side 1  free  transition at x/c =  0.0186   15
 Side 2 forced transition at x/c =  1.0000   76

 139   rms: 0.4526E+03   max: -.9007E+04   T at   96  2   RLX: 0.000
       a = 10.250      CL =  0.9324
      Cm = -0.1307     CD =+Infinity   =>   CDf =  0.00312    CDp =+Infinity

 MRCHDU: Convergence failed at  76  side 1    Res =  0.1096E-01
 MRCHDU: Convergence failed at  77  side 1    Res =  0.3791E-01
 MRCHDU: Convergence failed at  78  side 1    Res =  0.3308E-01
 MRCHDU: Convergence failed at  79  side 1    Res =  0.2794E-01
 MRCHDU: Convergence failed at  80  side 1    Res =  0.2381E-01
 MRCHDU: Convergence failed at  81  side 1    Res =  0.2844E-01
 MRCHDU: Convergence failed at  82  side 1    Res =  0.8475E-01
 MRCHDU: Convergence failed at  83  side 1    Res =  0.1514E-01
 MRCHDU: Convergence failed at  84  side 1    Res =  0.4908E-02
 MRCHDU: Convergence failed at  85  side 1    Res =  0.2240E-02
 MRCHDU: Convergence failed at  86  side 1    Res =  0.5352E-03
 Side 1  free  transition at x/c =  0.0186   15
 Side 2 forced transition at x/c =  1.0000   76

 140   rms: 0.3805E+04   max: -.7177E+05   T at   96  2   RLX: 0.000
       a = 10.250      CL =  0.9324
      Cm = -0.1307     CD =+Infinity   =>   CDf =  0.00312    CDp =+Infinity

 MRCHDU: Convergence failed at  76  side 1    Res =  0.1096E-01
 MRCHDU: Convergence failed at  77  side 1    Res =  0.3791E-01
 MRCHDU: Convergence failed at  78  side 1    Res =  0.3308E-01
 MRCHDU: Convergence failed at  79  side 1    Res =  0.2794E-01
 MRCHDU: Convergence failed at  80  side 1    Res =  0.2381E-01
 MRCHDU: Convergence failed at  81  side 1    Res =  0.2844E-01
 MRCHDU: Convergence failed at  82  side 1    Res =  0.8475E-01
 MRCHDU: Convergence failed at  83  side 1    Res =  0.1516E-01
 MRCHDU: Convergence failed at  84  side 1    Res =  0.4912E-02
 MRCHDU: Convergence failed at  85  side 1    Res =  0.2242E-02
 MRCHDU: Convergence failed at  86  side 1    Res =  0.5359E-03
 Side 1  free  transition at x/c =  0.0186   15
 Side 2 forced transition at x/c =  1.0000   76

 141   rms: 0.1534E+05   max: 0.4001E+06   T at   96  2   RLX: 0.000
       a = 10.250      CL =  0.9324
      Cm = -0.1307     CD =+Infinity   =>   CDf =  0.00312    CDp =+Infinity

 MRCHDU: Convergence failed at  76  side 1    Res =  0.1096E-01
 MRCHDU: Convergence failed at  77  side 1    Res =  0.3791E-01
 MRCHDU: Convergence failed at  78  side 1    Res =  0.3308E-01
 MRCHDU: Convergence failed at  79  side 1    Res =  0.2794E-01
 MRCHDU: Convergence failed at  80  side 1    Res =  0.2381E-01
 MRCHDU: Convergence failed at  81  side 1    Res =  0.2843E-01
 MRCHDU: Convergence failed at  82  side 1    Res =  0.8465E-01
 MRCHDU: Convergence failed at  83  side 1    Res =  0.1515E-01
 MRCHDU: Convergence failed at  84  side 1    Res =  0.4908E-02
 MRCHDU: Convergence failed at  85  side 1    Res =  0.2240E-02
 MRCHDU: Convergence failed at  86  side 1    Res =  0.5350E-03
 MRCHDU: Convergence failed at  90  side 2    Res =  0.5402E-03
 Side 1  free  transition at x/c =  0.0186   15
 Side 2 forced transition at x/c =  1.0000   76

 142   rms: 0.1989E+06   max: -.5172E+07   T at   96  2   RLX: 0.000
       a = 10.250      CL =  0.9324
      Cm = -0.1307     CD =+Infinity   =>   CDf =  0.00312    CDp =+Infinity

 MRCHDU: Convergence failed at  76  side 1    Res =  0.1096E-01
 MRCHDU: Convergence failed at  77  side 1    Res =  0.3791E-01
 MRCHDU: Convergence failed at  78  side 1    Res =  0.3308E-01
 MRCHDU: Convergence failed at  79  side 1    Res =  0.2794E-01
 MRCHDU: Convergence failed at  80  side 1    Res =  0.2381E-01
 MRCHDU: Convergence failed at  81  side 1    Res =  0.2843E-01
 MRCHDU: Convergence failed at  82  side 1    Res =  0.8467E-01
 MRCHDU: Convergence failed at  83  side 1    Res =  0.1515E-01
 MRCHDU: Convergence failed at  84  side 1    Res =  0.4910E-02
 MRCHDU: Convergence failed at  85  side 1    Res =  0.2241E-02
 MRCHDU: Convergence failed at  86  side 1    Res =  0.5355E-03
 Side 1  free  transition at x/c =  0.0186   15
 Side 2 forced transition at x/c =  1.0000   76

 143   rms: 0.5114E+03   max: -.1344E+05   T at   96  2   RLX: 0.000
       a = 10.250      CL =  0.9323
      Cm = -0.1307     CD =+Infinity   =>   CDf =  0.00312    CDp =+Infinity

 MRCHDU: Convergence failed at  76  side 1    Res =  0.1096E-01
 MRCHDU: Convergence failed at  77  side 1    Res =  0.3790E-01
 MRCHDU: Convergence failed at  78  side 1    Res =  0.3308E-01
 MRCHDU: Convergence failed at  79  side 1    Res =  0.2794E-01
 MRCHDU: Convergence failed at  80  side 1    Res =  0.2381E-01
 MRCHDU: Convergence failed at  81  side 1    Res =  0.2842E-01
 MRCHDU: Convergence failed at  82  side 1    Res =  0.8481E-01
 MRCHDU: Convergence failed at  83  side 1    Res =  0.1516E-01
 MRCHDU: Convergence failed at  84  side 1    Res =  0.4909E-02
 MRCHDU: Convergence failed at  85  side 1    Res =  0.2241E-02
 MRCHDU: Convergence failed at  86  side 1    Res =  0.5354E-03
 Side 1  free  transition at x/c =  0.0186   15
 Side 2 forced transition at x/c =  1.0000   76

 144   rms: 0.1859E+05   max: 0.4759E+06   T at   96  2   RLX: 0.000
       a = 10.250      CL =  0.9323
      Cm = -0.1307     CD =+Infinity   =>   CDf =  0.00312    CDp =+Infinity

 MRCHDU: Convergence failed at  76  side 1    Res =  0.1096E-01
 MRCHDU: Convergence failed at  77  side 1    Res =  0.3790E-01
 MRCHDU: Convergence failed at  78  side 1    Res =  0.3308E-01
 MRCHDU: Convergence failed at  79  side 1    Res =  0.2794E-01
 MRCHDU: Convergence failed at  80  side 1    Res =  0.2381E-01
 MRCHDU: Convergence failed at  81  side 1    Res =  0.2842E-01
 MRCHDU: Convergence failed at  82  side 1    Res =  0.8481E-01
 MRCHDU: Convergence failed at  83  side 1    Res =  0.1514E-01
 MRCHDU: Convergence failed at  84  side 1    Res =  0.4902E-02
 MRCHDU: Convergence failed at  85  side 1    Res =  0.2237E-02
 MRCHDU: Convergence failed at  86  side 1    Res =  0.5338E-03
 MRCHDU: Convergence failed at  89  side 2    Res =  0.6677E-03
 MRCHDU: Convergence failed at  90  side 2    Res =  0.2184E-02
 Side 1  free  transition at x/c =  0.0186   15
 Side 2 forced transition at x/c =  1.0000   76

 145   rms: 0.4567E+03   max: 0.8750E+04   T at   93  2   RLX: 0.000
       a = 10.250      CL =  0.9321
      Cm = -0.1306     CD =+Infinity   =>   CDf =  0.00312    CDp =+Infinity

 MRCHDU: Convergence failed at  76  side 1    Res =  0.1097E-01
 MRCHDU: Convergence failed at  77  side 1    Res =  0.3789E-01
 MRCHDU: Convergence failed at  78  side 1    Res =  0.3309E-01
 MRCHDU: Convergence failed at  79  side 1    Res =  0.2794E-01
 MRCHDU: Convergence failed at  80  side 1    Res =  0.2378E-01
 MRCHDU: Convergence failed at  81  side 1    Res =  0.2829E-01
 MRCHDU: Convergence failed at  82  side 1    Res =  0.8381E-01
 MRCHDU: Convergence failed at  83  side 1    Res =  0.1505E-01
 MRCHDU: Convergence failed at  84  side 1    Res =  0.4843E-02
 MRCHDU: Convergence failed at  85  side 1    Res =  0.2189E-02
 MRCHDU: Convergence failed at  86  side 1    Res =  0.5185E-03
 MRCHDU: Convergence failed at  89  side 2    Res =  0.2921E+00
 Side 1  free  transition at x/c =  0.0186   15
 Side 2 forced transition at x/c =  1.0000   76

 146   rms: 0.7670E+02   max: 0.1528E+04   T at   98  2   RLX: 0.000
       a = 10.250      CL =  0.9316
      Cm = -0.1305     CD =+Infinity   =>   CDf =  0.00312    CDp =+Infinity

 MRCHDU: Convergence failed at  76  side 1    Res =  0.1097E-01
 MRCHDU: Convergence failed at  77  side 1    Res =  0.3790E-01
 MRCHDU: Convergence failed at  78  side 1    Res =  0.3310E-01
 MRCHDU: Convergence failed at  79  side 1    Res =  0.2793E-01
 MRCHDU: Convergence failed at  80  side 1    Res =  0.2375E-01
 MRCHDU: Convergence failed at  81  side 1    Res =  0.2824E-01
 MRCHDU: Convergence failed at  82  side 1    Res =  0.8318E-01
 MRCHDU: Convergence failed at  83  side 1    Res =  0.1488E-01
 MRCHDU: Convergence failed at  84  side 1    Res =  0.4792E-02
 MRCHDU: Convergence failed at  85  side 1    Res =  0.2156E-02
 MRCHDU: Convergence failed at  86  side 1    Res =  0.5045E-03
 Side 1  free  transition at x/c =  0.0186   15
 Side 2 forced transition at x/c =  1.0000   76

 147   rms: 0.3799E+03   max: -.9283E+04   T at   96  2   RLX: 0.000
       a = 10.250      CL =  0.9315
      Cm = -0.1305     CD =+Infinity   =>   CDf =  0.00312    CDp =+Infinity

 MRCHDU: Convergence failed at  76  side 1    Res =  0.1097E-01
 MRCHDU: Convergence failed at  77  side 1    Res =  0.3790E-01
 MRCHDU: Convergence failed at  78  side 1    Res =  0.3310E-01
 MRCHDU: Convergence failed at  79  side 1    Res =  0.2793E-01
 MRCHDU: Convergence failed at  80  side 1    Res =  0.2374E-01
 MRCHDU: Convergence failed at  81  side 1    Res =  0.2825E-01
 MRCHDU: Convergence failed at  82  side 1    Res =  0.8305E-01
 MRCHDU: Convergence failed at  83  side 1    Res =  0.1485E-01
 MRCHDU: Convergence failed at  84  side 1    Res =  0.4787E-02
 MRCHDU: Convergence failed at  85  side 1    Res =  0.2155E-02
 MRCHDU: Convergence failed at  86  side 1    Res =  0.5047E-03
 Side 1  free  transition at x/c =  0.0186   15
 Side 2 forced transition at x/c =  1.0000   76

 148   rms: 0.2680E+03   max: -.6092E+04   T at   96  2   RLX: 0.000
       a = 10.250      CL =  0.9314
      Cm = -0.1305     CD =+Infinity   =>   CDf =  0.00312    CDp =+Infinity

 MRCHDU: Convergence failed at  76  side 1    Res =  0.1097E-01
 MRCHDU: Convergence failed at  77  side 1    Res =  0.3790E-01
 MRCHDU: Convergence failed at  78  side 1    Res =  0.3310E-01
 MRCHDU: Convergence failed at  79  side 1    Res =  0.2794E-01
 MRCHDU: Convergence failed at  80  side 1    Res =  0.2374E-01
 MRCHDU: Convergence failed at  81  side 1    Res =  0.2821E-01
 MRCHDU: Convergence failed at  82  side 1    Res =  0.8279E-01
 MRCHDU: Convergence failed at  83  side 1    Res =  0.1486E-01
 MRCHDU: Convergence failed at  84  side 1    Res =  0.4788E-02
 MRCHDU: Convergence failed at  85  side 1    Res =  0.2155E-02
 MRCHDU: Convergence failed at  86  side 1    Res =  0.5049E-03
 Side 1  free  transition at x/c =  0.0186   15
 Side 2 forced transition at x/c =  1.0000   76

 149   rms: 0.9500E+02   max: -.2182E+04   T at   98  2   RLX: 0.000
       a = 10.250      CL =  0.9313
      Cm = -0.1304     CD =+Infinity   =>   CDf =  0.00312    CDp =+Infinity

 MRCHDU: Convergence failed at  76  side 1    Res =  0.1097E-01
 MRCHDU: Convergence failed at  77  side 1    Res =  0.3791E-01
 MRCHDU: Convergence failed at  78  side 1    Res =  0.3312E-01
 MRCHDU: Convergence failed at  79  side 1    Res =  0.2794E-01
 MRCHDU: Convergence failed at  80  side 1    Res =  0.2374E-01
 MRCHDU: Convergence failed at  81  side 1    Res =  0.2826E-01
 MRCHDU: Convergence failed at  82  side 1    Res =  0.8438E-01
 MRCHDU: Convergence failed at  83  side 1    Res =  0.1494E-01
 MRCHDU: Convergence failed at  84  side 1    Res =  0.4805E-02
 MRCHDU: Convergence failed at  85  side 1    Res =  0.2166E-02
 MRCHDU: Convergence failed at  86  side 1    Res =  0.5076E-03
 Side 1  free  transition at x/c =  0.0186   15
 Side 2 forced transition at x/c =  1.0000   76

 150   rms: 0.1044E+03   max: 0.2644E+04   T at   96  2   RLX: 0.001
       a = 10.250      CL =  0.9309
      Cm = -0.1304     CD =+Infinity   =>   CDf =  0.00312    CDp =+Infinity

 MRCHDU: Convergence failed at  76  side 1    Res =  0.1097E-01
 MRCHDU: Convergence failed at  77  side 1    Res =  0.3791E-01
 MRCHDU: Convergence failed at  78  side 1    Res =  0.3317E-01
 MRCHDU: Convergence failed at  79  side 1    Res =  0.2803E-01
 MRCHDU: Convergence failed at  80  side 1    Res =  0.2385E-01
 MRCHDU: Convergence failed at  81  side 1    Res =  0.2790E-01
 MRCHDU: Convergence failed at  82  side 1    Res =  0.8424E-01
 MRCHDU: Convergence failed at  83  side 1    Res =  0.1541E-01
 MRCHDU: Convergence failed at  84  side 1    Res =  0.4903E-02
 MRCHDU: Convergence failed at  85  side 1    Res =  0.2208E-02
 MRCHDU: Convergence failed at  86  side 1    Res =  0.5197E-03
 Side 1  free  transition at x/c =  0.0186   15
 Side 2 forced transition at x/c =  1.0000   76

 151   rms: 0.4445E+03   max: -.1186E+05   T at   96  2   RLX: 0.000
       a = 10.250      CL =  0.9309
      Cm = -0.1303     CD =+Infinity   =>   CDf =  0.00312    CDp =+Infinity

 MRCHDU: Convergence failed at  76  side 1    Res =  0.1097E-01
 MRCHDU: Convergence failed at  77  side 1    Res =  0.3791E-01
 MRCHDU: Convergence failed at  78  side 1    Res =  0.3317E-01
 MRCHDU: Convergence failed at  79  side 1    Res =  0.2803E-01
 MRCHDU: Convergence failed at  80  side 1    Res =  0.2386E-01
 MRCHDU: Convergence failed at  81  side 1    Res =  0.2792E-01
 MRCHDU: Convergence failed at  82  side 1    Res =  0.8429E-01
 MRCHDU: Convergence failed at  83  side 1    Res =  0.1538E-01
 MRCHDU: Convergence failed at  84  side 1    Res =  0.4897E-02
 MRCHDU: Convergence failed at  85  side 1    Res =  0.2205E-02
 MRCHDU: Convergence failed at  86  side 1    Res =  0.5190E-03
 Side 1  free  transition at x/c =  0.0186   15
 Side 2 forced transition at x/c =  1.0000   76

 152   rms: 0.6732E+03   max: 0.1798E+05   T at   96  2   RLX: 0.000
       a = 10.250      CL =  0.9308
      Cm = -0.1303     CD =+Infinity   =>   CDf =  0.00312    CDp =+Infinity

 MRCHDU: Convergence failed at  76  side 1    Res =  0.1097E-01
 MRCHDU: Convergence failed at  77  side 1    Res =  0.3792E-01
 MRCHDU: Convergence failed at  78  side 1    Res =  0.3318E-01
 MRCHDU: Convergence failed at  79  side 1    Res =  0.2803E-01
 MRCHDU: Convergence failed at  80  side 1    Res =  0.2385E-01
 MRCHDU: Convergence failed at  81  side 1    Res =  0.2789E-01
 MRCHDU: Convergence failed at  82  side 1    Res =  0.8387E-01
 MRCHDU: Convergence failed at  83  side 1    Res =  0.1534E-01
 MRCHDU: Convergence failed at  84  side 1    Res =  0.4891E-02
 MRCHDU: Convergence failed at  85  side 1    Res =  0.2202E-02
 MRCHDU: Convergence failed at  86  side 1    Res =  0.5173E-03
 Side 1  free  transition at x/c =  0.0186   15
 Side 2 forced transition at x/c =  1.0000   76

 153   rms: 0.1906E+03   max: -.4802E+04   T at   96  2   RLX: 0.000
       a = 10.250      CL =  0.9307

[TIMEOUT]
