  
       XFOIL         Version 6.99
  
 Calculated polar for: RAE 103 AIRFOIL                                 
  
 1 1 Reynolds number fixed          Mach number fixed         
  
 xtrf =   1.000 (top)        1.000 (bottom)  
 Mach =   0.000     Re =     0.600 e 6     Ncrit =   9.000
  
   alpha    CL        CD       CDp       CM     Top_Xtr  Bot_Xtr
  ------ -------- --------- --------- -------- -------- --------
-4.000  -0.4260   0.00862   0.00282  -0.0039   0.9659   0.1712
-3.500  -0.3708   0.00679   0.00209  -0.0051   0.9452   0.4400
-3.000  -0.3181   0.00607   0.00185  -0.0046   0.9179   0.6017
-2.500  -0.2649   0.00595   0.00171  -0.0038   0.8886   0.6500
-2.000  -0.2123   0.00591   0.00160  -0.0029   0.8617   0.6835
-1.500  -0.1597   0.00591   0.00153  -0.0020   0.8384   0.7117
-1.000  -0.1068   0.00589   0.00149  -0.0012   0.8167   0.7359
-0.500  -0.0535   0.00591   0.00147  -0.0006   0.7977   0.7578
0.000   0.0000   0.00589   0.00147  -0.0000   0.7782   0.7782
1.000   0.1069   0.00589   0.00149   0.0012   0.7359   0.8168
1.500   0.1598   0.00591   0.00153   0.0020   0.7117   0.8384
2.000   0.2124   0.00591   0.00159   0.0029   0.6833   0.8618
2.500   0.2649   0.00595   0.00171   0.0038   0.6502   0.8887
3.000   0.3181   0.00608   0.00185   0.0046   0.6010   0.9179
3.500   0.3708   0.00679   0.00209   0.0051   0.4390   0.9452
4.000   0.4261   0.00862   0.00282   0.0039   0.1713   0.9659
4.500   0.4924   0.00989   0.00358   0.0007   0.0566   0.9776
5.000   0.5610   0.01084   0.00447  -0.0026   0.0334   0.9872
5.500   0.6295   0.01188   0.00558  -0.0059   0.0242   0.9955
6.000   0.6857   0.01340   0.00721  -0.0069   0.0196   1.0000
6.500   0.7213   0.01427   0.00817  -0.0032   0.0172   1.0000
7.000   0.7557   0.01568   0.00965   0.0005   0.0152   1.0000
7.500   0.7879   0.01840   0.01263   0.0046   0.0140   1.0000
8.000   0.8249   0.02074   0.01528   0.0078   0.0130   1.0000
8.500   0.8594   0.02336   0.01823   0.0111   0.0120   1.0000
9.000   0.8912   0.02589   0.02106   0.0144   0.0113   1.0000
9.500   0.9090   0.03072   0.02645   0.0192   0.0110   1.0000
10.000   0.9213   0.03473   0.03085   0.0238   0.0105   1.0000
10.250   0.9162   0.03796   0.03439   0.0270   0.0105   1.0000
10.500   0.9059   0.04098   0.03766   0.0306   0.0105   1.0000
10.750   0.7101   0.04698   0.04468   0.0377   0.0131   1.0000
11.000   0.6817   0.05344   0.05126   0.0350   0.0132   1.0000
11.250   0.6529   0.06159   0.05953   0.0304   0.0133   1.0000
