
 ===================================================
  XFOIL Version 6.99
  Copyright (C) 2000   Mark Drela, Harold Youngren

  This software comes with ABSOLUTELY NO WARRANTY,
    subject to the GNU General Public License.

  Caveat computor
 ===================================================

 File  xfoil.def  not found

   QUIT    Exit program

  .OPER    Direct operating point(s)
  .MDES    Complex mapping design routine
  .QDES    Surface speed design routine
  .GDES    Geometry design routine

   SAVE f  Write airfoil to labeled coordinate file
   PSAV f  Write airfoil to plain coordinate file
   ISAV f  Write airfoil to ISES coordinate file
   MSAV f  Write airfoil to MSES coordinate file
   REVE    Reverse written-airfoil node ordering

   LOAD f  Read buffer airfoil from coordinate file
   NACA i  Set NACA 4,5-digit airfoil and buffer airfoil
   INTE    Set buffer airfoil by interpolating two airfoils
   NORM    Buffer airfoil normalization toggle
   XYCM rr Change CM reference location, currently  0.25000 0.00000

   BEND    Display structural properties of current airfoil

   PCOP    Set current-airfoil panel nodes directly from buffer airfoil points
   PANE    Set current-airfoil panel nodes ( 160 ) based on curvature
  .PPAR    Show/change paneling

  .PLOP    Plotting options

   WDEF f  Write  current-settings file
   RDEF f  Reread current-settings file
   NAME s  Specify new airfoil name
   NINC    Increment name version number

   Z       Zoom    | (available in all menus)
   U       Unzoom  | 

 XFOIL   c>  
 Labeled airfoil file.  Name:   RAE 2822 AIRFOIL                               

 Number of input coordinate points: 129
 Counterclockwise ordering
 Max thickness =     0.121107  at x =   0.379
 Max camber    =     0.012641  at x =   0.757

  LE  x,y  =  -0.00000   0.00000  |   Chord =   1.00000
  TE  x,y  =   1.00000   0.00000  |

 Current airfoil nodes set from buffer airfoil nodes ( 129 )

 XFOIL   c>  
 XFOIL   c>  
 Sharp trailing edge

 Paneling parameters used...
   Number of panel nodes       160
   Panel bunching parameter    1.000
   TE/LE panel density ratio   0.150
   Refined-area/LE panel density ratio    0.200
   Top    side refined area x/c limits  1.000 1.000
   Bottom side refined area x/c limits  1.000 1.000

 XFOIL   c>  
.OPERi   c>  
 Xtr/c     =  1.0000    top    side
 Xtr/c     =  1.0000    bottom side
 Ncrit     =    9.00   ( 0.070 % turb. level )
 Vacc      =  0.0100

 Klag  =  5.6000     Uxwt  =    1.00
 A     =  6.7000     B     =  0.7500       KCt = 0.01485
 CtiniK=  1.8000     CtiniX=  3.3000

..VPAR   c>  
..VPAR   c>  
.OPERi   c>  
 M  =    0.0000
 Re =    300000

.OPERv   c>  
.OPERv   c>  
.OPERv   c>  
 Polar  1 newly created for accumulation
 Airfoil archived with polar: RAE 2822 AIRFOIL                                

Enter  polar save filename  OR  <return> for no file   s>  
 New polar save file available

Enter  polar dump filename  OR  <return> for no file   s>  
 Polar dump file will NOT be written

 Polar accumulation enabled

.OPERva   c>   Calculating unit vorticity distributions ...
 Calculating wake trajectory ...
 Calculating source influence matrix ...

 Solving BL system ...

 Initializing BL ...
    side            1  ...
 MRCHUE: Inverse mode at  62     Hk =   3.955
 MRCHUE: Inverse mode at  63     Hk =   4.371
 MRCHUE: Inverse mode at  64     Hk =   4.780
 MRCHUE: Inverse mode at  65     Hk =   5.183
 MRCHUE: Inverse mode at  66     Hk =   5.582
 MRCHUE: Inverse mode at  67     Hk =   5.975
 MRCHUE: Inverse mode at  68     Hk =   6.365
 MRCHUE: Inverse mode at  69     Hk =   6.752
 MRCHUE: Inverse mode at  70     Hk =   7.134
 MRCHUE: Inverse mode at  71     Hk =   7.514
 MRCHUE: Inverse mode at  72     Hk =   7.889
 MRCHUE: Inverse mode at  73     Hk =   8.260
 MRCHUE: Inverse mode at  74     Hk =   8.617
 MRCHUE: Inverse mode at  75     Hk =   8.947
 MRCHUE: Inverse mode at  76     Hk =   9.225
 MRCHUE: Inverse mode at  77     Hk =   8.751
    side            2  ...
 MRCHUE: Inverse mode at  46     Hk =   3.816
 MRCHUE: Inverse mode at  47     Hk =   4.319
 MRCHUE: Inverse mode at  48     Hk =   4.813
 MRCHUE: Inverse mode at  49     Hk =   5.299
 MRCHUE: Inverse mode at  50     Hk =   5.779
 MRCHUE: Inverse mode at  51     Hk =   6.255
 MRCHUE: Inverse mode at  52     Hk =   6.726
 MRCHUE: Inverse mode at  53     Hk =   7.194
 MRCHUE: Inverse mode at  54     Hk =   7.659
 MRCHUE: Inverse mode at  55     Hk =   8.011
 MRCHUE: Inverse mode at  56     Hk =   5.752
 MRCHUE: Inverse mode at  57     Hk =   4.329
 MRCHUE: Inverse mode at  58     Hk =   3.287

 Side 1  free  transition at x/c =  0.9959   77
 Side 2  free  transition at x/c =  0.5749   55
 idif Ue xi dudx           1  0.21257830      2.39121914E-03   88.899544    
 Uenew xinew           2  1.52288247E-02  1.71303749E-04

   1   rms: 0.1519E+00   max: 0.1223E+01   T at   77  1   RLX: 0.886
       a = -4.000      CL = -0.2942
      Cm = -0.0567     CD =  0.00934   =>   CDf =  0.00542    CDp =  0.00392

 Side 1  free  transition at x/c =  0.9694   73
 Side 2  free  transition at x/c =  0.5659   56

   2   rms: 0.1155E+00   max: 0.1023E+01   T at   73  1   RLX: 0.660
       a = -4.000      CL = -0.3467
      Cm = -0.0447     CD =  0.01001   =>   CDf =  0.00538    CDp =  0.00463

 Side 1  free  transition at x/c =  0.9518   72
 Side 2  free  transition at x/c =  0.5592   55

   3   rms: 0.3484E-01   max: -.4438E+00   D at   75  1
       a = -4.000      CL = -0.3344
      Cm = -0.0467     CD =  0.01115   =>   CDf =  0.00538    CDp =  0.00577

 Side 1  free  transition at x/c =  0.9551   72
 Side 2  free  transition at x/c =  0.5605   55

   4   rms: 0.3167E-01   max: -.3053E+00   T at   72  1
       a = -4.000      CL = -0.3092
      Cm = -0.0519     CD =  0.01106   =>   CDf =  0.00541    CDp =  0.00565

 Side 1  free  transition at x/c =  0.9663   73
 Side 2  free  transition at x/c =  0.5664   56

   5   rms: 0.7074E-01   max: 0.5830E+00   D at   75  1
       a = -4.000      CL = -0.3302
      Cm = -0.0476     CD =  0.01086   =>   CDf =  0.00533    CDp =  0.00553

 Side 1  free  transition at x/c =  0.9561   72
 Side 2  free  transition at x/c =  0.5611   56

   6   rms: 0.1084E+01   max: 0.1091E+02   T at   72  1   RLX: 0.063
       a = -4.000      CL = -0.3798
      Cm = -0.0374     CD =  0.01103   =>   CDf =  0.00540    CDp =  0.00564

 Side 1  free  transition at x/c =  0.9387   71
 Side 2  free  transition at x/c =  0.5533   55

   7   rms: 0.1599E+00   max: -.1487E+01   T at   71  1   RLX: 0.336
       a = -4.000      CL = -0.3409
      Cm = -0.0446     CD =  0.01263   =>   CDf =  0.00534    CDp =  0.00729

 Side 1  free  transition at x/c =  0.9558   72
 Side 2  free  transition at x/c =  0.5603   55

   8   rms: 0.4535E-01   max: -.3790E+00   T at   72  1
       a = -4.000      CL = -0.3014
      Cm = -0.0536     CD =  0.01106   =>   CDf =  0.00545    CDp =  0.00561

 Side 1  free  transition at x/c =  0.9696   73
 Side 2  free  transition at x/c =  0.5691   56

   9   rms: 0.2545E+00   max: 0.2286E+01   T at   73  1   RLX: 0.328
       a = -4.000      CL = -0.3605
      Cm = -0.0414     CD =  0.01014   =>   CDf =  0.00529    CDp =  0.00486

 Side 1  free  transition at x/c =  0.9480   72
 Side 2  free  transition at x/c =  0.5589   55

  10   rms: 0.4627E-01   max: -.2835E+00   D at   72  1
       a = -4.000      CL = -0.3291
      Cm = -0.0478     CD =  0.01087   =>   CDf =  0.00538    CDp =  0.00549

 Side 1  free  transition at x/c =  0.9570   73
 Side 2  free  transition at x/c =  0.5620   56

  11   rms: 0.6336E-02   max: 0.6827E-01   D at   56  2
       a = -4.000      CL = -0.3288
      Cm = -0.0478     CD =  0.01101   =>   CDf =  0.00540    CDp =  0.00562

 Side 1  free  transition at x/c =  0.9568   73
 Side 2  free  transition at x/c =  0.5612   56

  12   rms: 0.2323E-03   max: 0.2708E-02   D at   56  2
       a = -4.000      CL = -0.3288
      Cm = -0.0478     CD =  0.01102   =>   CDf =  0.00540    CDp =  0.00561

 Side 1  free  transition at x/c =  0.9568   73
 Side 2  free  transition at x/c =  0.5611   56

  13   rms: 0.1719E-05   max: 0.1128E-04   T at   56  2
       a = -4.000      CL = -0.3288
      Cm = -0.0478     CD =  0.01102   =>   CDf =  0.00541    CDp =  0.00561
 plradd ia,ip,cpol            1           0  6.09004451E-03

 Point added to stored polar  1
 Point written to save file  rae2822_Re300k.base.pol                         
 Dump file unspecified or not available
 Calculating wake trajectory ...
 Calculating source influence matrix ...

 Solving BL system ...

 Side 1  free  transition at x/c =  0.9568   73
 Side 2  free  transition at x/c =  0.5611   56

   1   rms: 0.1165E+00   max: 0.6090E+00   D at   57  2   RLX: 0.884
       a = -3.500      CL = -0.2621
      Cm = -0.0512     CD =  0.01104   =>   CDf =  0.00548    CDp =  0.00556

 Side 1  free  transition at x/c =  0.9544   73
 Side 2  free  transition at x/c =  0.5777   56

   2   rms: 0.1740E+00   max: 0.1661E+01   T at   73  1   RLX: 0.460
       a = -3.500      CL = -0.3146
      Cm = -0.0404     CD =  0.01171   =>   CDf =  0.00563    CDp =  0.00608

 Side 1  free  transition at x/c =  0.9329   72
 Side 2  free  transition at x/c =  0.5768   56

   3   rms: 0.9775E-01   max: -.5753E+00   T at   72  1   RLX: 0.869
       a = -3.500      CL = -0.2653
      Cm = -0.0494     CD =  0.01104   =>   CDf =  0.00558    CDp =  0.00546

 Side 1  free  transition at x/c =  0.9517   73
 Side 2  free  transition at x/c =  0.5849   56

   4   rms: 0.3374E-01   max: -.2296E+00   D at   56  2
       a = -3.500      CL = -0.2677
      Cm = -0.0489     CD =  0.01118   =>   CDf =  0.00549    CDp =  0.00569

 Side 1  free  transition at x/c =  0.9472   73
 Side 2  free  transition at x/c =  0.5865   56

   5   rms: 0.2530E-02   max: 0.3124E-01   D at   57  2
       a = -3.500      CL = -0.2676
      Cm = -0.0489     CD =  0.01117   =>   CDf =  0.00544    CDp =  0.00573

 Side 1  free  transition at x/c =  0.9474   73
 Side 2  free  transition at x/c =  0.5859   56

   6   rms: 0.1473E-04   max: 0.1655E-03   D at   57  2
       a = -3.500      CL = -0.2676
      Cm = -0.0489     CD =  0.01117   =>   CDf =  0.00545    CDp =  0.00573
 plradd ia,ip,cpol            2           0  6.09004451E-03

 Point added to stored polar  1
 Point written to save file  rae2822_Re300k.base.pol                         
 Dump file unspecified or not available
 Calculating wake trajectory ...
 Calculating source influence matrix ...

 Solving BL system ...

 Side 1  free  transition at x/c =  0.9474   73
 Side 2  free  transition at x/c =  0.5859   56

   1   rms: 0.1030E+00   max: -.5830E+00   T at   56  2   RLX: 0.858
       a = -3.000      CL = -0.2064
      Cm = -0.0517     CD =  0.01136   =>   CDf =  0.00544    CDp =  0.00592

 Side 1  free  transition at x/c =  0.9420   73
 Side 2  free  transition at x/c =  0.6074   58

   2   rms: 0.3598E-01   max: 0.4443E+00   D at   58  2
       a = -3.000      CL = -0.1935
      Cm = -0.0525     CD =  0.01132   =>   CDf =  0.00556    CDp =  0.00576

 Side 1  free  transition at x/c =  0.9430   74
 Side 2  free  transition at x/c =  0.6109   57

   3   rms: 0.8377E-02   max: 0.8274E-01   D at   57  2
       a = -3.000      CL = -0.1931
      Cm = -0.0525     CD =  0.01137   =>   CDf =  0.00545    CDp =  0.00592

 Side 1  free  transition at x/c =  0.9431   74
 Side 2  free  transition at x/c =  0.6106   57

   4   rms: 0.7596E-03   max: 0.8236E-02   D at    4  1
       a = -3.000      CL = -0.1931
      Cm = -0.0525     CD =  0.01137   =>   CDf =  0.00545    CDp =  0.00592

 Side 1  free  transition at x/c =  0.9431   74
 Side 2  free  transition at x/c =  0.6106   57

   5   rms: 0.1032E-05   max: 0.5439E-05   D at   83  2
       a = -3.000      CL = -0.1931
      Cm = -0.0525     CD =  0.01137   =>   CDf =  0.00545    CDp =  0.00592
 plradd ia,ip,cpol            3           0  1.18009662E-02

 Point added to stored polar  1
 Point written to save file  rae2822_Re300k.base.pol                         
 Dump file unspecified or not available
 Calculating wake trajectory ...
 Calculating source influence matrix ...

 Solving BL system ...

 Side 1  free  transition at x/c =  0.9431   74
 Side 2  free  transition at x/c =  0.6106   57

   1   rms: 0.1295E+00   max: -.7759E+00   T at   57  2   RLX: 0.644
       a = -2.500      CL = -0.1443
      Cm = -0.0547     CD =  0.01168   =>   CDf =  0.00545    CDp =  0.00623

 Side 1  free  transition at x/c =  0.9413   73
 Side 2  free  transition at x/c =  0.6197   57

   2   rms: 0.1103E+00   max: -.9233E+00   T at   57  2   RLX: 0.542
       a = -2.500      CL = -0.1041
      Cm = -0.0615     CD =  0.01316   =>   CDf =  0.00546    CDp =  0.00769

 MRCHDU: Convergence failed at  59  side 2    Res =  0.1934E+01
 MRCHDU: Convergence failed at  60  side 2    Res =  0.1458E+02
 MRCHDU: Convergence failed at  61  side 2    Res =  0.2830E+01
 MRCHDU: Convergence failed at  62  side 2    Res =  0.2634E+01
 MRCHDU: Convergence failed at  63  side 2    Res =  0.2671E+01
 MRCHDU: Convergence failed at  64  side 2    Res =  0.3451E+01
 MRCHDU: Convergence failed at  65  side 2    Res =  0.4523E+01
 MRCHDU: Convergence failed at  66  side 2    Res =  0.6182E+01
 MRCHDU: Convergence failed at  67  side 2    Res =  0.8353E+01
 MRCHDU: Convergence failed at  68  side 2    Res =  0.1276E+02
 MRCHDU: Convergence failed at  69  side 2    Res =  0.2253E+02
 MRCHDU: Convergence failed at  70  side 2    Res =  0.4336E+02
 MRCHDU: Convergence failed at  71  side 2    Res =  0.2507E+03
 MRCHDU: Convergence failed at  72  side 2    Res =  0.2293E+03
 MRCHDU: Convergence failed at  73  side 2    Res =  0.7701E+02
 MRCHDU: Convergence failed at  74  side 2    Res =  0.1949E+03
 MRCHDU: Convergence failed at  75  side 2    Res =  0.1084E+03
 MRCHDU: Convergence failed at  76  side 2    Res =  0.8967E+02
 MRCHDU: Convergence failed at  77  side 2    Res =  0.7116E+02
 MRCHDU: Convergence failed at  78  side 2    Res =  0.7445E+02
 MRCHDU: Convergence failed at  79  side 2    Res =  0.8096E+02
 MRCHDU: Convergence failed at  80  side 2    Res =  0.7651E+02
 MRCHDU: Convergence failed at  81  side 2    Res =  0.9517E+02
 MRCHDU: Convergence failed at  82  side 2    Res =  0.2067E+03
 MRCHDU: Convergence failed at  83  side 2    Res =  0.7089E+02
 MRCHDU: Convergence failed at  84  side 2    Res =  0.1376E+02
 Side 1  free  transition at x/c =  0.9494   74
 Side 2  free  transition at x/c =  0.6302   58

   3   rms: 0.3920E+00   max: 0.1669E+01   D at   86  2   RLX: 0.899
       a = -2.500      CL = -0.1056
      Cm = -0.0467     CD =  0.00926   =>   CDf =  0.00439    CDp =  0.00486

 MRCHDU: Convergence failed at  86  side 2    Res =  0.1548E+01
 MRCHDU: Convergence failed at  87  side 2    Res =  0.1841E+01
 MRCHDU: Convergence failed at  88  side 2    Res =  0.2191E+02
 MRCHDU: Convergence failed at  89  side 2    Res =  0.2157E+01
 Side 1  free  transition at x/c =  0.9556   74
 Side 2  free  transition at x/c =  0.6136   57

   4   rms: 0.1886E+01   max: -.1859E+02   T at   74  1   RLX: 0.027
       a = -2.500      CL = -0.0501
      Cm = -0.0660     CD =  0.01296   =>   CDf =  0.00523    CDp =  0.00773

 MRCHDU: Convergence failed at  77  side 1    Res =  0.4678E+01
 MRCHDU: Convergence failed at  78  side 1    Res =  0.5166E+01
 MRCHDU: Convergence failed at  79  side 1    Res =  0.1373E+02
 Side 1  free  transition at x/c =  0.9796   77
 Side 2  free  transition at x/c =  0.6144   56

   5   rms: 0.1808E+00   max: 0.1231E+01   T at   79  1   RLX: 0.534
       a = -2.500      CL = -0.0626
      Cm = -0.0693     CD =  0.01057   =>   CDf =  0.00524    CDp =  0.00533

 Side 1  free  transition at x/c =  0.9515   75
 Side 2  free  transition at x/c =  0.6276   57

   6   rms: 0.1863E+00   max: -.1390E+01   D at   74  2   RLX: 0.360
       a = -2.500      CL = -0.0737
      Cm = -0.0675     CD =  0.01054   =>   CDf =  0.00525    CDp =  0.00529

 MRCHDU: Convergence failed at  71  side 2    Res =  0.5547E+00
 Side 1  free  transition at x/c =  0.9445   75
 Side 2  free  transition at x/c =  0.6297   57
 idif Ue xi dudx           1  0.25184125      2.07579136E-03   121.32301    
 Uenew xinew           2  3.18037607E-02  2.62141228E-04

   7   rms: 0.9862E-01   max: -.6590E+00   D at   74  2   RLX: 0.759
       a = -2.500      CL = -0.1018
      Cm = -0.0606     CD =  0.01123   =>   CDf =  0.00549    CDp =  0.00574

 Side 1  free  transition at x/c =  0.9398   73
 Side 2  free  transition at x/c =  0.6300   58

   8   rms: 0.2954E+00   max: 0.2673E+01   T at   73  1   RLX: 0.292
       a = -2.500      CL = -0.1759
      Cm = -0.0450     CD =  0.01157   =>   CDf =  0.00546    CDp =  0.00611

 Side 1  free  transition at x/c =  0.9156   72
 Side 2  free  transition at x/c =  0.6281   58

   9   rms: 0.9147E-01   max: -.5158E+00   T at   72  1   RLX: 0.969
       a = -2.500      CL = -0.1368
      Cm = -0.0524     CD =  0.01136   =>   CDf =  0.00543    CDp =  0.00593

 Side 1  free  transition at x/c =  0.9337   73
 Side 2  free  transition at x/c =  0.6277   58

  10   rms: 0.1103E-01   max: 0.6834E-01   D at   74  1
       a = -2.500      CL = -0.1307
      Cm = -0.0538     CD =  0.01150   =>   CDf =  0.00545    CDp =  0.00605

 Side 1  free  transition at x/c =  0.9343   73
 Side 2  free  transition at x/c =  0.6283   58

  11   rms: 0.2609E-03   max: -.2272E-02   D at   75  1
       a = -2.500      CL = -0.1306
      Cm = -0.0538     CD =  0.01150   =>   CDf =  0.00545    CDp =  0.00604

 Side 1  free  transition at x/c =  0.9343   73
 Side 2  free  transition at x/c =  0.6283   58

  12   rms: 0.2769E-05   max: 0.1894E-04   D at   60  2
       a = -2.500      CL = -0.1306
      Cm = -0.0538     CD =  0.01150   =>   CDf =  0.00545    CDp =  0.00604
 plradd ia,ip,cpol            4           0  1.58236176E-02

 Point added to stored polar  1
 Point written to save file  rae2822_Re300k.base.pol                         
 Dump file unspecified or not available
 Calculating wake trajectory ...
 Calculating source influence matrix ...

 Solving BL system ...

 Side 1  free  transition at x/c =  0.9343   73
 Side 2  free  transition at x/c =  0.6283   58

   1   rms: 0.9032E-01   max: -.2200E+00   T at   58  2
       a = -2.000      CL = -0.0593
      Cm = -0.0573     CD =  0.01128   =>   CDf =  0.00548    CDp =  0.00581

 Side 1  free  transition at x/c =  0.9279   74
 Side 2  free  transition at x/c =  0.6349   57

   2   rms: 0.2526E-01   max: -.1494E+00   D at   58  2
       a = -2.000      CL = -0.0552
      Cm = -0.0583     CD =  0.01125   =>   CDf =  0.00559    CDp =  0.00566

 Side 1  free  transition at x/c =  0.9295   74
 Side 2  free  transition at x/c =  0.6369   58

   3   rms: 0.9918E-02   max: 0.1137E+00   D at   58  2
       a = -2.000      CL = -0.0555
      Cm = -0.0582     CD =  0.01122   =>   CDf =  0.00558    CDp =  0.00563

 Side 1  free  transition at x/c =  0.9297   74
 Side 2  free  transition at x/c =  0.6359   58

   4   rms: 0.4198E-03   max: 0.4040E-02   D at   59  2
       a = -2.000      CL = -0.0555
      Cm = -0.0582     CD =  0.01122   =>   CDf =  0.00557    CDp =  0.00564

 Side 1  free  transition at x/c =  0.9297   74
 Side 2  free  transition at x/c =  0.6359   58

   5   rms: 0.1045E-05   max: -.7599E-05   T at   58  2
       a = -2.000      CL = -0.0555
      Cm = -0.0582     CD =  0.01122   =>   CDf =  0.00558    CDp =  0.00564
 plradd ia,ip,cpol            5           0  3.59431095E-02

 Point added to stored polar  1
 Point written to save file  rae2822_Re300k.base.pol                         
 Dump file unspecified or not available
 Calculating wake trajectory ...
 Calculating source influence matrix ...

 Solving BL system ...

 Side 1  free  transition at x/c =  0.9297   74
 Side 2  free  transition at x/c =  0.6359   58

   1   rms: 0.9360E-01   max: -.2480E+00   T at   58  2
       a = -1.500      CL =  0.0193
      Cm = -0.0622     CD =  0.01087   =>   CDf =  0.00558    CDp =  0.00528

 Side 1  free  transition at x/c =  0.9262   74
 Side 2  free  transition at x/c =  0.6424   57
 idif Ue xi dudx           1  0.27474722      2.05898285E-03   133.43832    
 Uenew xinew           2  5.37818633E-02  4.03046608E-04

   2   rms: 0.1592E+00   max: 0.1341E+01   T at   74  1   RLX: 0.547
       a = -1.500      CL = -0.0457
      Cm = -0.0491     CD =  0.01150   =>   CDf =  0.00558    CDp =  0.00591

 Side 1  free  transition at x/c =  0.9014   72
 Side 2  free  transition at x/c =  0.6419   58

   3   rms: 0.9980E-01   max: -.6292E+00   T at   72  1   RLX: 0.795
       a = -1.500      CL =  0.0025
      Cm = -0.0584     CD =  0.01137   =>   CDf =  0.00554    CDp =  0.00583

 Side 1  free  transition at x/c =  0.9212   74
 Side 2  free  transition at x/c =  0.6424   57

   4   rms: 0.6259E-02   max: 0.5922E-01   D at   75  1
       a = -1.500      CL =  0.0087
      Cm = -0.0600     CD =  0.01103   =>   CDf =  0.00556    CDp =  0.00547

 Side 1  free  transition at x/c =  0.9215   74
 Side 2  free  transition at x/c =  0.6423   57

   5   rms: 0.1872E-03   max: 0.1253E-02   D at    4  1
       a = -1.500      CL =  0.0087
      Cm = -0.0600     CD =  0.01103   =>   CDf =  0.00556    CDp =  0.00547

 Side 1  free  transition at x/c =  0.9215   74
 Side 2  free  transition at x/c =  0.6423   57

   6   rms: 0.2881E-05   max: 0.2314E-04   D at    4  1
       a = -1.500      CL =  0.0087
      Cm = -0.0600     CD =  0.01103   =>   CDf =  0.00556    CDp =  0.00547
 plradd ia,ip,cpol            6           0  0.34289315    

 Point added to stored polar  1
 Point written to save file  rae2822_Re300k.base.pol                         
 Dump file unspecified or not available
 Calculating wake trajectory ...
 Calculating source influence matrix ...

 Solving BL system ...

 Side 1  free  transition at x/c =  0.9215   74
 Side 2  free  transition at x/c =  0.6423   57

   1   rms: 0.8375E-01   max: -.2026E+00   T at   57  2
       a = -1.000      CL =  0.0696
      Cm = -0.0612     CD =  0.01087   =>   CDf =  0.00556    CDp =  0.00531

 Side 1  free  transition at x/c =  0.9114   73
 Side 2  free  transition at x/c =  0.6489   57

   2   rms: 0.1559E+00   max: -.1264E+01   T at   73  1   RLX: 0.395
       a = -1.000      CL =  0.1103
      Cm = -0.0690     CD =  0.01088   =>   CDf =  0.00562    CDp =  0.00527

 MRCHDU: Convergence failed at  75  side 1    Res =  0.9471E+01
 MRCHDU: Convergence failed at  76  side 1    Res =  0.1208E+02
 MRCHDU: Convergence failed at  77  side 1    Res =  0.1118E+02
 MRCHDU: Convergence failed at  78  side 1    Res =  0.6883E+01
 MRCHDU: Convergence failed at  79  side 1    Res =  0.7114E+01
 MRCHDU: Convergence failed at  80  side 1    Res =  0.9967E+01
 Side 1  free  transition at x/c =  0.9362   75
 Side 2  free  transition at x/c =  0.6497   57

   3   rms: 0.2124E+00   max: 0.1452E+01   C at   75  1
       a = -1.000      CL =  0.0327
      Cm = -0.0543     CD =  0.00927   =>   CDf =  0.00560    CDp =  0.00367

 Side 1  free  transition at x/c =  0.8958   72
 Side 2  free  transition at x/c =  0.6499   57

   4   rms: 0.9557E+00   max: -.8618E+01   T at   72  1   RLX: 0.058
       a = -1.000      CL =  0.0772
      Cm = -0.0624     CD =  0.01306   =>   CDf =  0.00564    CDp =  0.00742

 Side 1  free  transition at x/c =  0.9158   74
 Side 2  free  transition at x/c =  0.6503   58

   5   rms: 0.3119E-01   max: -.3264E+00   D at   74  1
       a = -1.000      CL =  0.0864
      Cm = -0.0649     CD =  0.01076   =>   CDf =  0.00564    CDp =  0.00512

 Side 1  free  transition at x/c =  0.9172   74
 Side 2  free  transition at x/c =  0.6502   58

   6   rms: 0.1407E-01   max: 0.7074E-01   T at   74  1
       a = -1.000      CL =  0.0777
      Cm = -0.0630     CD =  0.01078   =>   CDf =  0.00562    CDp =  0.00516

 Side 1  free  transition at x/c =  0.9145   74
 Side 2  free  transition at x/c =  0.6501   58

   7   rms: 0.1641E-02   max: -.1250E-01   D at   75  1
       a = -1.000      CL =  0.0781
      Cm = -0.0630     CD =  0.01078   =>   CDf =  0.00563    CDp =  0.00515

 Side 1  free  transition at x/c =  0.9148   74
 Side 2  free  transition at x/c =  0.6501   58

   8   rms: 0.8779E-05   max: 0.6573E-04   D at   58  2
       a = -1.000      CL =  0.0781
      Cm = -0.0630     CD =  0.01078   =>   CDf =  0.00563    CDp =  0.00515
 plradd ia,ip,cpol            7           0  0.34289315    

 Point added to stored polar  1
 Point written to save file  rae2822_Re300k.base.pol                         
 Dump file unspecified or not available
 Calculating wake trajectory ...
 Calculating source influence matrix ...

 Solving BL system ...

 Side 1  free  transition at x/c =  0.9148   74
 Side 2  free  transition at x/c =  0.6501   58

   1   rms: 0.9227E-01   max: -.2737E+00   T at   58  2
       a = -0.500      CL =  0.1491
      Cm = -0.0661     CD =  0.01040   =>   CDf =  0.00560    CDp =  0.00480

 Side 1  free  transition at x/c =  0.9101   74
 Side 2  free  transition at x/c =  0.6569   57

   2   rms: 0.3694E-01   max: 0.2767E+00   T at   74  1
       a = -0.500      CL =  0.1225
      Cm = -0.0608     CD =  0.01080   =>   CDf =  0.00555    CDp =  0.00525

 Side 1  free  transition at x/c =  0.8978   74
 Side 2  free  transition at x/c =  0.6566   57

   3   rms: 0.3086E-01   max: -.2293E+00   D at   76  1
       a = -0.500      CL =  0.1400
      Cm = -0.0645     CD =  0.01062   =>   CDf =  0.00556    CDp =  0.00506

 Side 1  free  transition at x/c =  0.9036   74
 Side 2  free  transition at x/c =  0.6568   57

   4   rms: 0.1048E-01   max: -.8959E-01   D at   76  1
       a = -0.500      CL =  0.1383
      Cm = -0.0640     CD =  0.01061   =>   CDf =  0.00554    CDp =  0.00507

 Side 1  free  transition at x/c =  0.9049   74
 Side 2  free  transition at x/c =  0.6568   57

   5   rms: 0.6493E-03   max: 0.8627E-02   D at   76  1
       a = -0.500      CL =  0.1381
      Cm = -0.0639     CD =  0.01062   =>   CDf =  0.00555    CDp =  0.00507

 Side 1  free  transition at x/c =  0.9048   74
 Side 2  free  transition at x/c =  0.6568   57

   6   rms: 0.4807E-05   max: -.4036E-04   D at   75  1
       a = -0.500      CL =  0.1381
      Cm = -0.0639     CD =  0.01062   =>   CDf =  0.00555    CDp =  0.00507
 plradd ia,ip,cpol            8           0  0.35730410    

 Point added to stored polar  1
 Point written to save file  rae2822_Re300k.base.pol                         
 Dump file unspecified or not available
 Calculating wake trajectory ...
 Calculating source influence matrix ...

 Solving BL system ...

 Side 1  free  transition at x/c =  0.9048   74
 Side 2  free  transition at x/c =  0.6568   57

   1   rms: 0.8538E-01   max: -.2066E+00   T at   57  2
       a =  0.000      CL =  0.2015
      Cm = -0.0655     CD =  0.01045   =>   CDf =  0.00550    CDp =  0.00494

 Side 1  free  transition at x/c =  0.8957   74
 Side 2  free  transition at x/c =  0.6636   56

   2   rms: 0.2094E-01   max: -.1315E+00   D at   57  2
       a =  0.000      CL =  0.2073
      Cm = -0.0667     CD =  0.01039   =>   CDf =  0.00556    CDp =  0.00483

 Side 1  free  transition at x/c =  0.8985   75
 Side 2  free  transition at x/c =  0.6652   57

   3   rms: 0.4362E-02   max: -.5147E-01   D at   56  2
       a =  0.000      CL =  0.2062
      Cm = -0.0665     CD =  0.01039   =>   CDf =  0.00558    CDp =  0.00481

 Side 1  free  transition at x/c =  0.8978   75
 Side 2  free  transition at x/c =  0.6651   57

   4   rms: 0.2774E-03   max: 0.2470E-02   D at   57  2
       a =  0.000      CL =  0.2062
      Cm = -0.0665     CD =  0.01039   =>   CDf =  0.00556    CDp =  0.00483

 Side 1  free  transition at x/c =  0.8978   75
 Side 2  free  transition at x/c =  0.6651   57

   5   rms: 0.1492E-05   max: -.1136E-04   D at    4  1
       a =  0.000      CL =  0.2062
      Cm = -0.0665     CD =  0.01039   =>   CDf =  0.00556    CDp =  0.00483
 plradd ia,ip,cpol            9           0  0.38150316    

 Point added to stored polar  1
 Point written to save file  rae2822_Re300k.base.pol                         
 Dump file unspecified or not available
 Calculating wake trajectory ...
 Calculating source influence matrix ...

 Solving BL system ...

 Side 1  free  transition at x/c =  0.8978   75
 Side 2  free  transition at x/c =  0.6651   57

   1   rms: 0.9217E-01   max: -.2766E+00   T at   57  2
       a =  0.500      CL =  0.2756
      Cm = -0.0691     CD =  0.01006   =>   CDf =  0.00557    CDp =  0.00449

 Side 1  free  transition at x/c =  0.8911   74
 Side 2  free  transition at x/c =  0.6723   57

   2   rms: 0.2723E-01   max: 0.2027E+00   T at   74  1
       a =  0.500      CL =  0.2552
      Cm = -0.0651     CD =  0.01039   =>   CDf =  0.00542    CDp =  0.00496

 Side 1  free  transition at x/c =  0.8813   73
 Side 2  free  transition at x/c =  0.6721   57

   3   rms: 0.2850E-01   max: -.2151E+00   T at   73  1
       a =  0.500      CL =  0.2721
      Cm = -0.0682     CD =  0.01013   =>   CDf =  0.00547    CDp =  0.00466

 Side 1  free  transition at x/c =  0.8928   74
 Side 2  free  transition at x/c =  0.6722   57

   4   rms: 0.3292E-01   max: 0.3376E+00   D at   75  1
       a =  0.500      CL =  0.2728
      Cm = -0.0686     CD =  0.01010   =>   CDf =  0.00542    CDp =  0.00468

 Side 1  free  transition at x/c =  0.8884   74
 Side 2  free  transition at x/c =  0.6722   57

   5   rms: 0.1267E-01   max: -.9450E-01   D at   82  1
       a =  0.500      CL =  0.2640
      Cm = -0.0668     CD =  0.01025   =>   CDf =  0.00542    CDp =  0.00483

 Side 1  free  transition at x/c =  0.8850   74
 Side 2  free  transition at x/c =  0.6722   57

   6   rms: 0.1880E-02   max: -.2029E-01   D at   75  1
       a =  0.500      CL =  0.2628
      Cm = -0.0665     CD =  0.01025   =>   CDf =  0.00545    CDp =  0.00480

 Side 1  free  transition at x/c =  0.8852   74
 Side 2  free  transition at x/c =  0.6721   57

   7   rms: 0.3164E-04   max: 0.5051E-03   D at   75  1
       a =  0.500      CL =  0.2629
      Cm = -0.0665     CD =  0.01025   =>   CDf =  0.00545    CDp =  0.00480
 plradd ia,ip,cpol           10           0  3.12131513E-02

 Point added to stored polar  1
 Point written to save file  rae2822_Re300k.base.pol                         
 Dump file unspecified or not available
 Calculating wake trajectory ...
 Calculating source influence matrix ...

 Solving BL system ...

 Side 1  free  transition at x/c =  0.8852   74
 Side 2  free  transition at x/c =  0.6721   57

   1   rms: 0.9085E-01   max: -.2197E+00   T at   57  2
       a =  1.000      CL =  0.3302
      Cm = -0.0685     CD =  0.01000   =>   CDf =  0.00537    CDp =  0.00463

 Side 1  free  transition at x/c =  0.8749   74
 Side 2  free  transition at x/c =  0.6799   56

   2   rms: 0.2159E-01   max: -.1455E+00   D at   57  2
       a =  1.000      CL =  0.3193
      Cm = -0.0666     CD =  0.01018   =>   CDf =  0.00540    CDp =  0.00477

 Side 1  free  transition at x/c =  0.8695   74
 Side 2  free  transition at x/c =  0.6822   57

   3   rms: 0.1011E-01   max: 0.1080E+00   D at   57  2
       a =  1.000      CL =  0.3217
      Cm = -0.0669     CD =  0.01008   =>   CDf =  0.00541    CDp =  0.00466

 Side 1  free  transition at x/c =  0.8713   74
 Side 2  free  transition at x/c =  0.6812   57

   4   rms: 0.6075E-03   max: 0.4751E-02   D at   57  2
       a =  1.000      CL =  0.3214
      Cm = -0.0669     CD =  0.01008   =>   CDf =  0.00540    CDp =  0.00469

 Side 1  free  transition at x/c =  0.8713   74
 Side 2  free  transition at x/c =  0.6811   57

   5   rms: 0.3042E-05   max: 0.3232E-04   T at   57  2
       a =  1.000      CL =  0.3214
      Cm = -0.0669     CD =  0.01008   =>   CDf =  0.00540    CDp =  0.00469
 plradd ia,ip,cpol           11           0  1.80019978E-02

 Point added to stored polar  1
 Point written to save file  rae2822_Re300k.base.pol                         
 Dump file unspecified or not available
 Calculating wake trajectory ...
 Calculating source influence matrix ...

 Solving BL system ...

 Side 1  free  transition at x/c =  0.8713   74
 Side 2  free  transition at x/c =  0.6811   57

   1   rms: 0.9172E-01   max: -.2653E+00   T at   57  2
       a =  1.500      CL =  0.3859
      Cm = -0.0681     CD =  0.00974   =>   CDf =  0.00530    CDp =  0.00443

 Side 1  free  transition at x/c =  0.8534   73
 Side 2  free  transition at x/c =  0.6882   56

   2   rms: 0.3180E-01   max: -.2973E+00   D at   74  1
       a =  1.500      CL =  0.3837
      Cm = -0.0675     CD =  0.00981   =>   CDf =  0.00527    CDp =  0.00454

 Side 1  free  transition at x/c =  0.8558   74
 Side 2  free  transition at x/c =  0.6894   56

   3   rms: 0.6658E-02   max: 0.6885E-01   D at   75  1
       a =  1.500      CL =  0.3804
      Cm = -0.0669     CD =  0.00983   =>   CDf =  0.00528    CDp =  0.00454

 Side 1  free  transition at x/c =  0.8543   74
 Side 2  free  transition at x/c =  0.6891   56

   4   rms: 0.4497E-03   max: -.3368E-02   D at   84  1
       a =  1.500      CL =  0.3801
      Cm = -0.0669     CD =  0.00983   =>   CDf =  0.00529    CDp =  0.00453

 Side 1  free  transition at x/c =  0.8542   74
 Side 2  free  transition at x/c =  0.6891   56

   5   rms: 0.3336E-05   max: -.2768E-04   D at   84  1
       a =  1.500      CL =  0.3801
      Cm = -0.0669     CD =  0.00983   =>   CDf =  0.00530    CDp =  0.00453
 plradd ia,ip,cpol           12           0  1.35117965E-02

 Point added to stored polar  1
 Point written to save file  rae2822_Re300k.base.pol                         
 Dump file unspecified or not available
 Calculating wake trajectory ...
 Calculating source influence matrix ...

 Solving BL system ...

 Side 1  free  transition at x/c =  0.8542   74
 Side 2  free  transition at x/c =  0.6891   56

   1   rms: 0.1030E+00   max: -.2184E+00   T at   56  2
       a =  2.000      CL =  0.4479
      Cm = -0.0684     CD =  0.00948   =>   CDf =  0.00530    CDp =  0.00419

 Side 1  free  transition at x/c =  0.8120   71
 Side 2  free  transition at x/c =  0.6996   57

   2   rms: 0.4710E-01   max: 0.6426E+00   D at   73  1
       a =  2.000      CL =  0.4235
      Cm = -0.0635     CD =  0.00989   =>   CDf =  0.00535    CDp =  0.00454

 Side 1  free  transition at x/c =  0.8203   71
 Side 2  free  transition at x/c =  0.6985   57

   3   rms: 0.1316E-01   max: 0.1177E+00   D at   74  1
       a =  2.000      CL =  0.4335
      Cm = -0.0653     CD =  0.00947   =>   CDf =  0.00532    CDp =  0.00415

 Side 1  free  transition at x/c =  0.8218   71
 Side 2  free  transition at x/c =  0.6985   57

   4   rms: 0.8004E-03   max: -.9131E-02   D at   75  1
       a =  2.000      CL =  0.4332
      Cm = -0.0653     CD =  0.00948   =>   CDf =  0.00527    CDp =  0.00421

 Side 1  free  transition at x/c =  0.8215   71
 Side 2  free  transition at x/c =  0.6985   57

   5   rms: 0.5271E-05   max: -.7790E-04   D at   75  1
       a =  2.000      CL =  0.4332
      Cm = -0.0653     CD =  0.00948   =>   CDf =  0.00527    CDp =  0.00421
 plradd ia,ip,cpol           13           0  7.17801368E-03

 Point added to stored polar  1
 Point written to save file  rae2822_Re300k.base.pol                         
 Dump file unspecified or not available
 Calculating wake trajectory ...
 Calculating source influence matrix ...

 Solving BL system ...

 Side 1  free  transition at x/c =  0.8215   71
 Side 2  free  transition at x/c =  0.6985   57

   1   rms: 0.1002E+00   max: 0.6955E+00   T at   71  1
       a =  2.500      CL =  0.4700
      Cm = -0.0607     CD =  0.00925   =>   CDf =  0.00515    CDp =  0.00410

 Side 1  free  transition at x/c =  0.7767   69
 Side 2  free  transition at x/c =  0.7066   56

   2   rms: 0.5031E-01   max: -.4932E+00   D at   71  1
       a =  2.500      CL =  0.4882
      Cm = -0.0642     CD =  0.00925   =>   CDf =  0.00531    CDp =  0.00394

 Side 1  free  transition at x/c =  0.7864   70
 Side 2  free  transition at x/c =  0.7091   56

   3   rms: 0.1488E-01   max: 0.1656E+00   C at   70  1
       a =  2.500      CL =  0.4861
      Cm = -0.0638     CD =  0.00927   =>   CDf =  0.00520    CDp =  0.00407

 Side 1  free  transition at x/c =  0.7822   70
 Side 2  free  transition at x/c =  0.7089   56

   4   rms: 0.2100E-02   max: -.2916E-01   D at   73  1
       a =  2.500      CL =  0.4853
      Cm = -0.0637     CD =  0.00930   =>   CDf =  0.00525    CDp =  0.00405

 Side 1  free  transition at x/c =  0.7817   70
 Side 2  free  transition at x/c =  0.7088   56

   5   rms: 0.3869E-04   max: -.7547E-03   D at   73  1
       a =  2.500      CL =  0.4853
      Cm = -0.0637     CD =  0.00930   =>   CDf =  0.00526    CDp =  0.00403
 plradd ia,ip,cpol           14           0  7.17801368E-03

 Point added to stored polar  1
 Point written to save file  rae2822_Re300k.base.pol                         
 Dump file unspecified or not available
 Calculating wake trajectory ...
 Calculating source influence matrix ...

 Solving BL system ...

 Side 1  free  transition at x/c =  0.7817   70
 Side 2  free  transition at x/c =  0.7088   56

   1   rms: 0.1044E+00   max: -.4872E+00   D at   72  1
       a =  3.000      CL =  0.5447
      Cm = -0.0637     CD =  0.00925   =>   CDf =  0.00527    CDp =  0.00398

 Side 1  free  transition at x/c =  0.7320   66
 Side 2  free  transition at x/c =  0.7234   57

   2   rms: 0.3334E-01   max: 0.3946E+00   D at   69  1
       a =  3.000      CL =  0.5363
      Cm = -0.0619     CD =  0.00921   =>   CDf =  0.00528    CDp =  0.00394

 Side 1  free  transition at x/c =  0.7391   67
 Side 2  free  transition at x/c =  0.7177   57

   3   rms: 0.6997E-02   max: -.7662E-01   D at   69  1
       a =  3.000      CL =  0.5362
      Cm = -0.0621     CD =  0.00925   =>   CDf =  0.00519    CDp =  0.00406

 Side 1  free  transition at x/c =  0.7367   67
 Side 2  free  transition at x/c =  0.7184   57

   4   rms: 0.5937E-03   max: -.7935E-02   D at   69  1
       a =  3.000      CL =  0.5362
      Cm = -0.0621     CD =  0.00925   =>   CDf =  0.00521    CDp =  0.00404

 Side 1  free  transition at x/c =  0.7366   67
 Side 2  free  transition at x/c =  0.7185   57

   5   rms: 0.4167E-05   max: -.5618E-04   D at   69  1
       a =  3.000      CL =  0.5362
      Cm = -0.0621     CD =  0.00925   =>   CDf =  0.00522    CDp =  0.00404
 plradd ia,ip,cpol           15           0  4.94030444E-03

 Point added to stored polar  1
 Point written to save file  rae2822_Re300k.base.pol                         
 Dump file unspecified or not available
 Calculating wake trajectory ...
 Calculating source influence matrix ...

 Solving BL system ...

 Side 1  free  transition at x/c =  0.7366   67
 Side 2  free  transition at x/c =  0.7185   57

   1   rms: 0.1118E+00   max: 0.6395E+00   C at   67  1   RLX: 0.817
       a =  3.500      CL =  0.5804
      Cm = -0.0611     CD =  0.00933   =>   CDf =  0.00507    CDp =  0.00427

 Side 1  free  transition at x/c =  0.6648   63
 Side 2  free  transition at x/c =  0.7279   57

   2   rms: 0.3211E-01   max: -.2990E+00   D at   64  1
       a =  3.500      CL =  0.5828
      Cm = -0.0595     CD =  0.00937   =>   CDf =  0.00537    CDp =  0.00400

 Side 1  free  transition at x/c =  0.6548   62
 Side 2  free  transition at x/c =  0.7297   57

   3   rms: 0.2780E-02   max: -.3165E-01   D at   64  1
       a =  3.500      CL =  0.5829
      Cm = -0.0596     CD =  0.00942   =>   CDf =  0.00532    CDp =  0.00410

 Side 1  free  transition at x/c =  0.6536   62
 Side 2  free  transition at x/c =  0.7298   57

   4   rms: 0.3276E-04   max: -.4676E-03   D at   67  1
       a =  3.500      CL =  0.5829
      Cm = -0.0596     CD =  0.00942   =>   CDf =  0.00533    CDp =  0.00409
 plradd ia,ip,cpol           16           0  3.17540043E-03

 Point added to stored polar  1
 Point written to save file  rae2822_Re300k.base.pol                         
 Dump file unspecified or not available
 Calculating wake trajectory ...
 Calculating source influence matrix ...

 Solving BL system ...

 Side 1  free  transition at x/c =  0.6536   62
 Side 2  free  transition at x/c =  0.7297   57

   1   rms: 0.1402E+00   max: 0.1689E+01   C at   62  1   RLX: 0.647
       a =  4.000      CL =  0.6096
      Cm = -0.0572     CD =  0.00970   =>   CDf =  0.00533    CDp =  0.00437

 Side 1  free  transition at x/c =  0.4650   49
 Side 2  free  transition at x/c =  0.7365   57

   2   rms: 0.8899E-01   max: 0.1524E+01   C at   49  1   RLX: 0.984
       a =  4.000      CL =  0.6091
      Cm = -0.0537     CD =  0.01095   =>   CDf =  0.00616    CDp =  0.00479

 Side 1  free  transition at x/c =  0.3470   41
 Side 2  free  transition at x/c =  0.7430   58

   3   rms: 0.2734E-01   max: -.4626E+00   C at   41  1
       a =  4.000      CL =  0.6050
      Cm = -0.0530     CD =  0.01119   =>   CDf =  0.00671    CDp =  0.00448

 Side 1  free  transition at x/c =  0.3686   43
 Side 2  free  transition at x/c =  0.7419   58

   4   rms: 0.7357E-02   max: 0.1372E+00   C at   43  1
       a =  4.000      CL =  0.6053
      Cm = -0.0530     CD =  0.01118   =>   CDf =  0.00659    CDp =  0.00459

 Side 1  free  transition at x/c =  0.3648   42
 Side 2  free  transition at x/c =  0.7418   58

   5   rms: 0.4740E-03   max: 0.8483E-02   C at   42  1
       a =  4.000      CL =  0.6053
      Cm = -0.0530     CD =  0.01118   =>   CDf =  0.00661    CDp =  0.00456

 Side 1  free  transition at x/c =  0.3646   42
 Side 2  free  transition at x/c =  0.7418   58

   6   rms: 0.2344E-05   max: 0.3073E-04   C at   42  1
       a =  4.000      CL =  0.6053
      Cm = -0.0530     CD =  0.01118   =>   CDf =  0.00662    CDp =  0.00456
 plradd ia,ip,cpol           17           0  3.17540043E-03

 Point added to stored polar  1
 Point written to save file  rae2822_Re300k.base.pol                         
 Dump file unspecified or not available
 Calculating wake trajectory ...
 Calculating source influence matrix ...

 Solving BL system ...

 Side 1  free  transition at x/c =  0.3646   42
 Side 2  free  transition at x/c =  0.7418   58

   1   rms: 0.5869E+00   max: 0.1086E+02   C at   42  1   RLX: 0.138
       a =  4.500      CL =  0.6074
      Cm = -0.0521     CD =  0.01157   =>   CDf =  0.00662    CDp =  0.00496

 Side 1  free  transition at x/c =  0.3051   38
 Side 2  free  transition at x/c =  0.7432   58

   2   rms: 0.4099E+00   max: 0.7825E+01   C at   38  1   RLX: 0.192
       a =  4.500      CL =  0.6105
      Cm = -0.0512     CD =  0.01206   =>   CDf =  0.00690    CDp =  0.00516

 Side 1  free  transition at x/c =  0.2398   34
 Side 2  free  transition at x/c =  0.7450   58

   3   rms: 0.3166E+00   max: 0.6253E+01   C at   34  1   RLX: 0.240
       a =  4.500      CL =  0.6133
      Cm = -0.0503     CD =  0.01265   =>   CDf =  0.00721    CDp =  0.00544

 Side 1  free  transition at x/c =  0.1863   30
 Side 2  free  transition at x/c =  0.7471   58

   4   rms: 0.2203E+00   max: 0.4500E+01   C at   30  1   RLX: 0.333
       a =  4.500      CL =  0.6178
      Cm = -0.0496     CD =  0.01308   =>   CDf =  0.00747    CDp =  0.00560

 Side 1  free  transition at x/c =  0.1387   27
 Side 2  free  transition at x/c =  0.7495   58

   5   rms: 0.1248E+00   max: 0.2453E+01   C at   27  1   RLX: 0.611
       a =  4.500      CL =  0.6235
      Cm = -0.0486     CD =  0.01368   =>   CDf =  0.00755    CDp =  0.00613

 Side 1  free  transition at x/c =  0.1055   26
 Side 2  free  transition at x/c =  0.7527   57

   6   rms: 0.4376E-01   max: 0.5234E+00   C at   26  1
       a =  4.500      CL =  0.6277
      Cm = -0.0480     CD =  0.01402   =>   CDf =  0.00792    CDp =  0.00610

 Side 1  free  transition at x/c =  0.0913   25
 Side 2  free  transition at x/c =  0.7548   58

   7   rms: 0.1330E-01   max: -.1789E+00   D at   26  1
       a =  4.500      CL =  0.6286
      Cm = -0.0481     CD =  0.01389   =>   CDf =  0.00805    CDp =  0.00584

 Side 1  free  transition at x/c =  0.0908   25
 Side 2  free  transition at x/c =  0.7550   58

   8   rms: 0.1818E-02   max: -.2309E-01   D at   26  1
       a =  4.500      CL =  0.6286
      Cm = -0.0481     CD =  0.01390   =>   CDf =  0.00801    CDp =  0.00589

 Side 1  free  transition at x/c =  0.0902   24
 Side 2  free  transition at x/c =  0.7549   58

   9   rms: 0.3741E-03   max: -.7107E-02   C at   24  1
       a =  4.500      CL =  0.6286
      Cm = -0.0481     CD =  0.01389   =>   CDf =  0.00802    CDp =  0.00587

 Side 1  free  transition at x/c =  0.0903   24
 Side 2  free  transition at x/c =  0.7549   58

  10   rms: 0.3328E-05   max: 0.9344E-05   C at   24  1
       a =  4.500      CL =  0.6286
      Cm = -0.0481     CD =  0.01389   =>   CDf =  0.00802    CDp =  0.00587
 plradd ia,ip,cpol           18           0  3.17540043E-03

 Point added to stored polar  1
 Point written to save file  rae2822_Re300k.base.pol                         
 Dump file unspecified or not available
 Calculating wake trajectory ...
 Calculating source influence matrix ...

 Solving BL system ...

 Side 1  free  transition at x/c =  0.0903   24
 Side 2  free  transition at x/c =  0.7549   58

   1   rms: 0.1187E+00   max: 0.1029E+01   T at   24  1   RLX: 0.890
       a =  5.000      CL =  0.6689
      Cm = -0.0460     CD =  0.01461   =>   CDf =  0.00802    CDp =  0.00659

 Side 1  free  transition at x/c =  0.0620   22
 Side 2  free  transition at x/c =  0.7650   58

   2   rms: 0.1217E+00   max: -.9870E+00   D at   24  1   RLX: 0.507
       a =  5.000      CL =  0.6605
      Cm = -0.0451     CD =  0.01627   =>   CDf =  0.00808    CDp =  0.00819

 Side 1  free  transition at x/c =  0.0640   23
 Side 2  free  transition at x/c =  0.7677   58

   3   rms: 0.6276E-01   max: -.7964E+00   D at   23  1   RLX: 0.628
       a =  5.000      CL =  0.6664
      Cm = -0.0454     CD =  0.01544   =>   CDf =  0.00804    CDp =  0.00740

 MRCHDU: Convergence failed at  23  side 1    Res =  0.4361E+01
 MRCHDU: Convergence failed at  24  side 1    Res =  0.1145E+01
 Side 1  free  transition at x/c =  0.0629   22
 Side 2  free  transition at x/c =  0.7690   58

   4   rms: 0.5365E-01   max: 0.4913E+00   T at   24  1
       a =  5.000      CL =  0.6738
      Cm = -0.0460     CD =  0.01476   =>   CDf =  0.00780    CDp =  0.00696

 Side 1  free  transition at x/c =  0.0574   22
 Side 2  free  transition at x/c =  0.7694   59

   5   rms: 0.1709E-01   max: -.1301E+00   D at   25  1
       a =  5.000      CL =  0.6710
      Cm = -0.0458     CD =  0.01508   =>   CDf =  0.00808    CDp =  0.00699

 Side 1  free  transition at x/c =  0.0594   22
 Side 2  free  transition at x/c =  0.7695   59

   6   rms: 0.1571E-02   max: -.1401E-01   D at   23  1
       a =  5.000      CL =  0.6706
      Cm = -0.0457     CD =  0.01511   =>   CDf =  0.00804    CDp =  0.00708

 Side 1  free  transition at x/c =  0.0594   22
 Side 2  free  transition at x/c =  0.7694   59

   7   rms: 0.1316E-04   max: -.8522E-04   D at   61  2
       a =  5.000      CL =  0.6706
      Cm = -0.0457     CD =  0.01512   =>   CDf =  0.00804    CDp =  0.00707
 plradd ia,ip,cpol           19           0  1.81474164E-03

 Point added to stored polar  1
 Point written to save file  rae2822_Re300k.base.pol                         
 Dump file unspecified or not available
 Calculating wake trajectory ...
 Calculating source influence matrix ...

 Solving BL system ...

 Side 1  free  transition at x/c =  0.0594   22
 Side 2  free  transition at x/c =  0.7694   59

   1   rms: 0.9716E-01   max: 0.7202E+00   T at   22  1
       a =  5.500      CL =  0.7137
      Cm = -0.0432     CD =  0.01603   =>   CDf =  0.00785    CDp =  0.00819

 MRCHDU: Convergence failed at  23  side 1    Res =  0.2656E+01
 MRCHDU: Convergence failed at  24  side 1    Res =  0.5037E+01
 MRCHDU: Convergence failed at  25  side 1    Res =  0.4515E+01
 MRCHDU: Convergence failed at  26  side 1    Res =  0.4467E+01
 MRCHDU: Convergence failed at  27  side 1    Res =  0.4787E+01
 MRCHDU: Convergence failed at  28  side 1    Res =  0.5297E+01
 MRCHDU: Convergence failed at  29  side 1    Res =  0.5994E+01
 MRCHDU: Convergence failed at  30  side 1    Res =  0.6830E+01
 MRCHDU: Convergence failed at  31  side 1    Res =  0.7899E+01
 MRCHDU: Convergence failed at  32  side 1    Res =  0.9474E+01
 MRCHDU: Convergence failed at  33  side 1    Res =  0.1113E+02
 MRCHDU: Convergence failed at  34  side 1    Res =  0.1322E+02
 MRCHDU: Convergence failed at  35  side 1    Res =  0.1590E+02
 MRCHDU: Convergence failed at  36  side 1    Res =  0.1961E+02
 MRCHDU: Convergence failed at  37  side 1    Res =  0.4144E+02
 MRCHDU: Convergence failed at  38  side 1    Res =  0.7118E+02
 MRCHDU: Convergence failed at  39  side 1    Res =  0.2084E+03
 MRCHDU: Convergence failed at  40  side 1    Res =  0.2680E+03
 MRCHDU: Convergence failed at  41  side 1    Res =  0.2770E+02
 MRCHDU: Convergence failed at  42  side 1    Res =  0.2327E+02
 MRCHDU: Convergence failed at  43  side 1    Res =  0.4751E+02
 MRCHDU: Convergence failed at  44  side 1    Res =  0.4167E+02
 MRCHDU: Convergence failed at  45  side 1    Res =  0.3686E+02
 MRCHDU: Convergence failed at  46  side 1    Res =  0.3407E+02
 MRCHDU: Convergence failed at  47  side 1    Res =  0.3183E+02
 MRCHDU: Convergence failed at  48  side 1    Res =  0.3006E+02
 MRCHDU: Convergence failed at  49  side 1    Res =  0.2858E+02
 MRCHDU: Convergence failed at  50  side 1    Res =  0.2735E+02
 MRCHDU: Convergence failed at  51  side 1    Res =  0.2690E+02
 MRCHDU: Convergence failed at  52  side 1    Res =  0.2587E+02
 MRCHDU: Convergence failed at  53  side 1    Res =  0.2494E+02
 MRCHDU: Convergence failed at  54  side 1    Res =  0.2393E+02
 MRCHDU: Convergence failed at  55  side 1    Res =  0.2359E+02
 MRCHDU: Convergence failed at  56  side 1    Res =  0.2260E+02
 MRCHDU: Convergence failed at  57  side 1    Res =  0.2209E+02
 MRCHDU: Convergence failed at  58  side 1    Res =  0.2107E+02
 MRCHDU: Convergence failed at  59  side 1    Res =  0.2003E+02
 MRCHDU: Convergence failed at  60  side 1    Res =  0.1906E+02
 MRCHDU: Convergence failed at  61  side 1    Res =  0.1814E+02
 MRCHDU: Convergence failed at  62  side 1    Res =  0.1482E+02
 MRCHDU: Convergence failed at  63  side 1    Res =  0.2755E+02
 MRCHDU: Convergence failed at  64  side 1    Res =  0.5415E+02
 MRCHDU: Convergence failed at  65  side 1    Res =  0.3646E+02
 MRCHDU: Convergence failed at  66  side 1    Res =  0.2715E+02
 MRCHDU: Convergence failed at  67  side 1    Res =  0.3733E+02
 MRCHDU: Convergence failed at  68  side 1    Res =  0.3693E+02
 MRCHDU: Convergence failed at  69  side 1    Res =  0.3724E+02
 MRCHDU: Convergence failed at  70  side 1    Res =  0.2670E+02
 MRCHDU: Convergence failed at  71  side 1    Res =  0.2993E+02
 MRCHDU: Convergence failed at  72  side 1    Res =  0.9637E+03
 MRCHDU: Convergence failed at  73  side 1    Res =  0.2040E+02
 MRCHDU: Convergence failed at  74  side 1    Res =  0.1199E+04
 MRCHDU: Convergence failed at  75  side 1    Res =  0.2164E+02
 MRCHDU: Convergence failed at  76  side 1    Res =  0.2793E+02
 MRCHDU: Convergence failed at  77  side 1    Res =  0.7144E+02
 MRCHDU: Convergence failed at  78  side 1    Res =  0.2943E+04
 MRCHDU: Convergence failed at  79  side 1    Res =  0.9478E+02
 MRCHDU: Convergence failed at  80  side 1    Res =  0.9977E+02
 MRCHDU: Convergence failed at  81  side 1    Res =  0.5504E+02
 MRCHDU: Convergence failed at  82  side 1    Res =  0.4195E+02
 MRCHDU: Convergence failed at  83  side 1    Res =  0.3021E+02
 MRCHDU: Convergence failed at  84  side 1    Res =  0.2298E+02
 MRCHDU: Convergence failed at  85  side 1    Res =  0.2532E+02
 MRCHDU: Convergence failed at  86  side 1    Res =  0.3286E+02
 MRCHDU: Convergence failed at  87  side 1    Res =  0.4153E+02
 MRCHDU: Convergence failed at  88  side 1    Res =  0.3747E+03
 Side 1  free  transition at x/c =  0.0485   22
 Side 2  free  transition at x/c =  0.7810   58
 idif Ue xi dudx           1  0.15634207      4.05836105E-03   38.523453    
 Uenew xinew           2  1.16462084E-02  3.02314758E-04

   2   rms: 0.9328E+00   max: 0.4344E+01   D at   76  2   RLX: 0.115
       a =  5.500      CL =  1.6397
      Cm = -0.3781     CD =  0.00605   =>   CDf =  0.00268    CDp =  0.00337

 MRCHDU: Convergence failed at  24  side 1    Res =  0.7156E-01
 MRCHDU: Convergence failed at  34  side 1    Res =  0.2293E+00
 MRCHDU: Convergence failed at  35  side 1    Res =  0.2051E+00
 MRCHDU: Convergence failed at  36  side 1    Res =  0.1639E+00
 MRCHDU: Convergence failed at  37  side 1    Res =  0.3472E-01
 MRCHDU: Convergence failed at  64  side 1    Res =  0.1827E+00
 MRCHDU: Convergence failed at  65  side 1    Res =  0.1754E+00
 MRCHDU: Convergence failed at  66  side 1    Res =  0.1677E+00
 MRCHDU: Convergence failed at  67  side 1    Res =  0.1594E+00
 MRCHDU: Convergence failed at  68  side 1    Res =  0.1503E+00
 MRCHDU: Convergence failed at  69  side 1    Res =  0.1397E+00
 MRCHDU: Convergence failed at  70  side 1    Res =  0.1284E+00
 MRCHDU: Convergence failed at  71  side 1    Res =  0.1155E+00
 MRCHDU: Convergence failed at  72  side 1    Res =  0.1009E+00
 MRCHDU: Convergence failed at  73  side 1    Res =  0.8167E-01
 MRCHDU: Convergence failed at  74  side 1    Res =  0.9039E+01
 MRCHDU: Convergence failed at  75  side 1    Res =  0.8806E+01
 MRCHDU: Convergence failed at  76  side 1    Res =  0.9524E+01
 MRCHDU: Convergence failed at  77  side 1    Res =  0.9622E+01
 MRCHDU: Convergence failed at  78  side 1    Res =  0.1002E+02
 MRCHDU: Convergence failed at  79  side 1    Res =  0.1100E+02
 MRCHDU: Convergence failed at  80  side 1    Res =  0.1019E+02
 MRCHDU: Convergence failed at  81  side 1    Res =  0.3126E+01
 MRCHDU: Convergence failed at  83  side 1    Res =  0.8569E-01
 Side 1  free  transition at x/c =  0.0509   21
 Side 2  free  transition at x/c =  0.7827   59

   3   rms: 0.5794E+00   max: 0.3292E+01   T at   22  1   RLX: 0.186
       a =  5.500      CL =  1.0850
      Cm = -0.2039     CD =  0.02216   =>   CDf =  0.00572    CDp =  0.01644

 MRCHDU: Convergence failed at  22  side 1    Res =  0.2784E+01
 MRCHDU: Convergence failed at  23  side 1    Res =  0.2023E+02
 MRCHDU: Convergence failed at  37  side 1    Res =  0.6411E+00
 MRCHDU: Convergence failed at  38  side 1    Res =  0.8550E+00
 MRCHDU: Convergence failed at  39  side 1    Res =  0.5794E+00
 MRCHDU: Convergence failed at  40  side 1    Res =  0.5521E+00
 MRCHDU: Convergence failed at  41  side 1    Res =  0.5193E+00
 MRCHDU: Convergence failed at  42  side 1    Res =  0.4852E+00
 MRCHDU: Convergence failed at  43  side 1    Res =  0.4498E+00
 MRCHDU: Convergence failed at  44  side 1    Res =  0.4137E+00
 MRCHDU: Convergence failed at  45  side 1    Res =  0.3768E+00
 MRCHDU: Convergence failed at  46  side 1    Res =  0.3391E+00
 MRCHDU: Convergence failed at  47  side 1    Res =  0.3007E+00
 MRCHDU: Convergence failed at  48  side 1    Res =  0.2616E+00
 MRCHDU: Convergence failed at  49  side 1    Res =  0.2215E+00
 MRCHDU: Convergence failed at  50  side 1    Res =  0.1802E+00
 MRCHDU: Convergence failed at  51  side 1    Res =  0.1371E+00
 MRCHDU: Convergence failed at  52  side 1    Res =  0.9182E-01
 MRCHDU: Convergence failed at  73  side 1    Res =  0.3777E+00
 MRCHDU: Convergence failed at  74  side 1    Res =  0.3436E+00
 MRCHDU: Convergence failed at  75  side 1    Res =  0.3214E+00
 MRCHDU: Convergence failed at  76  side 1    Res =  0.3056E+00
 MRCHDU: Convergence failed at  77  side 1    Res =  0.2912E+00
 MRCHDU: Convergence failed at  78  side 1    Res =  0.2814E+00
 MRCHDU: Convergence failed at  79  side 1    Res =  0.2728E+00
 MRCHDU: Convergence failed at  80  side 1    Res =  0.2723E+00
 MRCHDU: Convergence failed at  81  side 1    Res =  0.2908E+00
 MRCHDU: Convergence failed at  82  side 1    Res =  0.4924E+02
 MRCHDU: Convergence failed at  83  side 1    Res =  0.5401E+00
 Side 1  free  transition at x/c =  0.0584   22
 Side 2  free  transition at x/c =  0.7883   60

   4   rms: 0.7005E+01   max: -.6850E+02   D at   52  1   RLX: 0.007
       a =  5.500      CL =  0.8159
      Cm = -0.1138     CD =  0.02053   =>   CDf =  0.00395    CDp =  0.01658

 MRCHDU: Convergence failed at  52  side 1    Res =  0.7508E+00
 MRCHDU: Convergence failed at  53  side 1    Res =  0.9575E+00
 MRCHDU: Convergence failed at  54  side 1    Res =  0.3713E+00
 MRCHDU: Convergence failed at  55  side 1    Res =  0.3443E+00
 MRCHDU: Convergence failed at  56  side 1    Res =  0.2942E+00
 MRCHDU: Convergence failed at  57  side 1    Res =  0.2363E+00
 MRCHDU: Convergence failed at  58  side 1    Res =  0.1584E+00
 MRCHDU: Convergence failed at  63  side 1    Res =  0.4259E+00
 MRCHDU: Convergence failed at  64  side 1    Res =  0.3223E+00
 MRCHDU: Convergence failed at  65  side 1    Res =  0.2033E+00
 MRCHDU: Convergence failed at  66  side 1    Res =  0.2876E-01
 MRCHDU: Convergence failed at  67  side 1    Res =  0.2150E-04
 MRCHDU: Convergence failed at  68  side 1    Res =  0.3346E+01
 Side 1  free  transition at x/c =  0.0603   22
 Side 2  free  transition at x/c =  0.7888   60

   5   rms: 0.9908E+01   max: -.5946E+02   D at   66  1   RLX: 0.008
       a =  5.500      CL =  0.6548
      Cm = -0.0573     CD =  0.02341   =>   CDf =  0.00458    CDp =  0.01884

 MRCHDU: Convergence failed at  66  side 1    Res =  0.7822E+00
 MRCHDU: Convergence failed at  67  side 1    Res =  0.1527E+01
 MRCHDU: Convergence failed at  68  side 1    Res =  0.1440E+01
 MRCHDU: Convergence failed at  69  side 1    Res =  0.1737E+01
 MRCHDU: Convergence failed at  70  side 1    Res =  0.1984E+01
 MRCHDU: Convergence failed at  71  side 1    Res =  0.1938E+01
 MRCHDU: Convergence failed at  72  side 1    Res =  0.1169E+01
 MRCHDU: Convergence failed at  73  side 1    Res =  0.1153E+01
 MRCHDU: Convergence failed at  74  side 1    Res =  0.1123E+01
 MRCHDU: Convergence failed at  75  side 1    Res =  0.1091E+01
 MRCHDU: Convergence failed at  76  side 1    Res =  0.1060E+01
 MRCHDU: Convergence failed at  77  side 1    Res =  0.1028E+01
 MRCHDU: Convergence failed at  78  side 1    Res =  0.9950E+00
 MRCHDU: Convergence failed at  79  side 1    Res =  0.9620E+00
 MRCHDU: Convergence failed at  80  side 1    Res =  0.9284E+00
 MRCHDU: Convergence failed at  81  side 1    Res =  0.8942E+00
 MRCHDU: Convergence failed at  82  side 1    Res =  0.8595E+00
 MRCHDU: Convergence failed at  83  side 1    Res =  0.8247E+00
 Side 1  free  transition at x/c =  0.0656   23
 Side 2  free  transition at x/c =  0.7903   60

   6   rms: 0.2846E+01   max: 0.1043E+02   D at   27  1   RLX: 0.033
       a =  5.500      CL =  0.4386
      Cm =  0.0494     CD =  0.01732   =>   CDf =  0.00395    CDp =  0.01338

 MRCHDU: Convergence failed at  86  side 1    Res =  0.1869E+00
 MRCHDU: Convergence failed at  87  side 1    Res =  0.1985E+01
 Side 1  free  transition at x/c =  0.1107   26
 Side 2  free  transition at x/c =  0.7909   60

   7   rms: 0.8363E+00   max: -.3590E+01   C at   26  1   RLX: 0.139
       a =  5.500      CL =  0.4079
      Cm =  0.0590     CD =  0.03325   =>   CDf =  0.00422    CDp =  0.02903

 Side 1  free  transition at x/c =  0.0864   24
 Side 2  free  transition at x/c =  0.7919   60

   8   rms: 0.1213E+01   max: 0.1074E+02   C at   24  1   RLX: 0.077
       a =  5.500      CL =  0.4319
      Cm =  0.0548     CD =  0.03398   =>   CDf =  0.00425    CDp =  0.02973

 Side 1  free  transition at x/c =  0.0827   24
 Side 2  free  transition at x/c =  0.7917   60

   9   rms: 0.1377E+01   max: -.9912E+01   D at   27  1   RLX: 0.050
       a =  5.500      CL =  0.4517
      Cm =  0.0497     CD =  0.03387   =>   CDf =  0.00459    CDp =  0.02928

 MRCHDU: Convergence failed at  26  side 1    Res =  0.1271E+01
 MRCHDU: Convergence failed at  27  side 1    Res =  0.1268E+01
 MRCHDU: Convergence failed at  28  side 1    Res =  0.9963E+01
 MRCHDU: Convergence failed at  29  side 1    Res =  0.2076E+01
 MRCHDU: Convergence failed at  30  side 1    Res =  0.2433E+01
 MRCHDU: Convergence failed at  31  side 1    Res =  0.6970E+01
 MRCHDU: Convergence failed at  32  side 1    Res =  0.8256E+01
 MRCHDU: Convergence failed at  33  side 1    Res =  0.1415E+01
 MRCHDU: Convergence failed at  34  side 1    Res =  0.1324E+01
 MRCHDU: Convergence failed at  35  side 1    Res =  0.7557E+01
 MRCHDU: Convergence failed at  36  side 1    Res =  0.7588E+01
 MRCHDU: Convergence failed at  37  side 1    Res =  0.7050E+01
 MRCHDU: Convergence failed at  38  side 1    Res =  0.6935E+01
 MRCHDU: Convergence failed at  39  side 1    Res =  0.6655E+01
 MRCHDU: Convergence failed at  40  side 1    Res =  0.7323E+01
 MRCHDU: Convergence failed at  41  side 1    Res =  0.7764E+01
 MRCHDU: Convergence failed at  42  side 1    Res =  0.8666E+01
 MRCHDU: Convergence failed at  43  side 1    Res =  0.9746E+01
 MRCHDU: Convergence failed at  44  side 1    Res =  0.1827E+02
 MRCHDU: Convergence failed at  45  side 1    Res =  0.2531E+03
 MRCHDU: Convergence failed at  46  side 1    Res =  0.2882E+02
 MRCHDU: Convergence failed at  47  side 1    Res =  0.1401E+02
 MRCHDU: Convergence failed at  48  side 1    Res =  0.9568E+01
 MRCHDU: Convergence failed at  49  side 1    Res =  0.7303E+01
 MRCHDU: Convergence failed at  50  side 1    Res =  0.5853E+01
 MRCHDU: Convergence failed at  51  side 1    Res =  0.4801E+01
 MRCHDU: Convergence failed at  52  side 1    Res =  0.4573E+01
 MRCHDU: Convergence failed at  53  side 1    Res =  0.4356E+01
 MRCHDU: Convergence failed at  54  side 1    Res =  0.4151E+01
 MRCHDU: Convergence failed at  55  side 1    Res =  0.3909E+01
 MRCHDU: Convergence failed at  56  side 1    Res =  0.3720E+01
 MRCHDU: Convergence failed at  57  side 1    Res =  0.3499E+01
 MRCHDU: Convergence failed at  58  side 1    Res =  0.3322E+01
 MRCHDU: Convergence failed at  59  side 1    Res =  0.4010E+01
 MRCHDU: Convergence failed at  60  side 1    Res =  0.4672E+01
 MRCHDU: Convergence failed at  61  side 1    Res =  0.4464E+01
 MRCHDU: Convergence failed at  62  side 1    Res =  0.4781E+01
 MRCHDU: Convergence failed at  63  side 1    Res =  0.4362E+01
 MRCHDU: Convergence failed at  64  side 1    Res =  0.3939E+01
 MRCHDU: Convergence failed at  65  side 1    Res =  0.3585E+01
 MRCHDU: Convergence failed at  66  side 1    Res =  0.3425E+01
 MRCHDU: Convergence failed at  67  side 1    Res =  0.3274E+01
 MRCHDU: Convergence failed at  68  side 1    Res =  0.3563E+01
 MRCHDU: Convergence failed at  69  side 1    Res =  0.3644E+01
 MRCHDU: Convergence failed at  70  side 1    Res =  0.3756E+01
 MRCHDU: Convergence failed at  71  side 1    Res =  0.4054E+01
 MRCHDU: Convergence failed at  72  side 1    Res =  0.4319E+01
 MRCHDU: Convergence failed at  73  side 1    Res =  0.4746E+01
 MRCHDU: Convergence failed at  74  side 1    Res =  0.5240E+01
 MRCHDU: Convergence failed at  75  side 1    Res =  0.5687E+01
 MRCHDU: Convergence failed at  76  side 1    Res =  0.6222E+01
 MRCHDU: Convergence failed at  77  side 1    Res =  0.7508E+01
 MRCHDU: Convergence failed at  78  side 1    Res =  0.8108E+01
 MRCHDU: Convergence failed at  79  side 1    Res =  0.1061E+02
 MRCHDU: Convergence failed at  80  side 1    Res =  0.2593E+02
 MRCHDU: Convergence failed at  81  side 1    Res =  0.2856E+02
 MRCHDU: Convergence failed at  82  side 1    Res =  0.3189E+02
 MRCHDU: Convergence failed at  83  side 1    Res =  0.3676E+02
 MRCHDU: Convergence failed at  84  side 1    Res =  0.1260E+02
 MRCHDU: Convergence failed at  85  side 1    Res =  0.1354E+03
 MRCHDU: Convergence failed at  86  side 1    Res =  0.4973E+02
 MRCHDU: Convergence failed at  87  side 1    Res =  0.5682E+02
 Side 1  free  transition at x/c =  0.0784   24
 Side 2  free  transition at x/c =  0.7917   60

  10   rms: 0.1205E+01   max: 0.1817E+02   C at   24  1   RLX: 0.083
       a =  5.500      CL =  2.0732
      Cm = -0.5016     CD =  0.00466   =>   CDf =  0.01798    CDp = -0.01332

 Side 1  free  transition at x/c =  0.0616   22
 Side 2  free  transition at x/c =  0.7909   60

  11   rms: 0.6733E+00   max: -.8353E+00   U at   87  1   RLX: 0.291
       a =  5.500      CL =  1.6623
      Cm = -0.3557     CD =  0.00824   =>   CDf =  0.01474    CDp = -0.00650

 Side 1  free  transition at x/c =  0.0523   23
 Side 2  free  transition at x/c =  0.7885   59

  12   rms: 0.5661E+00   max: 0.8413E+00   D at   75  2   RLX: 0.585
       a =  5.500      CL =  1.1322
      Cm = -0.1715     CD =  0.01103   =>   CDf =  0.01263    CDp = -0.00159

 MRCHDU: Convergence failed at  23  side 1    Res =  0.5577E+01
 MRCHDU: Convergence failed at  24  side 1    Res =  0.3395E+02
 MRCHDU: Convergence failed at  25  side 1    Res =  0.6628E+01
 MRCHDU: Convergence failed at  26  side 1    Res =  0.1106E+02
 MRCHDU: Convergence failed at  27  side 1    Res =  0.5789E+02
 MRCHDU: Convergence failed at  28  side 1    Res =  0.3837E+02
 MRCHDU: Convergence failed at  29  side 1    Res =  0.1610E+02
 MRCHDU: Convergence failed at  30  side 1    Res =  0.1096E+02
 MRCHDU: Convergence failed at  31  side 1    Res =  0.1463E+02
 MRCHDU: Convergence failed at  32  side 1    Res =  0.1083E+02
 MRCHDU: Convergence failed at  33  side 1    Res =  0.9396E+01
 MRCHDU: Convergence failed at  34  side 1    Res =  0.7999E+01
 MRCHDU: Convergence failed at  35  side 1    Res =  0.6969E+01
 MRCHDU: Convergence failed at  36  side 1    Res =  0.6184E+01
 MRCHDU: Convergence failed at  37  side 1    Res =  0.5619E+01
 MRCHDU: Convergence failed at  38  side 1    Res =  0.4689E+01
 MRCHDU: Convergence failed at  39  side 1    Res =  0.4410E+01
 MRCHDU: Convergence failed at  40  side 1    Res =  0.2678E+02
 MRCHDU: Convergence failed at  41  side 1    Res =  0.2965E+02
 MRCHDU: Convergence failed at  42  side 1    Res =  0.3731E+02
 MRCHDU: Convergence failed at  43  side 1    Res =  0.4282E+02
 MRCHDU: Convergence failed at  44  side 1    Res =  0.4564E+02
 MRCHDU: Convergence failed at  45  side 1    Res =  0.5445E+02
 MRCHDU: Convergence failed at  46  side 1    Res =  0.7272E+02
 MRCHDU: Convergence failed at  47  side 1    Res =  0.1025E+03
 MRCHDU: Convergence failed at  48  side 1    Res =  0.1703E+03
 MRCHDU: Convergence failed at  49  side 1    Res =  0.5251E+03
 MRCHDU: Convergence failed at  50  side 1    Res =  0.8546E+03
 MRCHDU: Convergence failed at  51  side 1    Res =  0.2459E+03
 MRCHDU: Convergence failed at  52  side 1    Res =  0.1889E+03
 MRCHDU: Convergence failed at  53  side 1    Res =  0.1287E+03
 MRCHDU: Convergence failed at  54  side 1    Res =  0.1151E+03
 MRCHDU: Convergence failed at  55  side 1    Res =  0.9215E+02
 MRCHDU: Convergence failed at  56  side 1    Res =  0.7649E+02
 MRCHDU: Convergence failed at  57  side 1    Res =  0.6528E+02
 MRCHDU: Convergence failed at  58  side 1    Res =  0.6295E+02
 MRCHDU: Convergence failed at  59  side 1    Res =  0.5503E+02
 MRCHDU: Convergence failed at  60  side 1    Res =  0.4889E+02
 MRCHDU: Convergence failed at  61  side 1    Res =  0.4719E+02
 MRCHDU: Convergence failed at  62  side 1    Res =  0.4276E+02
 MRCHDU: Convergence failed at  63  side 1    Res =  0.3917E+02
 MRCHDU: Convergence failed at  64  side 1    Res =  0.3622E+02
 MRCHDU: Convergence failed at  65  side 1    Res =  0.3618E+02
 MRCHDU: Convergence failed at  66  side 1    Res =  0.3385E+02
 MRCHDU: Convergence failed at  67  side 1    Res =  0.3419E+02
 MRCHDU: Convergence failed at  68  side 1    Res =  0.3224E+02
 MRCHDU: Convergence failed at  69  side 1    Res =  0.3051E+02
 MRCHDU: Convergence failed at  70  side 1    Res =  0.2893E+02
 MRCHDU: Convergence failed at  71  side 1    Res =  0.2754E+02
 MRCHDU: Convergence failed at  72  side 1    Res =  0.2619E+02
 MRCHDU: Convergence failed at  73  side 1    Res =  0.2498E+02
 MRCHDU: Convergence failed at  74  side 1    Res =  0.2454E+02
 MRCHDU: Convergence failed at  75  side 1    Res =  0.2344E+02
 MRCHDU: Convergence failed at  76  side 1    Res =  0.2295E+02
 MRCHDU: Convergence failed at  77  side 1    Res =  0.2235E+02
 MRCHDU: Convergence failed at  78  side 1    Res =  0.2211E+02
 MRCHDU: Convergence failed at  79  side 1    Res =  0.2105E+02
 MRCHDU: Convergence failed at  80  side 1    Res =  0.1999E+02
 MRCHDU: Convergence failed at  81  side 1    Res =  0.1897E+02
 MRCHDU: Convergence failed at  82  side 1    Res =  0.1793E+02
 MRCHDU: Convergence failed at  83  side 1    Res =  0.1685E+02
 MRCHDU: Convergence failed at  84  side 1    Res =  0.3861E+02
 MRCHDU: Convergence failed at  85  side 1    Res =  0.8231E+02
 MRCHDU: Convergence failed at  86  side 1    Res =  0.2224E+02
 MRCHDU: Convergence failed at  87  side 1    Res =  0.3416E+02
 MRCHDU: Convergence failed at  88  side 1    Res =  0.4124E+02
 Side 1  free  transition at x/c =  0.0451   22
 Side 2  free  transition at x/c =  0.7852   59
 idif Ue xi dudx           1  0.15322134      3.99088860E-03   38.392788    
 Uenew xinew           2  9.01625026E-03  2.34842300E-04

  13   rms: 0.9152E+00   max: 0.5167E+01   D at   76  2   RLX: 0.255
       a =  5.500      CL =  1.4881
      Cm = -0.3266     CD =  0.00733   =>   CDf =  0.00262    CDp =  0.00471

 MRCHDU: Convergence failed at  31  side 1    Res =  0.1064E+00
 MRCHDU: Convergence failed at  32  side 1    Res =  0.9342E-01
 MRCHDU: Convergence failed at  77  side 2    Res =  0.5470E+01
 MRCHDU: Convergence failed at  78  side 2    Res =  0.3923E+01
 MRCHDU: Convergence failed at  79  side 2    Res =  0.3379E+01
 Side 1  free  transition at x/c =  0.0524   22
 Side 2  free  transition at x/c =  0.7874   60

  14   rms: 0.4507E+00   max: -.1874E+01   T at   22  1   RLX: 0.267
       a =  5.500      CL =  0.9221
      Cm = -0.1374     CD =  0.03453   =>   CDf =  0.00431    CDp =  0.03022

 MRCHDU: Convergence failed at  32  side 1    Res =  0.1669E+00
 MRCHDU: Convergence failed at  33  side 1    Res =  0.3257E+00
 MRCHDU: Convergence failed at  44  side 1    Res =  0.4357E+00
 MRCHDU: Convergence failed at  45  side 1    Res =  0.7692E+00
 MRCHDU: Convergence failed at  46  side 1    Res =  0.2857E+00
 MRCHDU: Convergence failed at  47  side 1    Res =  0.2549E+00
 MRCHDU: Convergence failed at  48  side 1    Res =  0.2152E+00
 MRCHDU: Convergence failed at  49  side 1    Res =  0.1739E+00
 MRCHDU: Convergence failed at  50  side 1    Res =  0.1312E+00
 MRCHDU: Convergence failed at  51  side 1    Res =  0.8675E-01
 Side 1  free  transition at x/c =  0.0558   22
 Side 2  free  transition at x/c =  0.7957   60

  15   rms: 0.6146E+00   max: -.4446E+01   D at   51  1   RLX: 0.112
       a =  5.500      CL =  0.6775
      Cm = -0.0752     CD =  0.03776   =>   CDf =  0.00359    CDp =  0.03417

 MRCHDU: Convergence failed at  51  side 1    Res =  0.5074E+00
 MRCHDU: Convergence failed at  52  side 1    Res =  0.6222E+00
 MRCHDU: Convergence failed at  53  side 1    Res =  0.4022E-01
 Side 1  free  transition at x/c =  0.0611   22
 Side 2  free  transition at x/c =  0.7982   60

  16   rms: 0.4263E+01   max: -.2690E+02   D at   53  1   RLX: 0.019
       a =  5.500      CL =  0.5474
      Cm = -0.0343     CD =  0.04095   =>   CDf =  0.00365    CDp =  0.03730

 MRCHDU: Convergence failed at  53  side 1    Res =  0.4818E+00
 MRCHDU: Convergence failed at  54  side 1    Res =  0.6167E+00
 MRCHDU: Convergence failed at  55  side 1    Res =  0.5933E-01
 Side 1  free  transition at x/c =  0.0669   23
 Side 2  free  transition at x/c =  0.8005   61

  17   rms: 0.1177E+01   max: -.6135E+01   D at   29  1   RLX: 0.082
       a =  5.500      CL =  0.4716
      Cm =  0.0034     CD =  0.02970   =>   CDf =  0.00517    CDp =  0.02453

 MRCHDU: Convergence failed at  27  side 1    Res =  0.4953E+01
 MRCHDU: Convergence failed at  28  side 1    Res =  0.5491E+01
 MRCHDU: Convergence failed at  29  side 1    Res =  0.2866E+01
 MRCHDU: Convergence failed at  30  side 1    Res =  0.2683E+01
 MRCHDU: Convergence failed at  31  side 1    Res =  0.2947E+01
 MRCHDU: Convergence failed at  32  side 1    Res =  0.3406E+01
 MRCHDU: Convergence failed at  33  side 1    Res =  0.3983E+01
 MRCHDU: Convergence failed at  34  side 1    Res =  0.4501E+01
 MRCHDU: Convergence failed at  35  side 1    Res =  0.5231E+01
 MRCHDU: Convergence failed at  36  side 1    Res =  0.6530E+01
 MRCHDU: Convergence failed at  37  side 1    Res =  0.7581E+01
 MRCHDU: Convergence failed at  38  side 1    Res =  0.8795E+01
 MRCHDU: Convergence failed at  39  side 1    Res =  0.1020E+02
 MRCHDU: Convergence failed at  40  side 1    Res =  0.1185E+02
 MRCHDU: Convergence failed at  41  side 1    Res =  0.2153E+02
 MRCHDU: Convergence failed at  42  side 1    Res =  0.2728E+02
 MRCHDU: Convergence failed at  43  side 1    Res =  0.3544E+02
 MRCHDU: Convergence failed at  44  side 1    Res =  0.4877E+02
 MRCHDU: Convergence failed at  45  side 1    Res =  0.7500E+02
 MRCHDU: Convergence failed at  46  side 1    Res =  0.1508E+03
 MRCHDU: Convergence failed at  47  side 1    Res =  0.3962E+04
 MRCHDU: Convergence failed at  48  side 1    Res =  0.3940E+02
 MRCHDU: Convergence failed at  49  side 1    Res =  0.3148E+02
 MRCHDU: Convergence failed at  50  side 1    Res =  0.7792E+02
 MRCHDU: Convergence failed at  51  side 1    Res =  0.4090E+02
 MRCHDU: Convergence failed at  52  side 1    Res =  0.7350E+02
 MRCHDU: Convergence failed at  53  side 1    Res =  0.7570E+02
 MRCHDU: Convergence failed at  54  side 1    Res =  0.7762E+02
 MRCHDU: Convergence failed at  55  side 1    Res =  0.1445E+03
 MRCHDU: Convergence failed at  56  side 1    Res =  0.2185E+02
 MRCHDU: Convergence failed at  57  side 1    Res =  0.1243E+02
 MRCHDU: Convergence failed at  58  side 1    Res =  0.1338E+02
 MRCHDU: Convergence failed at  59  side 1    Res =  0.9820E+01
 MRCHDU: Convergence failed at  60  side 1    Res =  0.7717E+01
 MRCHDU: Convergence failed at  61  side 1    Res =  0.5687E+01
 MRCHDU: Convergence failed at  62  side 1    Res =  0.4969E+01
 MRCHDU: Convergence failed at  63  side 1    Res =  0.4390E+01
 MRCHDU: Convergence failed at  64  side 1    Res =  0.5029E+01
 MRCHDU: Convergence failed at  65  side 1    Res =  0.5925E+01
 MRCHDU: Convergence failed at  66  side 1    Res =  0.6581E+01
 MRCHDU: Convergence failed at  67  side 1    Res =  0.7416E+01
 MRCHDU: Convergence failed at  68  side 1    Res =  0.9625E+01
 MRCHDU: Convergence failed at  69  side 1    Res =  0.1152E+02
 MRCHDU: Convergence failed at  70  side 1    Res =  0.1435E+02
 MRCHDU: Convergence failed at  71  side 1    Res =  0.2098E+02
 MRCHDU: Convergence failed at  72  side 1    Res =  0.3975E+02
 MRCHDU: Convergence failed at  73  side 1    Res =  0.1329E+03
 MRCHDU: Convergence failed at  74  side 1    Res =  0.1079E+03
 MRCHDU: Convergence failed at  75  side 1    Res =  0.3069E+02
 MRCHDU: Convergence failed at  76  side 1    Res =  0.1955E+02
 MRCHDU: Convergence failed at  77  side 1    Res =  0.1474E+02
 MRCHDU: Convergence failed at  78  side 1    Res =  0.1035E+02
 MRCHDU: Convergence failed at  79  side 1    Res =  0.8067E+01
 MRCHDU: Convergence failed at  80  side 1    Res =  0.6812E+01
 MRCHDU: Convergence failed at  81  side 1    Res =  0.6667E+01
 MRCHDU: Convergence failed at  82  side 1    Res =  0.7411E+01
 MRCHDU: Convergence failed at  83  side 1    Res =  0.8180E+01
 MRCHDU: Convergence failed at  84  side 1    Res =  0.9525E+01
 MRCHDU: Convergence failed at  85  side 1    Res =  0.1119E+02
 MRCHDU: Convergence failed at  86  side 1    Res =  0.1229E+02
 MRCHDU: Convergence failed at  87  side 1    Res =  0.1728E+02
 Side 1  free  transition at x/c =  0.0674   23
 Side 2  free  transition at x/c =  0.8000   61

  18   rms: 0.9239E+00   max: -.4620E+01   D at   27  1   RLX: 0.108
       a =  5.500      CL =  1.1942
      Cm = -0.2403     CD =  0.00835   =>   CDf =  0.00378    CDp =  0.00456

 MRCHDU: Convergence failed at  26  side 1    Res =  0.3300E+00
 MRCHDU: Convergence failed at  27  side 1    Res =  0.3263E+00
 Side 1  free  transition at x/c =  0.0656   23
 Side 2  free  transition at x/c =  0.7990   61

  19   rms: 0.4730E+00   max: 0.2931E+01   T at   23  1   RLX: 0.190
       a =  5.500      CL =  1.1405
      Cm = -0.1974     CD =  0.01030   =>   CDf =  0.01184    CDp = -0.00153

 MRCHDU: Convergence failed at  23  side 1    Res =  0.6909E+01
 MRCHDU: Convergence failed at  28  side 1    Res =  0.3312E+01
 MRCHDU: Convergence failed at  29  side 1    Res =  0.2351E+01
 MRCHDU: Convergence failed at  30  side 1    Res =  0.6385E+01
 MRCHDU: Convergence failed at  31  side 1    Res =  0.3946E+01
 MRCHDU: Convergence failed at  32  side 1    Res =  0.1997E+01
 MRCHDU: Convergence failed at  34  side 1    Res =  0.1786E+01
 MRCHDU: Convergence failed at  35  side 1    Res =  0.1637E+01
 MRCHDU: Convergence failed at  36  side 1    Res =  0.1533E+01
 MRCHDU: Convergence failed at  37  side 1    Res =  0.1468E+01
 MRCHDU: Convergence failed at  38  side 1    Res =  0.1423E+01
 MRCHDU: Convergence failed at  39  side 1    Res =  0.1384E+01
 MRCHDU: Convergence failed at  40  side 1    Res =  0.1354E+01
 MRCHDU: Convergence failed at  41  side 1    Res =  0.1326E+01
 MRCHDU: Convergence failed at  42  side 1    Res =  0.1301E+01
 MRCHDU: Convergence failed at  43  side 1    Res =  0.1280E+01
 MRCHDU: Convergence failed at  44  side 1    Res =  0.1265E+01
 MRCHDU: Convergence failed at  45  side 1    Res =  0.1250E+01
 MRCHDU: Convergence failed at  46  side 1    Res =  0.1238E+01
 MRCHDU: Convergence failed at  47  side 1    Res =  0.1225E+01
 MRCHDU: Convergence failed at  48  side 1    Res =  0.1212E+01
 MRCHDU: Convergence failed at  49  side 1    Res =  0.1200E+01
 MRCHDU: Convergence failed at  50  side 1    Res =  0.1189E+01
 MRCHDU: Convergence failed at  51  side 1    Res =  0.1179E+01
 MRCHDU: Convergence failed at  53  side 1    Res =  0.1589E+02
 MRCHDU: Convergence failed at  54  side 1    Res =  0.1427E+02
 MRCHDU: Convergence failed at  55  side 1    Res =  0.1241E+02
 MRCHDU: Convergence failed at  56  side 1    Res =  0.1096E+02
 MRCHDU: Convergence failed at  57  side 1    Res =  0.9824E+01
 MRCHDU: Convergence failed at  58  side 1    Res =  0.8901E+01
 MRCHDU: Convergence failed at  59  side 1    Res =  0.8158E+01
 MRCHDU: Convergence failed at  60  side 1    Res =  0.7540E+01
 MRCHDU: Convergence failed at  61  side 1    Res =  0.7035E+01
 MRCHDU: Convergence failed at  62  side 1    Res =  0.6603E+01
 MRCHDU: Convergence failed at  63  side 1    Res =  0.5260E+01
 MRCHDU: Convergence failed at  64  side 1    Res =  0.5103E+01
 MRCHDU: Convergence failed at  65  side 1    Res =  0.4962E+01
 MRCHDU: Convergence failed at  66  side 1    Res =  0.4834E+01
 MRCHDU: Convergence failed at  67  side 1    Res =  0.4718E+01
 MRCHDU: Convergence failed at  68  side 1    Res =  0.4613E+01
 MRCHDU: Convergence failed at  69  side 1    Res =  0.4570E+01
 MRCHDU: Convergence failed at  70  side 1    Res =  0.4477E+01
 MRCHDU: Convergence failed at  71  side 1    Res =  0.4392E+01
 MRCHDU: Convergence failed at  72  side 1    Res =  0.4312E+01
 MRCHDU: Convergence failed at  73  side 1    Res =  0.4239E+01
 MRCHDU: Convergence failed at  74  side 1    Res =  0.4172E+01
 MRCHDU: Convergence failed at  75  side 1    Res =  0.4113E+01
 MRCHDU: Convergence failed at  76  side 1    Res =  0.4056E+01
 MRCHDU: Convergence failed at  77  side 1    Res =  0.4004E+01
 MRCHDU: Convergence failed at  78  side 1    Res =  0.3956E+01
 MRCHDU: Convergence failed at  79  side 1    Res =  0.3912E+01
 MRCHDU: Convergence failed at  80  side 1    Res =  0.3881E+01
 MRCHDU: Convergence failed at  81  side 1    Res =  0.3841E+01
 MRCHDU: Convergence failed at  82  side 1    Res =  0.3802E+01
 MRCHDU: Convergence failed at  83  side 1    Res =  0.3763E+01
 MRCHDU: Convergence failed at  84  side 1    Res =  0.3731E+01
 MRCHDU: Convergence failed at  85  side 1    Res =  0.3705E+01
 MRCHDU: Convergence failed at  86  side 1    Res =  0.3686E+01
[...]
 MRCHDU: Convergence failed at  55  side 1    Res =  0.5304E-02
 MRCHDU: Convergence failed at  56  side 1    Res =  0.6897E-02
 MRCHDU: Convergence failed at  57  side 1    Res =  0.6208E-02
 MRCHDU: Convergence failed at  58  side 1    Res =  0.3956E-02
 MRCHDU: Convergence failed at  59  side 1    Res =  0.3412E-02
 MRCHDU: Convergence failed at  60  side 1    Res =  0.3572E-02
 MRCHDU: Convergence failed at  61  side 1    Res =  0.2708E-02
 MRCHDU: Convergence failed at  62  side 1    Res =  0.2850E-02
 MRCHDU: Convergence failed at  63  side 1    Res =  0.4851E-02
 MRCHDU: Convergence failed at  64  side 1    Res =  0.5414E-02
 MRCHDU: Convergence failed at  65  side 1    Res =  0.4669E-02
 MRCHDU: Convergence failed at  66  side 1    Res =  0.6749E-02
 MRCHDU: Convergence failed at  67  side 1    Res =  0.1597E-01
 MRCHDU: Convergence failed at  68  side 1    Res =  0.1570E-01
 Side 1  free  transition at x/c =  0.0399   20
 Side 2 forced transition at x/c =  1.0000   75

  12   rms: 0.1204E+07   max: -.2139E+08   T at   79  1   RLX: 0.000
       a = 10.750      CL =  1.0467
      Cm = -0.1590     CD =*********   =>   CDf =  0.00460    CDp =*********

 MRCHDU: Convergence failed at  22  side 1    Res =  0.1546E-01
 MRCHDU: Convergence failed at  26  side 1    Res =  0.6827E-01
 MRCHDU: Convergence failed at  27  side 1    Res =  0.4294E-01
 MRCHDU: Convergence failed at  28  side 1    Res =  0.2797E-01
 MRCHDU: Convergence failed at  29  side 1    Res =  0.1792E-01
 MRCHDU: Convergence failed at  30  side 1    Res =  0.1424E-01
 MRCHDU: Convergence failed at  31  side 1    Res =  0.1354E-01
 MRCHDU: Convergence failed at  32  side 1    Res =  0.1190E-01
 MRCHDU: Convergence failed at  33  side 1    Res =  0.1036E-01
 MRCHDU: Convergence failed at  34  side 1    Res =  0.9952E-02
 MRCHDU: Convergence failed at  35  side 1    Res =  0.1036E-01
 MRCHDU: Convergence failed at  36  side 1    Res =  0.9525E-02
 MRCHDU: Convergence failed at  37  side 1    Res =  0.8952E-02
 MRCHDU: Convergence failed at  38  side 1    Res =  0.7964E-02
 MRCHDU: Convergence failed at  39  side 1    Res =  0.7109E-02
 MRCHDU: Convergence failed at  40  side 1    Res =  0.6692E-02
 MRCHDU: Convergence failed at  41  side 1    Res =  0.6277E-02
 MRCHDU: Convergence failed at  42  side 1    Res =  0.6260E-02
 MRCHDU: Convergence failed at  43  side 1    Res =  0.6097E-02
 MRCHDU: Convergence failed at  44  side 1    Res =  0.5226E-02
 MRCHDU: Convergence failed at  45  side 1    Res =  0.4250E-02
 MRCHDU: Convergence failed at  46  side 1    Res =  0.4110E-02
 MRCHDU: Convergence failed at  47  side 1    Res =  0.4485E-02
 MRCHDU: Convergence failed at  48  side 1    Res =  0.4854E-02
 MRCHDU: Convergence failed at  49  side 1    Res =  0.5014E-02
 MRCHDU: Convergence failed at  50  side 1    Res =  0.4596E-02
 MRCHDU: Convergence failed at  51  side 1    Res =  0.3987E-02
 MRCHDU: Convergence failed at  52  side 1    Res =  0.4232E-02
 MRCHDU: Convergence failed at  53  side 1    Res =  0.5255E-02
 MRCHDU: Convergence failed at  54  side 1    Res =  0.4856E-02
 MRCHDU: Convergence failed at  55  side 1    Res =  0.5340E-02
 MRCHDU: Convergence failed at  56  side 1    Res =  0.6944E-02
 MRCHDU: Convergence failed at  57  side 1    Res =  0.6213E-02
 MRCHDU: Convergence failed at  58  side 1    Res =  0.3946E-02
 MRCHDU: Convergence failed at  59  side 1    Res =  0.3408E-02
 MRCHDU: Convergence failed at  60  side 1    Res =  0.3582E-02
 MRCHDU: Convergence failed at  61  side 1    Res =  0.2715E-02
 MRCHDU: Convergence failed at  62  side 1    Res =  0.2862E-02
 MRCHDU: Convergence failed at  63  side 1    Res =  0.4884E-02
 MRCHDU: Convergence failed at  64  side 1    Res =  0.5441E-02
 MRCHDU: Convergence failed at  65  side 1    Res =  0.4688E-02
 MRCHDU: Convergence failed at  66  side 1    Res =  0.6792E-02
 MRCHDU: Convergence failed at  67  side 1    Res =  0.1645E-01
 MRCHDU: Convergence failed at  68  side 1    Res =  0.1657E-01
 Side 1  free  transition at x/c =  0.0399   20
 Side 2 forced transition at x/c =  1.0000   75

  13   rms: 0.2771E+06   max: 0.4557E+07   T at   79  1   RLX: 0.000
       a = 10.750      CL =  1.0464
      Cm = -0.1589     CD =*********   =>   CDf =  0.00460    CDp =*********

 MRCHDU: Convergence failed at  22  side 1    Res =  0.1544E-01
 MRCHDU: Convergence failed at  26  side 1    Res =  0.6821E-01
 MRCHDU: Convergence failed at  27  side 1    Res =  0.4297E-01
 MRCHDU: Convergence failed at  28  side 1    Res =  0.2805E-01
 MRCHDU: Convergence failed at  29  side 1    Res =  0.1775E-01
 MRCHDU: Convergence failed at  30  side 1    Res =  0.1402E-01
 MRCHDU: Convergence failed at  31  side 1    Res =  0.1347E-01
 MRCHDU: Convergence failed at  32  side 1    Res =  0.1203E-01
 MRCHDU: Convergence failed at  33  side 1    Res =  0.1047E-01
 MRCHDU: Convergence failed at  34  side 1    Res =  0.1000E-01
 MRCHDU: Convergence failed at  35  side 1    Res =  0.1037E-01
 MRCHDU: Convergence failed at  36  side 1    Res =  0.9492E-02
 MRCHDU: Convergence failed at  37  side 1    Res =  0.9045E-02
 MRCHDU: Convergence failed at  38  side 1    Res =  0.8155E-02
 MRCHDU: Convergence failed at  39  side 1    Res =  0.7259E-02
 MRCHDU: Convergence failed at  40  side 1    Res =  0.6710E-02
 MRCHDU: Convergence failed at  41  side 1    Res =  0.6291E-02
 MRCHDU: Convergence failed at  42  side 1    Res =  0.6262E-02
 MRCHDU: Convergence failed at  43  side 1    Res =  0.5974E-02
 MRCHDU: Convergence failed at  44  side 1    Res =  0.5081E-02
 MRCHDU: Convergence failed at  45  side 1    Res =  0.4174E-02
 MRCHDU: Convergence failed at  46  side 1    Res =  0.4132E-02
 MRCHDU: Convergence failed at  47  side 1    Res =  0.4530E-02
 MRCHDU: Convergence failed at  48  side 1    Res =  0.4937E-02
 MRCHDU: Convergence failed at  49  side 1    Res =  0.5209E-02
 MRCHDU: Convergence failed at  50  side 1    Res =  0.4705E-02
 MRCHDU: Convergence failed at  51  side 1    Res =  0.4021E-02
 MRCHDU: Convergence failed at  52  side 1    Res =  0.4320E-02
 MRCHDU: Convergence failed at  53  side 1    Res =  0.5428E-02
 MRCHDU: Convergence failed at  54  side 1    Res =  0.4895E-02
 MRCHDU: Convergence failed at  55  side 1    Res =  0.5425E-02
 MRCHDU: Convergence failed at  56  side 1    Res =  0.7267E-02
 MRCHDU: Convergence failed at  57  side 1    Res =  0.6259E-02
 MRCHDU: Convergence failed at  58  side 1    Res =  0.3970E-02
 MRCHDU: Convergence failed at  59  side 1    Res =  0.3444E-02
 MRCHDU: Convergence failed at  60  side 1    Res =  0.3631E-02
 MRCHDU: Convergence failed at  61  side 1    Res =  0.2785E-02
 MRCHDU: Convergence failed at  62  side 1    Res =  0.2947E-02
 MRCHDU: Convergence failed at  63  side 1    Res =  0.5100E-02
 MRCHDU: Convergence failed at  64  side 1    Res =  0.5577E-02
 MRCHDU: Convergence failed at  65  side 1    Res =  0.4661E-02
 MRCHDU: Convergence failed at  66  side 1    Res =  0.6717E-02
 MRCHDU: Convergence failed at  67  side 1    Res =  0.1609E-01
 MRCHDU: Convergence failed at  68  side 1    Res =  0.1449E-01
 Side 1  free  transition at x/c =  0.0399   20
 Side 2 forced transition at x/c =  1.0000   75

  14   rms: 0.6438E+06   max: 0.1175E+08   T at   83  1   RLX: 0.000
       a = 10.750      CL =  1.0462
      Cm = -0.1589     CD =*********   =>   CDf =  0.00460    CDp =*********

 MRCHDU: Convergence failed at  22  side 1    Res =  0.1545E-01
 MRCHDU: Convergence failed at  26  side 1    Res =  0.6819E-01
 MRCHDU: Convergence failed at  27  side 1    Res =  0.4294E-01
 MRCHDU: Convergence failed at  28  side 1    Res =  0.2805E-01
 MRCHDU: Convergence failed at  29  side 1    Res =  0.1777E-01
 MRCHDU: Convergence failed at  30  side 1    Res =  0.1402E-01
 MRCHDU: Convergence failed at  31  side 1    Res =  0.1346E-01
 MRCHDU: Convergence failed at  32  side 1    Res =  0.1202E-01
 MRCHDU: Convergence failed at  33  side 1    Res =  0.1048E-01
 MRCHDU: Convergence failed at  34  side 1    Res =  0.1002E-01
 MRCHDU: Convergence failed at  35  side 1    Res =  0.1037E-01
 MRCHDU: Convergence failed at  36  side 1    Res =  0.9458E-02
 MRCHDU: Convergence failed at  37  side 1    Res =  0.9012E-02
 MRCHDU: Convergence failed at  38  side 1    Res =  0.8138E-02
 MRCHDU: Convergence failed at  39  side 1    Res =  0.7238E-02
 MRCHDU: Convergence failed at  40  side 1    Res =  0.6703E-02
 MRCHDU: Convergence failed at  41  side 1    Res =  0.6302E-02
 MRCHDU: Convergence failed at  42  side 1    Res =  0.6251E-02
 MRCHDU: Convergence failed at  43  side 1    Res =  0.5935E-02
 MRCHDU: Convergence failed at  44  side 1    Res =  0.5067E-02
 MRCHDU: Convergence failed at  45  side 1    Res =  0.4164E-02
 MRCHDU: Convergence failed at  46  side 1    Res =  0.4106E-02
 MRCHDU: Convergence failed at  47  side 1    Res =  0.4500E-02
 MRCHDU: Convergence failed at  48  side 1    Res =  0.4926E-02
 MRCHDU: Convergence failed at  49  side 1    Res =  0.5207E-02
 MRCHDU: Convergence failed at  50  side 1    Res =  0.4695E-02
 MRCHDU: Convergence failed at  51  side 1    Res =  0.4021E-02
 MRCHDU: Convergence failed at  52  side 1    Res =  0.4348E-02
 MRCHDU: Convergence failed at  53  side 1    Res =  0.5486E-02
 MRCHDU: Convergence failed at  54  side 1    Res =  0.4937E-02
 MRCHDU: Convergence failed at  55  side 1    Res =  0.5450E-02
 MRCHDU: Convergence failed at  56  side 1    Res =  0.7275E-02
 MRCHDU: Convergence failed at  57  side 1    Res =  0.6232E-02
 MRCHDU: Convergence failed at  58  side 1    Res =  0.3946E-02
 MRCHDU: Convergence failed at  59  side 1    Res =  0.3427E-02
 MRCHDU: Convergence failed at  60  side 1    Res =  0.3612E-02
 MRCHDU: Convergence failed at  61  side 1    Res =  0.2783E-02
 MRCHDU: Convergence failed at  62  side 1    Res =  0.2956E-02
 MRCHDU: Convergence failed at  63  side 1    Res =  0.5116E-02
 MRCHDU: Convergence failed at  64  side 1    Res =  0.5565E-02
 MRCHDU: Convergence failed at  65  side 1    Res =  0.4623E-02
 MRCHDU: Convergence failed at  66  side 1    Res =  0.6566E-02
 MRCHDU: Convergence failed at  67  side 1    Res =  0.1501E-01
 MRCHDU: Convergence failed at  68  side 1    Res =  0.1296E-01
 Side 1  free  transition at x/c =  0.0399   20
 Side 2 forced transition at x/c =  1.0000   75

  15   rms: 0.1570E+07   max: 0.4152E+08   T at   79  1   RLX: 0.000
       a = 10.750      CL =  1.0461
      Cm = -0.1589     CD =*********   =>   CDf =  0.00460    CDp =*********

 MRCHDU: Convergence failed at  22  side 1    Res =  0.1545E-01
 MRCHDU: Convergence failed at  26  side 1    Res =  0.6818E-01
 MRCHDU: Convergence failed at  27  side 1    Res =  0.4293E-01
 MRCHDU: Convergence failed at  28  side 1    Res =  0.2805E-01
 MRCHDU: Convergence failed at  29  side 1    Res =  0.1777E-01
 MRCHDU: Convergence failed at  30  side 1    Res =  0.1403E-01
 MRCHDU: Convergence failed at  31  side 1    Res =  0.1348E-01
 MRCHDU: Convergence failed at  32  side 1    Res =  0.1204E-01
 MRCHDU: Convergence failed at  33  side 1    Res =  0.1050E-01
 MRCHDU: Convergence failed at  34  side 1    Res =  0.1002E-01
 MRCHDU: Convergence failed at  35  side 1    Res =  0.1037E-01
 MRCHDU: Convergence failed at  36  side 1    Res =  0.9453E-02
 MRCHDU: Convergence failed at  37  side 1    Res =  0.9011E-02
 MRCHDU: Convergence failed at  38  side 1    Res =  0.8145E-02
 MRCHDU: Convergence failed at  39  side 1    Res =  0.7234E-02
 MRCHDU: Convergence failed at  40  side 1    Res =  0.6680E-02
 MRCHDU: Convergence failed at  41  side 1    Res =  0.6285E-02
 MRCHDU: Convergence failed at  42  side 1    Res =  0.6246E-02
 MRCHDU: Convergence failed at  43  side 1    Res =  0.5929E-02
 MRCHDU: Convergence failed at  44  side 1    Res =  0.5056E-02
 MRCHDU: Convergence failed at  45  side 1    Res =  0.4163E-02
 MRCHDU: Convergence failed at  46  side 1    Res =  0.4121E-02
 MRCHDU: Convergence failed at  47  side 1    Res =  0.4517E-02
 MRCHDU: Convergence failed at  48  side 1    Res =  0.4931E-02
 MRCHDU: Convergence failed at  49  side 1    Res =  0.5207E-02
 MRCHDU: Convergence failed at  50  side 1    Res =  0.4689E-02
 MRCHDU: Convergence failed at  51  side 1    Res =  0.4019E-02
 MRCHDU: Convergence failed at  52  side 1    Res =  0.4354E-02
 MRCHDU: Convergence failed at  53  side 1    Res =  0.5501E-02
 MRCHDU: Convergence failed at  54  side 1    Res =  0.4952E-02
 MRCHDU: Convergence failed at  55  side 1    Res =  0.5456E-02
 MRCHDU: Convergence failed at  56  side 1    Res =  0.7247E-02
 MRCHDU: Convergence failed at  57  side 1    Res =  0.6198E-02
 MRCHDU: Convergence failed at  58  side 1    Res =  0.3930E-02
 MRCHDU: Convergence failed at  59  side 1    Res =  0.3417E-02
 MRCHDU: Convergence failed at  60  side 1    Res =  0.3593E-02
 MRCHDU: Convergence failed at  61  side 1    Res =  0.2765E-02
 MRCHDU: Convergence failed at  62  side 1    Res =  0.2939E-02
 MRCHDU: Convergence failed at  63  side 1    Res =  0.5098E-02
 MRCHDU: Convergence failed at  64  side 1    Res =  0.5557E-02
 MRCHDU: Convergence failed at  65  side 1    Res =  0.4605E-02
 MRCHDU: Convergence failed at  66  side 1    Res =  0.6498E-02
 MRCHDU: Convergence failed at  67  side 1    Res =  0.1446E-01
 MRCHDU: Convergence failed at  68  side 1    Res =  0.1220E-01
 Side 1  free  transition at x/c =  0.0399   20
 Side 2 forced transition at x/c =  1.0000   75

  16   rms: 0.6527E+06   max: 0.1641E+08   T at   79  1   RLX: 0.000
       a = 10.750      CL =  1.0461
      Cm = -0.1589     CD =*********   =>   CDf =  0.00460    CDp =*********

 MRCHDU: Convergence failed at  22  side 1    Res =  0.1545E-01
 MRCHDU: Convergence failed at  26  side 1    Res =  0.6818E-01
 MRCHDU: Convergence failed at  27  side 1    Res =  0.4292E-01
 MRCHDU: Convergence failed at  28  side 1    Res =  0.2804E-01
 MRCHDU: Convergence failed at  29  side 1    Res =  0.1777E-01
 MRCHDU: Convergence failed at  30  side 1    Res =  0.1403E-01
 MRCHDU: Convergence failed at  31  side 1    Res =  0.1349E-01
 MRCHDU: Convergence failed at  32  side 1    Res =  0.1205E-01
 MRCHDU: Convergence failed at  33  side 1    Res =  0.1051E-01
 MRCHDU: Convergence failed at  34  side 1    Res =  0.1004E-01
 MRCHDU: Convergence failed at  35  side 1    Res =  0.1038E-01
 MRCHDU: Convergence failed at  36  side 1    Res =  0.9463E-02
 MRCHDU: Convergence failed at  37  side 1    Res =  0.9021E-02
 MRCHDU: Convergence failed at  38  side 1    Res =  0.8152E-02
 MRCHDU: Convergence failed at  39  side 1    Res =  0.7231E-02
 MRCHDU: Convergence failed at  40  side 1    Res =  0.6671E-02
 MRCHDU: Convergence failed at  41  side 1    Res =  0.6284E-02
 MRCHDU: Convergence failed at  42  side 1    Res =  0.6246E-02
 MRCHDU: Convergence failed at  43  side 1    Res =  0.5933E-02
 MRCHDU: Convergence failed at  44  side 1    Res =  0.5072E-02
 MRCHDU: Convergence failed at  45  side 1    Res =  0.4193E-02
 MRCHDU: Convergence failed at  46  side 1    Res =  0.4155E-02
 MRCHDU: Convergence failed at  47  side 1    Res =  0.4538E-02
 MRCHDU: Convergence failed at  48  side 1    Res =  0.4939E-02
 MRCHDU: Convergence failed at  49  side 1    Res =  0.5207E-02
 MRCHDU: Convergence failed at  50  side 1    Res =  0.4685E-02
 MRCHDU: Convergence failed at  51  side 1    Res =  0.4010E-02
 MRCHDU: Convergence failed at  52  side 1    Res =  0.4339E-02
 MRCHDU: Convergence failed at  53  side 1    Res =  0.5485E-02
 MRCHDU: Convergence failed at  54  side 1    Res =  0.4920E-02
 MRCHDU: Convergence failed at  55  side 1    Res =  0.5410E-02
 MRCHDU: Convergence failed at  56  side 1    Res =  0.7209E-02
 MRCHDU: Convergence failed at  57  side 1    Res =  0.6183E-02
 MRCHDU: Convergence failed at  58  side 1    Res =  0.3936E-02
 MRCHDU: Convergence failed at  59  side 1    Res =  0.3419E-02
 MRCHDU: Convergence failed at  60  side 1    Res =  0.3590E-02
 MRCHDU: Convergence failed at  61  side 1    Res =  0.2769E-02
 MRCHDU: Convergence failed at  62  side 1    Res =  0.2942E-02
 MRCHDU: Convergence failed at  63  side 1    Res =  0.5087E-02
 MRCHDU: Convergence failed at  64  side 1    Res =  0.5563E-02
 MRCHDU: Convergence failed at  65  side 1    Res =  0.4628E-02
 MRCHDU: Convergence failed at  66  side 1    Res =  0.6528E-02
 MRCHDU: Convergence failed at  67  side 1    Res =  0.1433E-01
 MRCHDU: Convergence failed at  68  side 1    Res =  0.1180E-01
 Side 1  free  transition at x/c =  0.0399   20
 Side 2 forced transition at x/c =  1.0000   75

  17   rms: 0.6502E+06   max: -.1064E+08   T at   79  1   RLX: 0.000
       a = 10.750      CL =  1.0463
      Cm = -0.1589     CD =*********   =>   CDf =  0.00460    CDp =*********

 MRCHDU: Convergence failed at  22  side 1    Res =  0.1544E-01
 MRCHDU: Convergence failed at  26  side 1    Res =  0.6821E-01
 MRCHDU: Convergence failed at  27  side 1    Res =  0.4291E-01
 MRCHDU: Convergence failed at  28  side 1    Res =  0.2804E-01
 MRCHDU: Convergence failed at  29  side 1    Res =  0.1780E-01
 MRCHDU: Convergence failed at  30  side 1    Res =  0.1406E-01
 MRCHDU: Convergence failed at  31  side 1    Res =  0.1350E-01
 MRCHDU: Convergence failed at  32  side 1    Res =  0.1206E-01
 MRCHDU: Convergence failed at  33  side 1    Res =  0.1052E-01
 MRCHDU: Convergence failed at  34  side 1    Res =  0.1005E-01
 MRCHDU: Convergence failed at  35  side 1    Res =  0.1040E-01
 MRCHDU: Convergence failed at  36  side 1    Res =  0.9463E-02
 MRCHDU: Convergence failed at  37  side 1    Res =  0.9014E-02
 MRCHDU: Convergence failed at  38  side 1    Res =  0.8158E-02
 MRCHDU: Convergence failed at  39  side 1    Res =  0.7245E-02
 MRCHDU: Convergence failed at  40  side 1    Res =  0.6673E-02
 MRCHDU: Convergence failed at  41  side 1    Res =  0.6279E-02
 MRCHDU: Convergence failed at  42  side 1    Res =  0.6250E-02
 MRCHDU: Convergence failed at  43  side 1    Res =  0.5924E-02
 MRCHDU: Convergence failed at  44  side 1    Res =  0.5053E-02
 MRCHDU: Convergence failed at  45  side 1    Res =  0.4178E-02
 MRCHDU: Convergence failed at  46  side 1    Res =  0.4142E-02
 MRCHDU: Convergence failed at  47  side 1    Res =  0.4531E-02
 MRCHDU: Convergence failed at  48  side 1    Res =  0.4948E-02
 MRCHDU: Convergence failed at  49  side 1    Res =  0.5229E-02
 MRCHDU: Convergence failed at  50  side 1    Res =  0.4693E-02
 MRCHDU: Convergence failed at  51  side 1    Res =  0.4010E-02
 MRCHDU: Convergence failed at  52  side 1    Res =  0.4324E-02
 MRCHDU: Convergence failed at  53  side 1    Res =  0.5446E-02
 MRCHDU: Convergence failed at  54  side 1    Res =  0.4897E-02
 MRCHDU: Convergence failed at  55  side 1    Res =  0.5379E-02
 MRCHDU: Convergence failed at  56  side 1    Res =  0.7185E-02
 MRCHDU: Convergence failed at  57  side 1    Res =  0.6203E-02
 MRCHDU: Convergence failed at  58  side 1    Res =  0.3949E-02
 MRCHDU: Convergence failed at  59  side 1    Res =  0.3430E-02
 MRCHDU: Convergence failed at  60  side 1    Res =  0.3616E-02
 MRCHDU: Convergence failed at  61  side 1    Res =  0.2787E-02
 MRCHDU: Convergence failed at  62  side 1    Res =  0.2958E-02
 MRCHDU: Convergence failed at  63  side 1    Res =  0.5120E-02
 MRCHDU: Convergence failed at  64  side 1    Res =  0.5609E-02
 MRCHDU: Convergence failed at  65  side 1    Res =  0.4693E-02
 MRCHDU: Convergence failed at  66  side 1    Res =  0.6698E-02
 MRCHDU: Convergence failed at  67  side 1    Res =  0.1547E-01
 MRCHDU: Convergence failed at  68  side 1    Res =  0.1335E-01
 Side 1  free  transition at x/c =  0.0399   20
 Side 2 forced transition at x/c =  1.0000   75

  18   rms: 0.6166E+06   max: -.1052E+08   T at   79  1   RLX: 0.000
       a = 10.750      CL =  1.0465
      Cm = -0.1589     CD =*********   =>   CDf =  0.00460    CDp =*********

 MRCHDU: Convergence failed at  22  side 1    Res =  0.1544E-01
 MRCHDU: Convergence failed at  26  side 1    Res =  0.6823E-01
 MRCHDU: Convergence failed at  27  side 1    Res =  0.4293E-01

[TIMEOUT]
