  
       XFOIL         Version 6.99
  
 Calculated polar for: RAE 5215 AIRFOIL                                
  
 1 1 Reynolds number fixed          Mach number fixed         
  
 xtrf =   1.000 (top)        1.000 (bottom)  
 Mach =   0.000     Re =     0.400 e 6     Ncrit =   9.000
  
   alpha    CL        CD       CDp       CM     Top_Xtr  Bot_Xtr
  ------ -------- --------- --------- -------- -------- --------
-4.000  -0.2554   0.01224   0.00555  -0.0529   0.9850   0.0391
-3.500  -0.1858   0.01138   0.00474  -0.0561   0.9788   0.0457
-3.000  -0.1110   0.01050   0.00391  -0.0603   0.9748   0.0578
-2.500  -0.0409   0.00786   0.00308  -0.0653   0.9695   0.5032
-2.000   0.0284   0.00766   0.00307  -0.0674   0.9581   0.6004
-1.500   0.0867   0.00772   0.00315  -0.0669   0.9421   0.6416
-1.000   0.1380   0.00788   0.00337  -0.0646   0.9204   0.6798
-0.500   0.1870   0.00780   0.00321  -0.0617   0.8869   0.6958
0.000   0.2400   0.00775   0.00306  -0.0601   0.8562   0.7054
0.500   0.2949   0.00770   0.00295  -0.0592   0.8248   0.7145
1.000   0.3495   0.00773   0.00287  -0.0582   0.7792   0.7242
1.500   0.4003   0.00808   0.00274  -0.0563   0.6363   0.7333
2.000   0.4411   0.01068   0.00335  -0.0543   0.2040   0.7431
3.000   0.5493   0.01189   0.00420  -0.0536   0.1362   0.7634
3.500   0.6035   0.01233   0.00467  -0.0532   0.1248   0.7749
4.000   0.6573   0.01281   0.00521  -0.0528   0.1142   0.7875
4.500   0.7106   0.01331   0.00573  -0.0523   0.1028   0.8025
5.000   0.7633   0.01381   0.00629  -0.0517   0.0927   0.8213
5.500   0.8146   0.01424   0.00681  -0.0508   0.0830   0.8508
6.000   0.8609   0.01443   0.00722  -0.0485   0.0742   1.0000
6.500   0.9161   0.01507   0.00783  -0.0487   0.0653   1.0000
7.000   0.9692   0.01584   0.00859  -0.0484   0.0565   1.0000
7.500   1.0198   0.01694   0.00968  -0.0477   0.0499   1.0000
8.000   1.0681   0.01834   0.01106  -0.0466   0.0454   1.0000
8.500   1.1167   0.01960   0.01240  -0.0456   0.0420   1.0000
9.000   1.1624   0.02135   0.01424  -0.0443   0.0396   1.0000
9.500   1.2080   0.02297   0.01602  -0.0429   0.0377   1.0000
10.000   1.2512   0.02496   0.01806  -0.0414   0.0362   1.0000
10.250   1.2711   0.02645   0.01964  -0.0404   0.0356   1.0000
10.500   1.2912   0.02755   0.02093  -0.0394   0.0351   1.0000
10.750   1.3103   0.02877   0.02234  -0.0384   0.0346   1.0000
11.000   1.3285   0.03002   0.02374  -0.0372   0.0340   1.0000
11.250   1.3458   0.03126   0.02514  -0.0360   0.0335   1.0000
11.500   1.3619   0.03257   0.02658  -0.0347   0.0330   1.0000
11.750   1.3769   0.03396   0.02810  -0.0333   0.0326   1.0000
12.000   1.3906   0.03545   0.02970  -0.0319   0.0323   1.0000
12.250   1.4025   0.03712   0.03148  -0.0303   0.0320   1.0000
12.500   1.4111   0.03925   0.03374  -0.0285   0.0317   1.0000
13.000   1.4063   0.04440   0.03934  -0.0227   0.0313   1.0000
13.250   1.3958   0.04695   0.04215  -0.0193   0.0313   1.0000
13.500   1.3821   0.05002   0.04549  -0.0167   0.0312   1.0000
13.750   1.3650   0.05375   0.04947  -0.0150   0.0312   1.0000
14.000   1.3443   0.05829   0.05427  -0.0144   0.0311   1.0000
14.250   1.3202   0.06384   0.06007  -0.0153   0.0311   1.0000
14.500   1.2926   0.07069   0.06715  -0.0181   0.0312   1.0000
14.750   1.2598   0.07959   0.07629  -0.0233   0.0313   1.0000
15.000   1.2203   0.09155   0.08847  -0.0318   0.0314   1.0000
15.750   0.6612   0.17458   0.17217  -0.0636   0.0416   1.0000
16.000   0.6676   0.17671   0.17432  -0.0640   0.0412   1.0000
