
 ===================================================
  XFOIL Version 6.99
  Copyright (C) 2000   Mark Drela, Harold Youngren

  This software comes with ABSOLUTELY NO WARRANTY,
    subject to the GNU General Public License.

  Caveat computor
 ===================================================

 File  xfoil.def  not found

   QUIT    Exit program

  .OPER    Direct operating point(s)
  .MDES    Complex mapping design routine
  .QDES    Surface speed design routine
  .GDES    Geometry design routine

   SAVE f  Write airfoil to labeled coordinate file
   PSAV f  Write airfoil to plain coordinate file
   ISAV f  Write airfoil to ISES coordinate file
   MSAV f  Write airfoil to MSES coordinate file
   REVE    Reverse written-airfoil node ordering

   LOAD f  Read buffer airfoil from coordinate file
   NACA i  Set NACA 4,5-digit airfoil and buffer airfoil
   INTE    Set buffer airfoil by interpolating two airfoils
   NORM    Buffer airfoil normalization toggle
   XYCM rr Change CM reference location, currently  0.25000 0.00000

   BEND    Display structural properties of current airfoil

   PCOP    Set current-airfoil panel nodes directly from buffer airfoil points
   PANE    Set current-airfoil panel nodes ( 160 ) based on curvature
  .PPAR    Show/change paneling

  .PLOP    Plotting options

   WDEF f  Write  current-settings file
   RDEF f  Reread current-settings file
   NAME s  Specify new airfoil name
   NINC    Increment name version number

   Z       Zoom    | (available in all menus)
   U       Unzoom  | 

 XFOIL   c>  
 Labeled airfoil file.  Name:   RAE(NPL) 5213 AIRFOIL                          

 Number of input coordinate points:  83
 Counterclockwise ordering
 Max thickness =     0.099500  at x =   0.355
 Max camber    =     0.014424  at x =   0.691

  LE  x,y  =  -0.00000   0.00005  |   Chord =   1.00000
  TE  x,y  =   1.00000   0.00000  |

 Current airfoil nodes set from buffer airfoil nodes (  83 )

 XFOIL   c>  
 XFOIL   c>  
 Sharp trailing edge

 Paneling parameters used...
   Number of panel nodes       160
   Panel bunching parameter    1.000
   TE/LE panel density ratio   0.150
   Refined-area/LE panel density ratio    0.200
   Top    side refined area x/c limits  1.000 1.000
   Bottom side refined area x/c limits  1.000 1.000

 XFOIL   c>  
.OPERi   c>  
 Xtr/c     =  1.0000    top    side
 Xtr/c     =  1.0000    bottom side
 Ncrit     =    9.00   ( 0.070 % turb. level )
 Vacc      =  0.0100

 Klag  =  5.6000     Uxwt  =    1.00
 A     =  6.7000     B     =  0.7500       KCt = 0.01485
 CtiniK=  1.8000     CtiniX=  3.3000

..VPAR   c>  
..VPAR   c>  
.OPERi   c>  
 M  =    0.0000
 Re =    600000

.OPERv   c>  
.OPERv   c>  
.OPERv   c>  
 Polar  1 newly created for accumulation
 Airfoil archived with polar: RAE(NPL) 5213 AIRFOIL                           

Enter  polar save filename  OR  <return> for no file   s>  
 New polar save file available

Enter  polar dump filename  OR  <return> for no file   s>  
 Polar dump file will NOT be written

 Polar accumulation enabled

.OPERva   c>   Calculating unit vorticity distributions ...
 Calculating wake trajectory ...
 Calculating source influence matrix ...

 Solving BL system ...

 Initializing BL ...
    side            1  ...
 MRCHUE: Inverse mode at  63     Hk =   4.120
 MRCHUE: Inverse mode at  64     Hk =   4.785
 MRCHUE: Inverse mode at  65     Hk =   5.439
 MRCHUE: Inverse mode at  66     Hk =   6.084
 MRCHUE: Inverse mode at  67     Hk =   6.719
 MRCHUE: Inverse mode at  68     Hk =   7.331
 MRCHUE: Inverse mode at  69     Hk =   7.913
 MRCHUE: Inverse mode at  70     Hk =   6.734
 MRCHUE: Inverse mode at  71     Hk =   4.714
 MRCHUE: Inverse mode at  72     Hk =   3.471
    side            2  ...
 MRCHUE: Inverse mode at  18     Hk =   3.800
 MRCHUE: Inverse mode at  19     Hk =   4.660
 MRCHUE: Inverse mode at  20     Hk =   5.504
 MRCHUE: Inverse mode at  21     Hk =   6.354
 MRCHUE: Inverse mode at  22     Hk =   7.223
 MRCHUE: Inverse mode at  23     Hk =   8.127
 MRCHUE: Inverse mode at  24     Hk =   9.082
 MRCHUE: Inverse mode at  25     Hk =   5.225
 MRCHUE: Inverse mode at  26     Hk =   2.500

 Side 1  free  transition at x/c =  0.9262   70
 Side 2  free  transition at x/c =  0.0371   25

   1   rms: 0.1192E+00   max: -.9260E+00   T at   70  1   RLX: 0.540
       a = -4.000      CL = -0.2098
      Cm = -0.0594     CD =  0.01029   =>   CDf =  0.00600    CDp =  0.00429

 MRCHDU: Convergence failed at  25  side 2    Res =  0.1060E+02
 MRCHDU: Convergence failed at  26  side 2    Res =  0.5738E+01
 MRCHDU: Convergence failed at  27  side 2    Res =  0.5397E+02
 MRCHDU: Convergence failed at  28  side 2    Res =  0.1609E+02
 MRCHDU: Convergence failed at  29  side 2    Res =  0.1372E+02
 MRCHDU: Convergence failed at  30  side 2    Res =  0.1308E+02
 MRCHDU: Convergence failed at  31  side 2    Res =  0.1487E+02
 MRCHDU: Convergence failed at  32  side 2    Res =  0.1825E+02
 MRCHDU: Convergence failed at  33  side 2    Res =  0.2298E+02
 MRCHDU: Convergence failed at  34  side 2    Res =  0.3291E+02
 MRCHDU: Convergence failed at  35  side 2    Res =  0.5789E+02
 MRCHDU: Convergence failed at  36  side 2    Res =  0.1731E+03
 MRCHDU: Convergence failed at  37  side 2    Res =  0.2644E+03
 MRCHDU: Convergence failed at  38  side 2    Res =  0.8130E+02
 MRCHDU: Convergence failed at  39  side 2    Res =  0.5056E+02
 MRCHDU: Convergence failed at  40  side 2    Res =  0.3805E+02
 MRCHDU: Convergence failed at  41  side 2    Res =  0.3112E+02
 MRCHDU: Convergence failed at  42  side 2    Res =  0.2639E+02
 MRCHDU: Convergence failed at  43  side 2    Res =  0.2358E+02
 MRCHDU: Convergence failed at  44  side 2    Res =  0.2118E+02
 MRCHDU: Convergence failed at  45  side 2    Res =  0.1962E+02
 MRCHDU: Convergence failed at  46  side 2    Res =  0.1839E+02
 MRCHDU: Convergence failed at  47  side 2    Res =  0.1706E+02
 MRCHDU: Convergence failed at  48  side 2    Res =  0.1189E+02
 MRCHDU: Convergence failed at  49  side 2    Res =  0.1231E+02
 MRCHDU: Convergence failed at  50  side 2    Res =  0.1291E+02
 MRCHDU: Convergence failed at  51  side 2    Res =  0.1332E+02
 MRCHDU: Convergence failed at  52  side 2    Res =  0.1389E+02
 MRCHDU: Convergence failed at  53  side 2    Res =  0.1446E+02
 MRCHDU: Convergence failed at  54  side 2    Res =  0.1524E+02
 MRCHDU: Convergence failed at  55  side 2    Res =  0.1619E+02
 MRCHDU: Convergence failed at  56  side 2    Res =  0.1761E+02
 MRCHDU: Convergence failed at  57  side 2    Res =  0.1955E+02
 MRCHDU: Convergence failed at  58  side 2    Res =  0.2566E+02
 MRCHDU: Convergence failed at  59  side 2    Res =  0.2874E+02
 MRCHDU: Convergence failed at  60  side 2    Res =  0.3289E+02
 MRCHDU: Convergence failed at  61  side 2    Res =  0.3673E+02
 MRCHDU: Convergence failed at  62  side 2    Res =  0.4749E+02
 MRCHDU: Convergence failed at  63  side 2    Res =  0.6876E+02
 MRCHDU: Convergence failed at  64  side 2    Res =  0.1204E+03
 MRCHDU: Convergence failed at  65  side 2    Res =  0.3567E+03
 MRCHDU: Convergence failed at  66  side 2    Res =  0.6366E+03
 MRCHDU: Convergence failed at  67  side 2    Res =  0.2177E+03
 MRCHDU: Convergence failed at  68  side 2    Res =  0.1696E+03
 MRCHDU: Convergence failed at  69  side 2    Res =  0.3393E+03
 MRCHDU: Convergence failed at  70  side 2    Res =  0.1891E+03
 MRCHDU: Convergence failed at  71  side 2    Res =  0.1414E+03
 MRCHDU: Convergence failed at  72  side 2    Res =  0.1240E+03
 MRCHDU: Convergence failed at  73  side 2    Res =  0.1198E+03
 MRCHDU: Convergence failed at  74  side 2    Res =  0.1169E+03
 MRCHDU: Convergence failed at  75  side 2    Res =  0.1162E+03
 MRCHDU: Convergence failed at  76  side 2    Res =  0.1270E+03
 MRCHDU: Convergence failed at  77  side 2    Res =  0.1414E+03
 MRCHDU: Convergence failed at  78  side 2    Res =  0.1372E+03
 MRCHDU: Convergence failed at  79  side 2    Res =  0.1301E+03
 MRCHDU: Convergence failed at  80  side 2    Res =  0.1509E+03
 MRCHDU: Convergence failed at  81  side 2    Res =  0.4587E+03
 MRCHDU: Convergence failed at  82  side 2    Res =  0.5299E+03
 MRCHDU: Convergence failed at  83  side 2    Res =  0.3685E+03
 MRCHDU: Convergence failed at  84  side 2    Res =  0.1779E+03
 MRCHDU: Convergence failed at  85  side 2    Res =  0.1564E+03
 MRCHDU: Convergence failed at  86  side 2    Res =  0.3178E+02
 Side 1  free  transition at x/c =  0.9485   71
 Side 2  free  transition at x/c =  0.0376   25

   2   rms: 0.8844E+00   max: 0.1594E+01   D at   88  2   RLX: 0.305
       a = -4.000      CL = -0.9733
      Cm =  0.1989     CD =  0.00372   =>   CDf =  0.00171    CDp =  0.00201

 MRCHDU: Convergence failed at  74  side 1    Res =  0.8499E+01
 MRCHDU: Convergence failed at  75  side 1    Res =  0.6925E+01
 MRCHDU: Convergence failed at  76  side 1    Res =  0.5877E+01
 Side 1  free  transition at x/c =  0.9791   74
 Side 2  free  transition at x/c =  0.0381   25

   3   rms: 0.3782E+00   max: -.6950E+00   D at   87  2   RLX: 0.485
       a = -4.000      CL = -0.5143
      Cm =  0.0327     CD =  0.01532   =>   CDf =  0.00619    CDp =  0.00913

 Side 1  free  transition at x/c =  0.9729   73
 Side 2  free  transition at x/c =  0.0355   24

   4   rms: 0.5443E+00   max: -.2953E+01   D at   54  2   RLX: 0.169
       a = -4.000      CL = -0.5021
      Cm =  0.0218     CD =  0.01416   =>   CDf =  0.00567    CDp =  0.00849

 MRCHDU: Convergence failed at  52  side 2    Res =  0.1039E+00
 Side 1  free  transition at x/c =  0.9543   72
 Side 2  free  transition at x/c =  0.0338   24

   5   rms: 0.3144E+00   max: -.1355E+01   D at   55  2   RLX: 0.369
       a = -4.000      CL = -0.4280
      Cm = -0.0036     CD =  0.01278   =>   CDf =  0.00583    CDp =  0.00695

 Side 1  free  transition at x/c =  0.9498   72
 Side 2  free  transition at x/c =  0.0332   24

   6   rms: 0.8198E+00   max: -.4481E+01   D at   62  2   RLX: 0.112
       a = -4.000      CL = -0.3841
      Cm = -0.0148     CD =  0.01214   =>   CDf =  0.00568    CDp =  0.00647

 MRCHDU: Convergence failed at  60  side 2    Res =  0.3030E+00
 Side 1  free  transition at x/c =  0.9552   72
 Side 2  free  transition at x/c =  0.0338   24

   7   rms: 0.3805E+00   max: -.1641E+01   D at   83  2   RLX: 0.305
       a = -4.000      CL = -0.3961
      Cm = -0.0167     CD =  0.01114   =>   CDf =  0.00611    CDp =  0.00503

 Side 1  free  transition at x/c =  0.9378   71
 Side 2  free  transition at x/c =  0.0320   24

   8   rms: 0.5311E+00   max: -.2696E+01   D at   79  2   RLX: 0.185
       a = -4.000      CL = -0.3916
      Cm = -0.0199     CD =  0.01006   =>   CDf =  0.00606    CDp =  0.00399

 MRCHDU: Convergence failed at  72  side 2    Res =  0.1423E+01
 Side 1  free  transition at x/c =  0.9327   70
 Side 2  free  transition at x/c =  0.0315   24
 idif Ue xi dudx           1  0.16520591      2.92313099E-03   56.516766    
 Uenew xinew           2  3.40639092E-02  6.02722168E-04

   9   rms: 0.2925E+02   max: 0.1994E+03   T at   70  1   RLX: 0.003
       a = -4.000      CL = -0.4720
      Cm =  0.0022     CD =  0.01109   =>   CDf =  0.00626    CDp =  0.00483

 MRCHDU: Convergence failed at  25  side 2    Res =  0.3385E+01
 MRCHDU: Convergence failed at  26  side 2    Res =  0.4054E+01
 MRCHDU: Convergence failed at  27  side 2    Res =  0.8654E+02
 MRCHDU: Convergence failed at  28  side 2    Res =  0.5483E+01
 MRCHDU: Convergence failed at  29  side 2    Res =  0.3673E+01
 MRCHDU: Convergence failed at  30  side 2    Res =  0.7810E+01
 MRCHDU: Convergence failed at  31  side 2    Res =  0.2394E+02
 MRCHDU: Convergence failed at  32  side 2    Res =  0.3218E+02
 MRCHDU: Convergence failed at  33  side 2    Res =  0.1014E+02
 MRCHDU: Convergence failed at  34  side 2    Res =  0.6972E+01
 MRCHDU: Convergence failed at  35  side 2    Res =  0.6204E+01
 MRCHDU: Convergence failed at  36  side 2    Res =  0.6395E+01
 MRCHDU: Convergence failed at  37  side 2    Res =  0.7076E+01
 MRCHDU: Convergence failed at  38  side 2    Res =  0.8155E+01
 MRCHDU: Convergence failed at  39  side 2    Res =  0.1085E+02
 MRCHDU: Convergence failed at  40  side 2    Res =  0.1339E+02
 MRCHDU: Convergence failed at  41  side 2    Res =  0.1680E+02
 MRCHDU: Convergence failed at  42  side 2    Res =  0.2254E+02
 MRCHDU: Convergence failed at  43  side 2    Res =  0.3069E+02
 MRCHDU: Convergence failed at  44  side 2    Res =  0.2712E+02
 MRCHDU: Convergence failed at  45  side 2    Res =  0.2609E+02
 MRCHDU: Convergence failed at  46  side 2    Res =  0.3276E+02
 MRCHDU: Convergence failed at  47  side 2    Res =  0.3132E+02
 MRCHDU: Convergence failed at  48  side 2    Res =  0.2961E+02
 MRCHDU: Convergence failed at  49  side 2    Res =  0.2866E+02
 MRCHDU: Convergence failed at  50  side 2    Res =  0.2850E+02
 MRCHDU: Convergence failed at  51  side 2    Res =  0.2976E+02
 MRCHDU: Convergence failed at  52  side 2    Res =  0.3542E+02
 MRCHDU: Convergence failed at  53  side 2    Res =  0.3811E+02
 MRCHDU: Convergence failed at  54  side 2    Res =  0.3948E+02
 MRCHDU: Convergence failed at  55  side 2    Res =  0.3344E+02
 MRCHDU: Convergence failed at  56  side 2    Res =  0.1899E+02
 MRCHDU: Convergence failed at  57  side 2    Res =  0.6274E+02
 MRCHDU: Convergence failed at  58  side 2    Res =  0.6418E+03
 MRCHDU: Convergence failed at  59  side 2    Res =  0.4885E+02
 MRCHDU: Convergence failed at  60  side 2    Res =  0.4473E+02
 MRCHDU: Convergence failed at  61  side 2    Res =  0.3758E+02
 MRCHDU: Convergence failed at  62  side 2    Res =  0.2345E+02
 MRCHDU: Convergence failed at  63  side 2    Res =  0.3697E+03
 MRCHDU: Convergence failed at  64  side 2    Res =  0.4856E+03
 MRCHDU: Convergence failed at  65  side 2    Res =  0.1069E+03
 MRCHDU: Convergence failed at  66  side 2    Res =  0.1052E+03
 MRCHDU: Convergence failed at  67  side 2    Res =  0.4147E+02
 MRCHDU: Convergence failed at  68  side 2    Res =  0.4392E+02
 MRCHDU: Convergence failed at  69  side 2    Res =  0.1081E+03
 MRCHDU: Convergence failed at  70  side 2    Res =  0.1329E+03
 MRCHDU: Convergence failed at  71  side 2    Res =  0.3309E+02
 MRCHDU: Convergence failed at  72  side 2    Res =  0.8928E+02
 MRCHDU: Convergence failed at  73  side 2    Res =  0.1047E+03
 MRCHDU: Convergence failed at  74  side 2    Res =  0.3584E+02
 MRCHDU: Convergence failed at  75  side 2    Res =  0.5209E+02
 MRCHDU: Convergence failed at  76  side 2    Res =  0.4450E+02
 MRCHDU: Convergence failed at  77  side 2    Res =  0.5107E+02
 MRCHDU: Convergence failed at  78  side 2    Res =  0.5465E+02
 MRCHDU: Convergence failed at  79  side 2    Res =  0.3988E+02
 MRCHDU: Convergence failed at  80  side 2    Res =  0.4778E+02
 MRCHDU: Convergence failed at  81  side 2    Res =  0.4555E+02
 MRCHDU: Convergence failed at  82  side 2    Res =  0.4237E+02
 MRCHDU: Convergence failed at  83  side 2    Res =  0.3884E+02
 MRCHDU: Convergence failed at  84  side 2    Res =  0.4356E+02
 MRCHDU: Convergence failed at  85  side 2    Res =  0.4896E+02
 MRCHDU: Convergence failed at  86  side 2    Res =  0.4233E+02
 MRCHDU: Convergence failed at  87  side 2    Res =  0.3428E+02
 Side 1  free  transition at x/c =  0.9061   68
 Side 2  free  transition at x/c =  0.0301   24

  10   rms: 0.1068E+01   max: 0.2954E+01   D at   89  2   RLX: 0.170
       a = -4.000      CL = -1.4662
      Cm =  0.3426     CD =  0.00531   =>   CDf =  0.00157    CDp =  0.00374

 MRCHDU: Convergence failed at  28  side 2    Res =  0.2287E+00
 MRCHDU: Convergence failed at  29  side 2    Res =  0.2195E+00
 MRCHDU: Convergence failed at  30  side 2    Res =  0.2140E+00
 MRCHDU: Convergence failed at  31  side 2    Res =  0.2060E+00
 MRCHDU: Convergence failed at  32  side 2    Res =  0.1986E+00
 MRCHDU: Convergence failed at  33  side 2    Res =  0.1902E+00
 MRCHDU: Convergence failed at  34  side 2    Res =  0.1846E+00
 MRCHDU: Convergence failed at  35  side 2    Res =  0.1790E+00
 MRCHDU: Convergence failed at  36  side 2    Res =  0.1672E+00
 MRCHDU: Convergence failed at  65  side 2    Res =  0.5112E-03
 Side 1  free  transition at x/c =  0.9295   70
 Side 2  free  transition at x/c =  0.0328   24

  11   rms: 0.7129E+00   max: -.4527E+01   T at   70  1   RLX: 0.110
       a = -4.000      CL = -0.9366
      Cm =  0.2081     CD =  0.02148   =>   CDf =  0.00325    CDp =  0.01823

 MRCHDU: Convergence failed at  36  side 2    Res =  0.2126E+00
 MRCHDU: Convergence failed at  37  side 2    Res =  0.1944E+00
 MRCHDU: Convergence failed at  38  side 2    Res =  0.9574E+00
 MRCHDU: Convergence failed at  39  side 2    Res =  0.1002E+01
 MRCHDU: Convergence failed at  40  side 2    Res =  0.1013E+01
 MRCHDU: Convergence failed at  41  side 2    Res =  0.1037E+01
 MRCHDU: Convergence failed at  42  side 2    Res =  0.7490E+00
 MRCHDU: Convergence failed at  43  side 2    Res =  0.7069E+00
 MRCHDU: Convergence failed at  44  side 2    Res =  0.6449E+00
 MRCHDU: Convergence failed at  45  side 2    Res =  0.5676E+00
 MRCHDU: Convergence failed at  46  side 2    Res =  0.4774E+00
 MRCHDU: Convergence failed at  47  side 2    Res =  0.3736E+00
 MRCHDU: Convergence failed at  48  side 2    Res =  0.2445E+00
 MRCHDU: Convergence failed at  64  side 2    Res =  0.9247E+00
 MRCHDU: Convergence failed at  65  side 2    Res =  0.1629E+01
 MRCHDU: Convergence failed at  66  side 2    Res =  0.1274E+01
 MRCHDU: Convergence failed at  67  side 2    Res =  0.1255E+01
 MRCHDU: Convergence failed at  68  side 2    Res =  0.1232E+01
 MRCHDU: Convergence failed at  69  side 2    Res =  0.1209E+01
 MRCHDU: Convergence failed at  70  side 2    Res =  0.1187E+01
 MRCHDU: Convergence failed at  71  side 2    Res =  0.1166E+01
 MRCHDU: Convergence failed at  72  side 2    Res =  0.1143E+01
 MRCHDU: Convergence failed at  73  side 2    Res =  0.1119E+01
 MRCHDU: Convergence failed at  74  side 2    Res =  0.1097E+01
 MRCHDU: Convergence failed at  75  side 2    Res =  0.1075E+01
 MRCHDU: Convergence failed at  76  side 2    Res =  0.1053E+01
 MRCHDU: Convergence failed at  77  side 2    Res =  0.1030E+01
 MRCHDU: Convergence failed at  78  side 2    Res =  0.1009E+01
 MRCHDU: Convergence failed at  79  side 2    Res =  0.9902E+00
 MRCHDU: Convergence failed at  80  side 2    Res =  0.9725E+00
 MRCHDU: Convergence failed at  81  side 2    Res =  0.9561E+00
 MRCHDU: Convergence failed at  82  side 2    Res =  0.9424E+00
 MRCHDU: Convergence failed at  83  side 2    Res =  0.9313E+00
 MRCHDU: Convergence failed at  84  side 2    Res =  0.9232E+00
 MRCHDU: Convergence failed at  85  side 2    Res =  0.9175E+00
 MRCHDU: Convergence failed at  86  side 2    Res =  0.9132E+00
 Side 1  free  transition at x/c =  0.9589   72
 Side 2  free  transition at x/c =  0.0340   24

  12   rms: 0.1035E+01   max: -.4673E+01   T at   24  2   RLX: 0.107
       a = -4.000      CL = -0.3471
      Cm =  0.0095     CD =  0.02085   =>   CDf =  0.00197    CDp =  0.01888

 Side 1  free  transition at x/c =  0.9562   72
 Side 2  free  transition at x/c =  0.0393   25

  13   rms: 0.3787E+02   max: -.2717E+03   D at   41  2   RLX: 0.002
       a = -4.000      CL = -0.1617
      Cm = -0.0508     CD =  0.03024   =>   CDf =  0.00222    CDp =  0.02802

 MRCHDU: Convergence failed at  27  side 2    Res =  0.3645E+01
 MRCHDU: Convergence failed at  28  side 2    Res =  0.2857E+01
 MRCHDU: Convergence failed at  29  side 2    Res =  0.2326E+01
 MRCHDU: Convergence failed at  30  side 2    Res =  0.3352E+01
 MRCHDU: Convergence failed at  31  side 2    Res =  0.5789E+01
 MRCHDU: Convergence failed at  32  side 2    Res =  0.2236E+02
 MRCHDU: Convergence failed at  33  side 2    Res =  0.1397E+02
 MRCHDU: Convergence failed at  34  side 2    Res =  0.5675E+01
 MRCHDU: Convergence failed at  35  side 2    Res =  0.7092E+01
 MRCHDU: Convergence failed at  36  side 2    Res =  0.1038E+02
 MRCHDU: Convergence failed at  37  side 2    Res =  0.1677E+02
 MRCHDU: Convergence failed at  38  side 2    Res =  0.9791E+02
 MRCHDU: Convergence failed at  39  side 2    Res =  0.2638E+02
 MRCHDU: Convergence failed at  40  side 2    Res =  0.1131E+02
 MRCHDU: Convergence failed at  41  side 2    Res =  0.1029E+03
 MRCHDU: Convergence failed at  42  side 2    Res =  0.8499E+01
 MRCHDU: Convergence failed at  43  side 2    Res =  0.9721E+01
 MRCHDU: Convergence failed at  44  side 2    Res =  0.1093E+02
 MRCHDU: Convergence failed at  45  side 2    Res =  0.1285E+02
 MRCHDU: Convergence failed at  46  side 2    Res =  0.1715E+02
 MRCHDU: Convergence failed at  47  side 2    Res =  0.2217E+02
 MRCHDU: Convergence failed at  48  side 2    Res =  0.3076E+02
 MRCHDU: Convergence failed at  49  side 2    Res =  0.1952E+02
 MRCHDU: Convergence failed at  50  side 2    Res =  0.2587E+02
 MRCHDU: Convergence failed at  51  side 2    Res =  0.1262E+02
 MRCHDU: Convergence failed at  52  side 2    Res =  0.9229E+01
 MRCHDU: Convergence failed at  53  side 2    Res =  0.1014E+02
 MRCHDU: Convergence failed at  54  side 2    Res =  0.1184E+02
 MRCHDU: Convergence failed at  55  side 2    Res =  0.1339E+02
 MRCHDU: Convergence failed at  56  side 2    Res =  0.1587E+02
 MRCHDU: Convergence failed at  57  side 2    Res =  0.2157E+02
 MRCHDU: Convergence failed at  58  side 2    Res =  0.3598E+02
 MRCHDU: Convergence failed at  59  side 2    Res =  0.2487E+03
 MRCHDU: Convergence failed at  60  side 2    Res =  0.8538E+02
 MRCHDU: Convergence failed at  61  side 2    Res =  0.3909E+02
 MRCHDU: Convergence failed at  62  side 2    Res =  0.1224E+03
 MRCHDU: Convergence failed at  63  side 2    Res =  0.2049E+02
 MRCHDU: Convergence failed at  64  side 2    Res =  0.1804E+02
 MRCHDU: Convergence failed at  65  side 2    Res =  0.2023E+02
 MRCHDU: Convergence failed at  66  side 2    Res =  0.2285E+02
 MRCHDU: Convergence failed at  67  side 2    Res =  0.1848E+02
 MRCHDU: Convergence failed at  68  side 2    Res =  0.2095E+02
 MRCHDU: Convergence failed at  69  side 2    Res =  0.2402E+02
 MRCHDU: Convergence failed at  70  side 2    Res =  0.1677E+02
 MRCHDU: Convergence failed at  71  side 2    Res =  0.1883E+02
 MRCHDU: Convergence failed at  72  side 2    Res =  0.1923E+02
 MRCHDU: Convergence failed at  73  side 2    Res =  0.1345E+02
 MRCHDU: Convergence failed at  74  side 2    Res =  0.1533E+02
 MRCHDU: Convergence failed at  75  side 2    Res =  0.1759E+02
 MRCHDU: Convergence failed at  76  side 2    Res =  0.2058E+02
 MRCHDU: Convergence failed at  77  side 2    Res =  0.2455E+02
 MRCHDU: Convergence failed at  78  side 2    Res =  0.3024E+02
 MRCHDU: Convergence failed at  79  side 2    Res =  0.3714E+02
 MRCHDU: Convergence failed at  80  side 2    Res =  0.4566E+02
 MRCHDU: Convergence failed at  81  side 2    Res =  0.6326E+02
 MRCHDU: Convergence failed at  82  side 2    Res =  0.1176E+03
 MRCHDU: Convergence failed at  83  side 2    Res =  0.5926E+02
 MRCHDU: Convergence failed at  84  side 2    Res =  0.4091E+02
 MRCHDU: Convergence failed at  85  side 2    Res =  0.3148E+02
 MRCHDU: Convergence failed at  86  side 2    Res =  0.1337E+02
 Side 1  free  transition at x/c =  0.9576   72
 Side 2  free  transition at x/c =  0.0544   28

  14   rms: 0.8192E+00   max: 0.8464E+00   D at   90  2   RLX: 0.162
       a = -4.000      CL = -1.3128
      Cm =  0.2890     CD =  0.00368   =>   CDf =  0.00204    CDp =  0.00164

 Side 1  free  transition at x/c =  0.9602   72
 Side 2  free  transition at x/c =  0.0447   26

  15   rms: 0.5700E+00   max: -.6016E+00   U at   86  2   RLX: 0.456
       a = -4.000      CL = -0.7571
      Cm =  0.1102     CD =  0.00626   =>   CDf =  0.01068    CDp = -0.00442

 MRCHDU: Convergence failed at  26  side 2    Res =  0.1158E+03
 Side 1  free  transition at x/c =  0.9618   72
 Side 2  free  transition at x/c =  0.0366   25

  16   rms: 0.3207E+00   max: -.3259E+00   U at   86  2   RLX: 0.813
       a = -4.000      CL = -0.2993
      Cm = -0.0305     CD =  0.00816   =>   CDf =  0.00835    CDp = -0.00019

 MRCHDU: Convergence failed at  25  side 2    Res =  0.1903E+01
 MRCHDU: Convergence failed at  26  side 2    Res =  0.7571E+03
 MRCHDU: Convergence failed at  27  side 2    Res =  0.1466E+01
 MRCHDU: Convergence failed at  28  side 2    Res =  0.2310E+02
 MRCHDU: Convergence failed at  29  side 2    Res =  0.3080E+01
 MRCHDU: Convergence failed at  30  side 2    Res =  0.1618E+01
 MRCHDU: Convergence failed at  31  side 2    Res =  0.1469E+01
 MRCHDU: Convergence failed at  32  side 2    Res =  0.1439E+01
 MRCHDU: Convergence failed at  33  side 2    Res =  0.2312E+01
 MRCHDU: Convergence failed at  34  side 2    Res =  0.2591E+01
 MRCHDU: Convergence failed at  35  side 2    Res =  0.2850E+01
 MRCHDU: Convergence failed at  36  side 2    Res =  0.2958E+01
 MRCHDU: Convergence failed at  37  side 2    Res =  0.3048E+01
 MRCHDU: Convergence failed at  38  side 2    Res =  0.3143E+01
 MRCHDU: Convergence failed at  39  side 2    Res =  0.2119E+01
 MRCHDU: Convergence failed at  40  side 2    Res =  0.2296E+01
 MRCHDU: Convergence failed at  41  side 2    Res =  0.2502E+01
 MRCHDU: Convergence failed at  42  side 2    Res =  0.2819E+01
 MRCHDU: Convergence failed at  43  side 2    Res =  0.3069E+01
 MRCHDU: Convergence failed at  44  side 2    Res =  0.3339E+01
 MRCHDU: Convergence failed at  45  side 2    Res =  0.3623E+01
 MRCHDU: Convergence failed at  46  side 2    Res =  0.3920E+01
 MRCHDU: Convergence failed at  47  side 2    Res =  0.4249E+01
 MRCHDU: Convergence failed at  48  side 2    Res =  0.4596E+01
 MRCHDU: Convergence failed at  49  side 2    Res =  0.5019E+01
 MRCHDU: Convergence failed at  50  side 2    Res =  0.5486E+01
 MRCHDU: Convergence failed at  51  side 2    Res =  0.6026E+01
 MRCHDU: Convergence failed at  52  side 2    Res =  0.6672E+01
 MRCHDU: Convergence failed at  53  side 2    Res =  0.7445E+01
 MRCHDU: Convergence failed at  54  side 2    Res =  0.8366E+01
 MRCHDU: Convergence failed at  55  side 2    Res =  0.9405E+01
 MRCHDU: Convergence failed at  56  side 2    Res =  0.1058E+02
 MRCHDU: Convergence failed at  57  side 2    Res =  0.1224E+02
 MRCHDU: Convergence failed at  58  side 2    Res =  0.1449E+02
 MRCHDU: Convergence failed at  59  side 2    Res =  0.1577E+02
 MRCHDU: Convergence failed at  60  side 2    Res =  0.2046E+02
 MRCHDU: Convergence failed at  61  side 2    Res =  0.2220E+02
 MRCHDU: Convergence failed at  62  side 2    Res =  0.2445E+02
 MRCHDU: Convergence failed at  63  side 2    Res =  0.4423E+02
 MRCHDU: Convergence failed at  64  side 2    Res =  0.3347E+02
 MRCHDU: Convergence failed at  65  side 2    Res =  0.3066E+02
 MRCHDU: Convergence failed at  66  side 2    Res =  0.1585E+02
 MRCHDU: Convergence failed at  67  side 2    Res =  0.4335E+02
 MRCHDU: Convergence failed at  68  side 2    Res =  0.1751E+02
 MRCHDU: Convergence failed at  69  side 2    Res =  0.1909E+02
 MRCHDU: Convergence failed at  70  side 2    Res =  0.1913E+02
 MRCHDU: Convergence failed at  71  side 2    Res =  0.1903E+02
 MRCHDU: Convergence failed at  72  side 2    Res =  0.1869E+02
 MRCHDU: Convergence failed at  73  side 2    Res =  0.1822E+02
 MRCHDU: Convergence failed at  74  side 2    Res =  0.2114E+02
 MRCHDU: Convergence failed at  75  side 2    Res =  0.3960E+02
 MRCHDU: Convergence failed at  76  side 2    Res =  0.7757E+02
 MRCHDU: Convergence failed at  77  side 2    Res =  0.1540E+03
 MRCHDU: Convergence failed at  78  side 2    Res =  0.2220E+02
 MRCHDU: Convergence failed at  79  side 2    Res =  0.7466E+02
 MRCHDU: Convergence failed at  80  side 2    Res =  0.2779E+02
 MRCHDU: Convergence failed at  81  side 2    Res =  0.3266E+02
 MRCHDU: Convergence failed at  82  side 2    Res =  0.3006E+02
 MRCHDU: Convergence failed at  83  side 2    Res =  0.3044E+02
 MRCHDU: Convergence failed at  84  side 2    Res =  0.3146E+02
 MRCHDU: Convergence failed at  85  side 2    Res =  0.3201E+02
 MRCHDU: Convergence failed at  86  side 2    Res =  0.2939E+02
 Side 1  free  transition at x/c =  0.9682   73
 Side 2  free  transition at x/c =  0.0351   24

  17   rms: 0.1136E+01   max: 0.4508E+01   D at   88  2   RLX: 0.333
       a = -4.000      CL = -0.9510
      Cm =  0.1954     CD =  0.00429   =>   CDf =  0.00168    CDp =  0.00261

 MRCHDU: Convergence failed at  28  side 2    Res =  0.1679E-01
 MRCHDU: Convergence failed at  36  side 2    Res =  0.2523E+00
 MRCHDU: Convergence failed at  37  side 2    Res =  0.1792E+00
 MRCHDU: Convergence failed at  39  side 2    Res =  0.3359E+00
 MRCHDU: Convergence failed at  40  side 2    Res =  0.3155E+00
 MRCHDU: Convergence failed at  41  side 2    Res =  0.2957E+00
 MRCHDU: Convergence failed at  42  side 2    Res =  0.2684E+00
 MRCHDU: Convergence failed at  43  side 2    Res =  0.2277E+00
 MRCHDU: Convergence failed at  45  side 2    Res =  0.7195E-01
 MRCHDU: Convergence failed at  78  side 2    Res =  0.2446E+00
 MRCHDU: Convergence failed at  79  side 2    Res =  0.2564E+00
 MRCHDU: Convergence failed at  80  side 2    Res =  0.2710E+00
 MRCHDU: Convergence failed at  81  side 2    Res =  0.2869E+00
 MRCHDU: Convergence failed at  82  side 2    Res =  0.3031E+00
 MRCHDU: Convergence failed at  83  side 2    Res =  0.3190E+00
 MRCHDU: Convergence failed at  84  side 2    Res =  0.3341E+00
 MRCHDU: Convergence failed at  85  side 2    Res =  0.3487E+00
 MRCHDU: Convergence failed at  86  side 2    Res =  0.3371E+00
 MRCHDU: Convergence failed at  88  side 2    Res =  0.1133E+02
 MRCHDU: Convergence failed at  89  side 2    Res =  0.5644E+01
 MRCHDU: Convergence failed at  90  side 2    Res =  0.3552E+01
 MRCHDU: Convergence failed at  91  side 2    Res =  0.2575E+01
 Side 1  free  transition at x/c =  0.9835   74
 Side 2  free  transition at x/c =  0.0340   24

  18   rms: 0.3362E+00   max: -.1311E+01   D at   33  2   RLX: 0.381
       a = -4.000      CL = -0.3628
      Cm =  0.0228     CD =  0.03391   =>   CDf =  0.00254    CDp =  0.03137

 MRCHDU: Convergence failed at  28  side 2    Res =  0.6849E-02
 Side 1  free  transition at x/c =  0.9888   75
 Side 2  free  transition at x/c =  0.0359   25

  19   rms: 0.6872E+00   max: -.5099E+01   D at   40  2   RLX: 0.098
       a = -4.000      CL = -0.3347
      Cm =  0.0172     CD =  0.03628   =>   CDf =  0.00301    CDp =  0.03328

 MRCHDU: Convergence failed at  28  side 2    Res =  0.1786E-03
 Side 1  free  transition at x/c =  0.9865   75
 Side 2  free  transition at x/c =  0.0361   25

  20   rms: 0.1849E+01   max: -.1386E+02   D at   40  2   RLX: 0.036
       a = -4.000      CL = -0.3300
      Cm =  0.0141     CD =  0.03633   =>   CDf =  0.00322    CDp =  0.03310

 MRCHDU: Convergence failed at  28  side 2    Res =  0.1079E-01
 Side 1  free  transition at x/c =  0.9854   75
 Side 2  free  transition at x/c =  0.0363   25

  21   rms: 0.4285E+01   max: 0.3482E+02   D at   40  2   RLX: 0.043
       a = -4.000      CL = -0.3310
      Cm =  0.0136     CD =  0.03573   =>   CDf =  0.00347    CDp =  0.03226

 Side 1  free  transition at x/c =  0.9863   75
 Side 2  free  transition at x/c =  0.0358   24

  22   rms: 0.5378E+00   max: -.2997E+01   D at   40  2   RLX: 0.167
       a = -4.000      CL = -0.2828
      Cm = -0.0039     CD =  0.03278   =>   CDf =  0.00282    CDp =  0.02996

 Side 1  free  transition at x/c =  0.9834   74
 Side 2  free  transition at x/c =  0.0362   25

  23   rms: 0.8039E+00   max: -.4948E+01   D at   40  2   RLX: 0.101
       a = -4.000      CL = -0.2651
      Cm = -0.0179     CD =  0.03117   =>   CDf =  0.00306    CDp =  0.02811

 Side 1  free  transition at x/c =  0.9746   74
 Side 2  free  transition at x/c =  0.0360   25

  24   rms: 0.7666E+00   max: -.3927E+01   D at   36  2   RLX: 0.127
       a = -4.000      CL = -0.2662
      Cm = -0.0288     CD =  0.02754   =>   CDf =  0.00322    CDp =  0.02432

 Side 1  free  transition at x/c =  0.9712   73
 Side 2  free  transition at x/c =  0.0358   24

  25   rms: 0.1356E+01   max: 0.5815E+01   T at   73  1   RLX: 0.112
       a = -4.000      CL = -0.3131
      Cm = -0.0391     CD =  0.02183   =>   CDf =  0.00343    CDp =  0.01840

 Side 1  free  transition at x/c =  0.9378   71
 Side 2  free  transition at x/c =  0.0328   24
 idif Ue xi dudx           1  0.15632416      2.66325474E-03   58.696663    
 Uenew xinew           2  2.01239120E-02  3.42845917E-04

  26   rms: 0.1323E+02   max: -.4708E+02   D at   92  2   RLX: 0.011
       a = -4.000      CL = -0.3423
      Cm = -0.0470     CD =  0.01702   =>   CDf =  0.00357    CDp =  0.01344

 Side 1  free  transition at x/c =  0.9232   69
 Side 2  free  transition at x/c =  0.0313   25

  27   rms: 0.2707E+01   max: -.1157E+02   D at   78  2   RLX: 0.043
       a = -4.000      CL = -0.3731
      Cm = -0.0470     CD =  0.01494   =>   CDf =  0.00388    CDp =  0.01107

 Side 1  free  transition at x/c =  0.9144   68
 Side 2  free  transition at x/c =  0.0307   24

  28   rms: 0.1259E+01   max: -.5607E+01   D at   78  2   RLX: 0.089
       a = -4.000      CL = -0.3930
      Cm = -0.0446     CD =  0.01342   =>   CDf =  0.00420    CDp =  0.00922

 MRCHDU: Convergence failed at  31  side 2    Res =  0.2690E+00
 Side 1  free  transition at x/c =  0.9082   68
 Side 2  free  transition at x/c =  0.0302   24

  29   rms: 0.6522E+00   max: -.2614E+01   D at   78  2   RLX: 0.191
       a = -4.000      CL = -0.3977
      Cm = -0.0450     CD =  0.01200   =>   CDf =  0.00478    CDp =  0.00722

 Side 1  free  transition at x/c =  0.9105   68
 Side 2  free  transition at x/c =  0.0301   24

  30   rms: 0.4960E+00   max: -.2125E+01   D at   49  2   RLX: 0.235
       a = -4.000      CL = -0.3647
      Cm = -0.0463     CD =  0.01104   =>   CDf =  0.00498    CDp =  0.00607

 Side 1  free  transition at x/c =  0.9189   69
 Side 2  free  transition at x/c =  0.0306   24

  31   rms: 0.8907E+00   max: -.5800E+01   D at   49  2   RLX: 0.086
       a = -4.000      CL = -0.3559
      Cm = -0.0470     CD =  0.01061   =>   CDf =  0.00534    CDp =  0.00527

 MRCHDU: Convergence failed at  47  side 2    Res =  0.5550E+00
 MRCHDU: Convergence failed at  48  side 2    Res =  0.1861E+00
 Side 1  free  transition at x/c =  0.9209   69
 Side 2  free  transition at x/c =  0.0307   24

  32   rms: 0.3010E+00   max: -.9167E+00   D at   74  2   RLX: 0.545
       a = -4.000      CL = -0.2737
      Cm = -0.0558     CD =  0.01037   =>   CDf =  0.00609    CDp =  0.00428

 Side 1  free  transition at x/c =  0.9375   71
 Side 2  free  transition at x/c =  0.0333   24

  33   rms: 0.1725E+00   max: -.1243E+01   T at   71  1   RLX: 0.402
       a = -4.000      CL = -0.2332
      Cm = -0.0588     CD =  0.01022   =>   CDf =  0.00592    CDp =  0.00430

 Side 1  free  transition at x/c =  0.9484   71
 Side 2  free  transition at x/c =  0.0342   24

  34   rms: 0.1360E+00   max: -.1504E+01   T at   71  1   RLX: 0.332
       a = -4.000      CL = -0.2125
      Cm = -0.0603     CD =  0.01085   =>   CDf =  0.00595    CDp =  0.00490

 MRCHDU: Convergence failed at  73  side 1    Res =  0.3674E+01
 MRCHDU: Convergence failed at  74  side 1    Res =  0.6229E+01
 MRCHDU: Convergence failed at  75  side 1    Res =  0.3555E+01
 MRCHDU: Convergence failed at  76  side 1    Res =  0.3926E+01
 Side 1  free  transition at x/c =  0.9652   73
 Side 2  free  transition at x/c =  0.0346   24

  35   rms: 0.1059E+00   max: 0.8322E+00   C at   73  1
       a = -4.000      CL = -0.2253
      Cm = -0.0535     CD =  0.00991   =>   CDf =  0.00594    CDp =  0.00397

 Side 1  free  transition at x/c =  0.9503   72
 Side 2  free  transition at x/c =  0.0337   24

  36   rms: 0.6137E-01   max: -.4790E+00   D at   76  1
       a = -4.000      CL = -0.1988
      Cm = -0.0591     CD =  0.00986   =>   CDf =  0.00600    CDp =  0.00386

 Side 1  free  transition at x/c =  0.9701   73
 Side 2  free  transition at x/c =  0.0345   24

  37   rms: 0.1576E-01   max: 0.1176E+00   D at   76  1
       a = -4.000      CL = -0.2080
      Cm = -0.0571     CD =  0.01000   =>   CDf =  0.00599    CDp =  0.00401

 Side 1  free  transition at x/c =  0.9636   73
 Side 2  free  transition at x/c =  0.0343   24

  38   rms: 0.6776E-02   max: -.5981E-01   D at   74  1
       a = -4.000      CL = -0.2064
      Cm = -0.0574     CD =  0.00999   =>   CDf =  0.00600    CDp =  0.00400

 Side 1  free  transition at x/c =  0.9652   73
 Side 2  free  transition at x/c =  0.0343   24

  39   rms: 0.1872E-03   max: -.2424E-02   D at   73  1
       a = -4.000      CL = -0.2064
      Cm = -0.0574     CD =  0.01000   =>   CDf =  0.00600    CDp =  0.00400

 Side 1  free  transition at x/c =  0.9652   73
 Side 2  free  transition at x/c =  0.0343   24

  40   rms: 0.2731E-05   max: 0.1102E-04   D at   74  1
       a = -4.000      CL = -0.2064
      Cm = -0.0574     CD =  0.01000   =>   CDf =  0.00600    CDp =  0.00400
 plradd ia,ip,cpol            1           0  2.20124074E-03

 Point added to stored polar  1
 Point written to save file  rae5213_Re600k.base.pol                         
 Dump file unspecified or not available
 Calculating wake trajectory ...
 Calculating source influence matrix ...

 Solving BL system ...

 Side 1  free  transition at x/c =  0.9652   73
 Side 2  free  transition at x/c =  0.0343   24

   1   rms: 0.1069E+00   max: -.5574E+00   T at   24  2   RLX: 0.897
       a = -3.500      CL = -0.1438
      Cm = -0.0600     CD =  0.00938   =>   CDf =  0.00606    CDp =  0.00332

 Side 1  free  transition at x/c =  0.9582   73
 Side 2  free  transition at x/c =  0.0385   24

   2   rms: 0.1445E-01   max: 0.2429E+00   D at   24  2
       a = -3.500      CL = -0.1452
      Cm = -0.0584     CD =  0.00930   =>   CDf =  0.00600    CDp =  0.00330

 Side 1  free  transition at x/c =  0.9510   73
 Side 2  free  transition at x/c =  0.0387   24

   3   rms: 0.8520E-02   max: -.7284E-01   T at   74  1
       a = -3.500      CL = -0.1421
      Cm = -0.0591     CD =  0.00927   =>   CDf =  0.00600    CDp =  0.00328

 Side 1  free  transition at x/c =  0.9537   73
 Side 2  free  transition at x/c =  0.0389   24

   4   rms: 0.1044E-02   max: -.8660E-02   D at   73  1
       a = -3.500      CL = -0.1430
      Cm = -0.0589     CD =  0.00928   =>   CDf =  0.00599    CDp =  0.00329

 Side 1  free  transition at x/c =  0.9534   73
 Side 2  free  transition at x/c =  0.0388   24

   5   rms: 0.2297E-04   max: -.2262E-03   C at   73  1
       a = -3.500      CL = -0.1430
      Cm = -0.0589     CD =  0.00928   =>   CDf =  0.00599    CDp =  0.00329
 plradd ia,ip,cpol            2           0  2.20124074E-03

 Point added to stored polar  1
 Point written to save file  rae5213_Re600k.base.pol                         
 Dump file unspecified or not available
 Calculating wake trajectory ...
 Calculating source influence matrix ...

 Solving BL system ...

 Side 1  free  transition at x/c =  0.9534   73
 Side 2  free  transition at x/c =  0.0388   24

   1   rms: 0.1056E+00   max: -.6550E+00   T at   24  2   RLX: 0.763
       a = -3.000      CL = -0.0942
      Cm = -0.0600     CD =  0.00886   =>   CDf =  0.00604    CDp =  0.00282

 Side 1  free  transition at x/c =  0.9443   73
 Side 2  free  transition at x/c =  0.0436   24

   2   rms: 0.3297E-01   max: -.2770E+00   T at   24  2
       a = -3.000      CL = -0.0849
      Cm = -0.0590     CD =  0.00869   =>   CDf =  0.00598    CDp =  0.00271

 Side 1  free  transition at x/c =  0.9356   73
 Side 2  free  transition at x/c =  0.0469   24

   3   rms: 0.1259E-01   max: -.1169E+00   D at   24  2
       a = -3.000      CL = -0.0823
      Cm = -0.0595     CD =  0.00872   =>   CDf =  0.00600    CDp =  0.00272

 Side 1  free  transition at x/c =  0.9386   73
 Side 2  free  transition at x/c =  0.0480   25

   4   rms: 0.7435E-02   max: -.1020E+00   D at   24  2
       a = -3.000      CL = -0.0831
      Cm = -0.0594     CD =  0.00868   =>   CDf =  0.00597    CDp =  0.00271

 Side 1  free  transition at x/c =  0.9381   73
 Side 2  free  transition at x/c =  0.0485   25

   5   rms: 0.1062E-02   max: 0.1121E-01   T at   25  2
       a = -3.000      CL = -0.0831
      Cm = -0.0594     CD =  0.00869   =>   CDf =  0.00597    CDp =  0.00273

 Side 1  free  transition at x/c =  0.9382   73
 Side 2  free  transition at x/c =  0.0484   25

   6   rms: 0.1353E-04   max: -.1420E-03   D at   26  2
       a = -3.000      CL = -0.0831
      Cm = -0.0594     CD =  0.00869   =>   CDf =  0.00597    CDp =  0.00272
 plradd ia,ip,cpol            3           0  3.63157899E-03

 Point added to stored polar  1
 Point written to save file  rae5213_Re600k.base.pol                         
 Dump file unspecified or not available
 Calculating wake trajectory ...
 Calculating source influence matrix ...

 Solving BL system ...

 Side 1  free  transition at x/c =  0.9382   73
 Side 2  free  transition at x/c =  0.0484   25

   1   rms: 0.1544E+00   max: 0.1120E+01   D at   25  2   RLX: 0.458
       a = -2.500      CL = -0.0558
      Cm = -0.0596     CD =  0.00831   =>   CDf =  0.00597    CDp =  0.00234

 Side 1  free  transition at x/c =  0.9309   72
 Side 2  free  transition at x/c =  0.0603   26

   2   rms: 0.1288E+00   max: -.2101E+01   C at   26  2   RLX: 0.238
       a = -2.500      CL = -0.0492
      Cm = -0.0592     CD =  0.00831   =>   CDf =  0.00592    CDp =  0.00239

 Side 1  free  transition at x/c =  0.9267   72
 Side 2  free  transition at x/c =  0.0699   27

   3   rms: 0.1995E+00   max: -.4547E+01   C at   27  2   RLX: 0.110
       a = -2.500      CL = -0.0470
      Cm = -0.0591     CD =  0.00825   =>   CDf =  0.00588    CDp =  0.00237

 Side 1  free  transition at x/c =  0.9255   72
 Side 2  free  transition at x/c =  0.0721   28

   4   rms: 0.1329E+00   max: -.1804E+01   C at   28  2   RLX: 0.277
       a = -2.500      CL = -0.0417
      Cm = -0.0590     CD =  0.00812   =>   CDf =  0.00589    CDp =  0.00223

 Side 1  free  transition at x/c =  0.9229   72
 Side 2  free  transition at x/c =  0.0928   29

   5   rms: 0.5242E-01   max: -.7327E+00   C at   29  2   RLX: 0.682
       a = -2.500      CL = -0.0320
      Cm = -0.0590     CD =  0.00801   =>   CDf =  0.00580    CDp =  0.00221

 Side 1  free  transition at x/c =  0.9193   72
 Side 2  free  transition at x/c =  0.1531   34

   6   rms: 0.7155E-01   max: -.1148E+01   C at   34  2   RLX: 0.436
       a = -2.500      CL = -0.0318
      Cm = -0.0592     CD =  0.00764   =>   CDf =  0.00560    CDp =  0.00204

 Side 1  free  transition at x/c =  0.9188   72
 Side 2  free  transition at x/c =  0.2076   37

   7   rms: 0.1384E+00   max: -.3087E+01   C at   37  2   RLX: 0.162
       a = -2.500      CL = -0.0320
      Cm = -0.0592     CD =  0.00740   =>   CDf =  0.00537    CDp =  0.00203

 Side 1  free  transition at x/c =  0.9186   72
 Side 2  free  transition at x/c =  0.2197   37

   8   rms: 0.2215E+00   max: -.5031E+01   C at   37  2   RLX: 0.099
       a = -2.500      CL = -0.0318
      Cm = -0.0593     CD =  0.00736   =>   CDf =  0.00531    CDp =  0.00205

 Side 1  free  transition at x/c =  0.9185   72
 Side 2  free  transition at x/c =  0.2219   38

   9   rms: 0.7790E-01   max: -.1683E+01   C at   38  2   RLX: 0.297
       a = -2.500      CL = -0.0310
      Cm = -0.0593     CD =  0.00731   =>   CDf =  0.00531    CDp =  0.00200

 Side 1  free  transition at x/c =  0.9184   72
 Side 2  free  transition at x/c =  0.2423   39

  10   rms: 0.6981E-01   max: -.1580E+01   C at   39  2   RLX: 0.316
       a = -2.500      CL = -0.0307
      Cm = -0.0593     CD =  0.00722   =>   CDf =  0.00523    CDp =  0.00199

 Side 1  free  transition at x/c =  0.9182   72
 Side 2  free  transition at x/c =  0.2544   39

  11   rms: 0.5491E-01   max: -.1228E+01   C at   39  2   RLX: 0.407
       a = -2.500      CL = -0.0303
      Cm = -0.0593     CD =  0.00718   =>   CDf =  0.00518    CDp =  0.00200

 Side 1  free  transition at x/c =  0.9181   72
 Side 2  free  transition at x/c =  0.2641   40

  12   rms: 0.1933E-01   max: -.4369E+00   C at   40  2
       a = -2.500      CL = -0.0299
      Cm = -0.0593     CD =  0.00713   =>   CDf =  0.00515    CDp =  0.00198

 Side 1  free  transition at x/c =  0.9179   71
 Side 2  free  transition at x/c =  0.2717   40

  13   rms: 0.2709E-02   max: -.6084E-01   C at   40  2
       a = -2.500      CL = -0.0298
      Cm = -0.0593     CD =  0.00714   =>   CDf =  0.00512    CDp =  0.00202

 Side 1  free  transition at x/c =  0.9179   71
 Side 2  free  transition at x/c =  0.2726   40

  14   rms: 0.1709E-02   max: -.3740E-01   C at   40  2
       a = -2.500      CL = -0.0298
      Cm = -0.0593     CD =  0.00714   =>   CDf =  0.00512    CDp =  0.00202

 Side 1  free  transition at x/c =  0.9179   71
 Side 2  free  transition at x/c =  0.2726   40

  15   rms: 0.1707E-02   max: -.3735E-01   C at   40  2
       a = -2.500      CL = -0.0298
      Cm = -0.0593     CD =  0.00714   =>   CDf =  0.00512    CDp =  0.00202

 Side 1  free  transition at x/c =  0.9179   71
 Side 2  free  transition at x/c =  0.2726   40

  16   rms: 0.1707E-02   max: -.3734E-01   C at   40  2
       a = -2.500      CL = -0.0298
      Cm = -0.0593     CD =  0.00714   =>   CDf =  0.00512    CDp =  0.00202

 Side 1  free  transition at x/c =  0.9179   71
 Side 2  free  transition at x/c =  0.2726   40

  17   rms: 0.1705E-02   max: -.3729E-01   C at   40  2
       a = -2.500      CL = -0.0298
      Cm = -0.0593     CD =  0.00714   =>   CDf =  0.00512    CDp =  0.00202

 Side 1  free  transition at x/c =  0.9179   71
 Side 2  free  transition at x/c =  0.2726   40

  18   rms: 0.1702E-02   max: -.3723E-01   C at   40  2
       a = -2.500      CL = -0.0298
      Cm = -0.0593     CD =  0.00714   =>   CDf =  0.00512    CDp =  0.00202

 Side 1  free  transition at x/c =  0.9179   71
 Side 2  free  transition at x/c =  0.2726   40

  19   rms: 0.1707E-02   max: -.3735E-01   C at   40  2
       a = -2.500      CL = -0.0298
      Cm = -0.0593     CD =  0.00714   =>   CDf =  0.00512    CDp =  0.00202

 Side 1  free  transition at x/c =  0.9179   71
 Side 2  free  transition at x/c =  0.2726   40

  20   rms: 0.1708E-02   max: -.3736E-01   C at   40  2
       a = -2.500      CL = -0.0298
      Cm = -0.0593     CD =  0.00714   =>   CDf =  0.00512    CDp =  0.00202

 Side 1  free  transition at x/c =  0.9179   71
 Side 2  free  transition at x/c =  0.2726   40

  21   rms: 0.1707E-02   max: -.3734E-01   C at   40  2
       a = -2.500      CL = -0.0298
      Cm = -0.0593     CD =  0.00714   =>   CDf =  0.00512    CDp =  0.00202

 Side 1  free  transition at x/c =  0.9179   71
 Side 2  free  transition at x/c =  0.2726   40

  22   rms: 0.1709E-02   max: -.3739E-01   C at   40  2
       a = -2.500      CL = -0.0298
      Cm = -0.0593     CD =  0.00714   =>   CDf =  0.00512    CDp =  0.00202

 Side 1  free  transition at x/c =  0.9179   71
 Side 2  free  transition at x/c =  0.2726   40

  23   rms: 0.1706E-02   max: -.3732E-01   C at   40  2
       a = -2.500      CL = -0.0298
      Cm = -0.0593     CD =  0.00714   =>   CDf =  0.00512    CDp =  0.00202

 Side 1  free  transition at x/c =  0.9179   71
 Side 2  free  transition at x/c =  0.2726   40

  24   rms: 0.1709E-02   max: -.3738E-01   C at   40  2
       a = -2.500      CL = -0.0298
      Cm = -0.0593     CD =  0.00714   =>   CDf =  0.00512    CDp =  0.00202

 Side 1  free  transition at x/c =  0.9179   71
 Side 2  free  transition at x/c =  0.2726   40

  25   rms: 0.1707E-02   max: -.3734E-01   C at   40  2
       a = -2.500      CL = -0.0298
      Cm = -0.0593     CD =  0.00714   =>   CDf =  0.00512    CDp =  0.00202

 Side 1  free  transition at x/c =  0.9179   71
 Side 2  free  transition at x/c =  0.2726   40

  26   rms: 0.1705E-02   max: -.3730E-01   C at   40  2
       a = -2.500      CL = -0.0298
      Cm = -0.0593     CD =  0.00714   =>   CDf =  0.00512    CDp =  0.00202

 Side 1  free  transition at x/c =  0.9179   71
 Side 2  free  transition at x/c =  0.2726   40

  27   rms: 0.1705E-02   max: -.3730E-01   C at   40  2
       a = -2.500      CL = -0.0298
      Cm = -0.0593     CD =  0.00714   =>   CDf =  0.00512    CDp =  0.00202

 Side 1  free  transition at x/c =  0.9179   71
 Side 2  free  transition at x/c =  0.2726   40

  28   rms: 0.1706E-02   max: -.3732E-01   C at   40  2
       a = -2.500      CL = -0.0298
      Cm = -0.0593     CD =  0.00714   =>   CDf =  0.00512    CDp =  0.00202

 Side 1  free  transition at x/c =  0.9179   71
 Side 2  free  transition at x/c =  0.2726   40

  29   rms: 0.1707E-02   max: -.3735E-01   C at   40  2
       a = -2.500      CL = -0.0298
      Cm = -0.0593     CD =  0.00714   =>   CDf =  0.00512    CDp =  0.00202

 Side 1  free  transition at x/c =  0.9179   71
 Side 2  free  transition at x/c =  0.2726   40

  30   rms: 0.1704E-02   max: -.3728E-01   C at   40  2
       a = -2.500      CL = -0.0298
      Cm = -0.0593     CD =  0.00714   =>   CDf =  0.00512    CDp =  0.00202

 Side 1  free  transition at x/c =  0.9179   71
 Side 2  free  transition at x/c =  0.2726   40

  31   rms: 0.1707E-02   max: -.3735E-01   C at   40  2
       a = -2.500      CL = -0.0298
      Cm = -0.0593     CD =  0.00714   =>   CDf =  0.00512    CDp =  0.00202

 Side 1  free  transition at x/c =  0.9179   71
 Side 2  free  transition at x/c =  0.2726   40

  32   rms: 0.1707E-02   max: -.3734E-01   C at   40  2
       a = -2.500      CL = -0.0298
      Cm = -0.0593     CD =  0.00714   =>   CDf =  0.00512    CDp =  0.00202

 Side 1  free  transition at x/c =  0.9179   71
 Side 2  free  transition at x/c =  0.2726   40

  33   rms: 0.1706E-02   max: -.3733E-01   C at   40  2
       a = -2.500      CL = -0.0298
      Cm = -0.0593     CD =  0.00714   =>   CDf =  0.00512    CDp =  0.00202

 Side 1  free  transition at x/c =  0.9179   71
 Side 2  free  transition at x/c =  0.2726   40

  34   rms: 0.1703E-02   max: -.3726E-01   C at   40  2
       a = -2.500      CL = -0.0298
      Cm = -0.0593     CD =  0.00714   =>   CDf =  0.00512    CDp =  0.00202

 Side 1  free  transition at x/c =  0.9179   71
 Side 2  free  transition at x/c =  0.2726   40

  35   rms: 0.1707E-02   max: -.3735E-01   C at   40  2
       a = -2.500      CL = -0.0298
      Cm = -0.0593     CD =  0.00714   =>   CDf =  0.00512    CDp =  0.00202

 Side 1  free  transition at x/c =  0.9179   71
 Side 2  free  transition at x/c =  0.2726   40

  36   rms: 0.1701E-02   max: -.3721E-01   C at   40  2
       a = -2.500      CL = -0.0298
      Cm = -0.0593     CD =  0.00714   =>   CDf =  0.00512    CDp =  0.00202

 Side 1  free  transition at x/c =  0.9179   71
 Side 2  free  transition at x/c =  0.2726   40

  37   rms: 0.1709E-02   max: -.3740E-01   C at   40  2
       a = -2.500      CL = -0.0298
      Cm = -0.0593     CD =  0.00714   =>   CDf =  0.00512    CDp =  0.00202

 Side 1  free  transition at x/c =  0.9179   71
 Side 2  free  transition at x/c =  0.2726   40

  38   rms: 0.1706E-02   max: -.3732E-01   C at   40  2
       a = -2.500      CL = -0.0298
      Cm = -0.0593     CD =  0.00714   =>   CDf =  0.00512    CDp =  0.00202

 Side 1  free  transition at x/c =  0.9179   71
 Side 2  free  transition at x/c =  0.2726   40

  39   rms: 0.1707E-02   max: -.3733E-01   C at   40  2
       a = -2.500      CL = -0.0298
      Cm = -0.0593     CD =  0.00714   =>   CDf =  0.00512    CDp =  0.00202

 Side 1  free  transition at x/c =  0.9179   71
 Side 2  free  transition at x/c =  0.2726   40

  40   rms: 0.1703E-02   max: -.3725E-01   C at   40  2
       a = -2.500      CL = -0.0298
      Cm = -0.0593     CD =  0.00714   =>   CDf =  0.00512    CDp =  0.00202

 Side 1  free  transition at x/c =  0.9179   71
 Side 2  free  transition at x/c =  0.2726   40

  41   rms: 0.1708E-02   max: -.3738E-01   C at   40  2
       a = -2.500      CL = -0.0298
      Cm = -0.0593     CD =  0.00714   =>   CDf =  0.00512    CDp =  0.00202

 Side 1  free  transition at x/c =  0.9179   71
 Side 2  free  transition at x/c =  0.2726   40

  42   rms: 0.1704E-02   max: -.3727E-01   C at   40  2
       a = -2.500      CL = -0.0298
      Cm = -0.0593     CD =  0.00714   =>   CDf =  0.00512    CDp =  0.00202

 Side 1  free  transition at x/c =  0.9179   71
 Side 2  free  transition at x/c =  0.2726   40

  43   rms: 0.1707E-02   max: -.3734E-01   C at   40  2
       a = -2.500      CL = -0.0298
      Cm = -0.0593     CD =  0.00714   =>   CDf =  0.00512    CDp =  0.00202

 Side 1  free  transition at x/c =  0.9179   71
 Side 2  free  transition at x/c =  0.2726   40

  44   rms: 0.1708E-02   max: -.3738E-01   C at   40  2
       a = -2.500      CL = -0.0298
      Cm = -0.0593     CD =  0.00714   =>   CDf =  0.00512    CDp =  0.00202

 Side 1  free  transition at x/c =  0.9179   71
 Side 2  free  transition at x/c =  0.2726   40

  45   rms: 0.1707E-02   max: -.3735E-01   C at   40  2
       a = -2.500      CL = -0.0298
      Cm = -0.0593     CD =  0.00714   =>   CDf =  0.00512    CDp =  0.00202

 Side 1  free  transition at x/c =  0.9179   71
 Side 2  free  transition at x/c =  0.2726   40

  46   rms: 0.1709E-02   max: -.3740E-01   C at   40  2
       a = -2.500      CL = -0.0298
      Cm = -0.0593     CD =  0.00714   =>   CDf =  0.00512    CDp =  0.00202

 Side 1  free  transition at x/c =  0.9179   71
 Side 2  free  transition at x/c =  0.2726   40

  47   rms: 0.1707E-02   max: -.3734E-01   C at   40  2
       a = -2.500      CL = -0.0298
      Cm = -0.0593     CD =  0.00714   =>   CDf =  0.00512    CDp =  0.00202

 Side 1  free  transition at x/c =  0.9179   71
 Side 2  free  transition at x/c =  0.2726   40

  48   rms: 0.1705E-02   max: -.3729E-01   C at   40  2
       a = -2.500      CL = -0.0298
      Cm = -0.0593     CD =  0.00714   =>   CDf =  0.00512    CDp =  0.00202

 Side 1  free  transition at x/c =  0.9179   71
 Side 2  free  transition at x/c =  0.2726   40

  49   rms: 0.1707E-02   max: -.3736E-01   C at   40  2
       a = -2.500      CL = -0.0298
      Cm = -0.0593     CD =  0.00714   =>   CDf =  0.00512    CDp =  0.00202

 Side 1  free  transition at x/c =  0.9179   71
 Side 2  free  transition at x/c =  0.2726   40

  50   rms: 0.1704E-02   max: -.3728E-01   C at   40  2
       a = -2.500      CL = -0.0298
      Cm = -0.0593     CD =  0.00714   =>   CDf =  0.00512    CDp =  0.00202

 Side 1  free  transition at x/c =  0.9179   71
 Side 2  free  transition at x/c =  0.2726   40

  51   rms: 0.1705E-02   max: -.3730E-01   C at   40  2
       a = -2.500      CL = -0.0298
      Cm = -0.0593     CD =  0.00714   =>   CDf =  0.00512    CDp =  0.00202

 Side 1  free  transition at x/c =  0.9179   71
 Side 2  free  transition at x/c =  0.2726   40

  52   rms: 0.1705E-02   max: -.3731E-01   C at   40  2
       a = -2.500      CL = -0.0298
      Cm = -0.0593     CD =  0.00714   =>   CDf =  0.00512    CDp =  0.00202

 Side 1  free  transition at x/c =  0.9179   71
 Side 2  free  transition at x/c =  0.2726   40

  53   rms: 0.1707E-02   max: -.3735E-01   C at   40  2
       a = -2.500      CL = -0.0298
      Cm = -0.0593     CD =  0.00714   =>   CDf =  0.00512    CDp =  0.00202

 Side 1  free  transition at x/c =  0.9179   71
 Side 2  free  transition at x/c =  0.2726   40

  54   rms: 0.1708E-02   max: -.3737E-01   C at   40  2
       a = -2.500      CL = -0.0298
      Cm = -0.0593     CD =  0.00714   =>   CDf =  0.00512    CDp =  0.00202

 Side 1  free  transition at x/c =  0.9179   71
 Side 2  free  transition at x/c =  0.2726   40

  55   rms: 0.1704E-02   max: -.3728E-01   C at   40  2
       a = -2.500      CL = -0.0298
      Cm = -0.0593     CD =  0.00714   =>   CDf =  0.00512    CDp =  0.00202

 Side 1  free  transition at x/c =  0.9179   71
 Side 2  free  transition at x/c =  0.2726   40

  56   rms: 0.1708E-02   max: -.3736E-01   C at   40  2
       a = -2.500      CL = -0.0298
      Cm = -0.0593     CD =  0.00714   =>   CDf =  0.00512    CDp =  0.00202

 Side 1  free  transition at x/c =  0.9179   71
 Side 2  free  transition at x/c =  0.2726   40

  57   rms: 0.1704E-02   max: -.3728E-01   C at   40  2
       a = -2.500      CL = -0.0298
      Cm = -0.0593     CD =  0.00714   =>   CDf =  0.00512    CDp =  0.00202

 Side 1  free  transition at x/c =  0.9179   71
 Side 2  free  transition at x/c =  0.2726   40

  58   rms: 0.1706E-02   max: -.3732E-01   C at   40  2
       a = -2.500      CL = -0.0298
      Cm = -0.0593     CD =  0.00714   =>   CDf =  0.00512    CDp =  0.00202

 Side 1  free  transition at x/c =  0.9179   71
 Side 2  free  transition at x/c =  0.2726   40

  59   rms: 0.1705E-02   max: -.3730E-01   C at   40  2
       a = -2.500      CL = -0.0298
      Cm = -0.0593     CD =  0.00714   =>   CDf =  0.00512    CDp =  0.00202

 Side 1  free  transition at x/c =  0.9179   71
 Side 2  free  transition at x/c =  0.2726   40

  60   rms: 0.1705E-02   max: -.3729E-01   C at   40  2
       a = -2.500      CL = -0.0298
      Cm = -0.0593     CD =  0.00714   =>   CDf =  0.00512    CDp =  0.00202

 Side 1  free  transition at x/c =  0.9179   71
 Side 2  free  transition at x/c =  0.2726   40

  61   rms: 0.1707E-02   max: -.3734E-01   C at   40  2
       a = -2.500      CL = -0.0298
      Cm = -0.0593     CD =  0.00714   =>   CDf =  0.00512    CDp =  0.00202

 Side 1  free  transition at x/c =  0.9179   71
 Side 2  free  transition at x/c =  0.2726   40

  62   rms: 0.1702E-02   max: -.3723E-01   C at   40  2
       a = -2.500      CL = -0.0298
      Cm = -0.0593     CD =  0.00714   =>   CDf =  0.00512    CDp =  0.00202

 Side 1  free  transition at x/c =  0.9179   71
 Side 2  free  transition at x/c =  0.2726   40

  63   rms: 0.1708E-02   max: -.3737E-01   C at   40  2
       a = -2.500      CL = -0.0298
      Cm = -0.0593     CD =  0.00714   =>   CDf =  0.00512    CDp =  0.00202

 Side 1  free  transition at x/c =  0.9179   71
 Side 2  free  transition at x/c =  0.2726   40

  64   rms: 0.1707E-02   max: -.3734E-01   C at   40  2
       a = -2.500      CL = -0.0298
      Cm = -0.0593     CD =  0.00714   =>   CDf =  0.00512    CDp =  0.00202

 Side 1  free  transition at x/c =  0.9179   71
 Side 2  free  transition at x/c =  0.2726   40

  65   rms: 0.1708E-02   max: -.3736E-01   C at   40  2
       a = -2.500      CL = -0.0298
      Cm = -0.0593     CD =  0.00714   =>   CDf =  0.00512    CDp =  0.00202

 Side 1  free  transition at x/c =  0.9179   71
 Side 2  free  transition at x/c =  0.2726   40

  66   rms: 0.1704E-02   max: -.3729E-01   C at   40  2
       a = -2.500      CL = -0.0298
      Cm = -0.0593     CD =  0.00714   =>   CDf =  0.00512    CDp =  0.00202

 Side 1  free  transition at x/c =  0.9179   71
 Side 2  free  transition at x/c =  0.2726   40

  67   rms: 0.1704E-02   max: -.3728E-01   C at   40  2
       a = -2.500      CL = -0.0298
      Cm = -0.0593     CD =  0.00714   =>   CDf =  0.00512    CDp =  0.00202

 Side 1  free  transition at x/c =  0.9179   71
 Side 2  free  transition at x/c =  0.2726   40

  68   rms: 0.1707E-02   max: -.3735E-01   C at   40  2
       a = -2.500      CL = -0.0298
      Cm = -0.0593     CD =  0.00714   =>   CDf =  0.00512    CDp =  0.00202

 Side 1  free  transition at x/c =  0.9179   71
 Side 2  free  transition at x/c =  0.2726   40

  69   rms: 0.1709E-02   max: -.3740E-01   C at   40  2
       a = -2.500      CL = -0.0298
      Cm = -0.0593     CD =  0.00714   =>   CDf =  0.00512    CDp =  0.00202

 Side 1  free  transition at x/c =  0.9179   71
 Side 2  free  transition at x/c =  0.2726   40

  70   rms: 0.1704E-02   max: -.3728E-01   C at   40  2
       a = -2.500      CL = -0.0298
      Cm = -0.0593     CD =  0.00714   =>   CDf =  0.00512    CDp =  0.00202

 Side 1  free  transition at x/c =  0.9179   71
 Side 2  free  transition at x/c =  0.2726   40

  71   rms: 0.1707E-02   max: -.3735E-01   C at   40  2
       a = -2.500      CL = -0.0298
      Cm = -0.0593     CD =  0.00714   =>   CDf =  0.00512    CDp =  0.00202

 Side 1  free  transition at x/c =  0.9179   71
 Side 2  free  transition at x/c =  0.2726   40

  72   rms: 0.1705E-02   max: -.3729E-01   C at   40  2
       a = -2.500      CL = -0.0298
      Cm = -0.0593     CD =  0.00714   =>   CDf =  0.00512    CDp =  0.00202

 Side 1  free  transition at x/c =  0.9179   71
 Side 2  free  transition at x/c =  0.2726   40

  73   rms: 0.1709E-02   max: -.3739E-01   C at   40  2
       a = -2.500      CL = -0.0298
      Cm = -0.0593     CD =  0.00714   =>   CDf =  0.00512    CDp =  0.00202

 Side 1  free  transition at x/c =  0.9179   71
 Side 2  free  transition at x/c =  0.2726   40

  74   rms: 0.1708E-02   max: -.3737E-01   C at   40  2
       a = -2.500      CL = -0.0298
      Cm = -0.0593     CD =  0.00714   =>   CDf =  0.00512    CDp =  0.00202

 Side 1  free  transition at x/c =  0.9179   71
 Side 2  free  transition at x/c =  0.2726   40

  75   rms: 0.1706E-02   max: -.3732E-01   C at   40  2
       a = -2.500      CL = -0.0298
      Cm = -0.0593     CD =  0.00714   =>   CDf =  0.00512    CDp =  0.00202

 Side 1  free  transition at x/c =  0.9179   71
 Side 2  free  transition at x/c =  0.2726   40

  76   rms: 0.1705E-02   max: -.3730E-01   C at   40  2
       a = -2.500      CL = -0.0298
      Cm = -0.0593     CD =  0.00714   =>   CDf =  0.00512    CDp =  0.00202

 Side 1  free  transition at x/c =  0.9179   71
 Side 2  free  transition at x/c =  0.2726   40

  77   rms: 0.1706E-02   max: -.3733E-01   C at   40  2
       a = -2.500      CL = -0.0298
      Cm = -0.0593     CD =  0.00714   =>   CDf =  0.00512    CDp =  0.00202

 Side 1  free  transition at x/c =  0.9179   71
 Side 2  free  transition at x/c =  0.2726   40

  78   rms: 0.1707E-02   max: -.3736E-01   C at   40  2
       a = -2.500      CL = -0.0298
      Cm = -0.0593     CD =  0.00714   =>   CDf =  0.00512    CDp =  0.00202

 Side 1  free  transition at x/c =  0.9179   71
 Side 2  free  transition at x/c =  0.2726   40

  79   rms: 0.1709E-02   max: -.3738E-01   C at   40  2
       a = -2.500      CL = -0.0298
      Cm = -0.0593     CD =  0.00714   =>   CDf =  0.00512    CDp =  0.00202

 Side 1  free  transition at x/c =  0.9179   71
 Side 2  free  transition at x/c =  0.2726   40

  80   rms: 0.1705E-02   max: -.3730E-01   C at   40  2
       a = -2.500      CL = -0.0298
      Cm = -0.0593     CD =  0.00714   =>   CDf =  0.00512    CDp =  0.00202

 Side 1  free  transition at x/c =  0.9179   71
 Side 2  free  transition at x/c =  0.2726   40

  81   rms: 0.1707E-02   max: -.3735E-01   C at   40  2
       a = -2.500      CL = -0.0298
      Cm = -0.0593     CD =  0.00714   =>   CDf =  0.00512    CDp =  0.00202

 Side 1  free  transition at x/c =  0.9179   71
 Side 2  free  transition at x/c =  0.2726   40

  82   rms: 0.1709E-02   max: -.3738E-01   C at   40  2
       a = -2.500      CL = -0.0298
      Cm = -0.0593     CD =  0.00714   =>   CDf =  0.00512    CDp =  0.00202

 Side 1  free  transition at x/c =  0.9179   71
 Side 2  free  transition at x/c =  0.2726   40

  83   rms: 0.1709E-02   max: -.3739E-01   C at   40  2
       a = -2.500      CL = -0.0298
      Cm = -0.0593     CD =  0.00714   =>   CDf =  0.00512    CDp =  0.00202

 Side 1  free  transition at x/c =  0.9179   71
 Side 2  free  transition at x/c =  0.2726   40

  84   rms: 0.1703E-02   max: -.3726E-01   C at   40  2
       a = -2.500      CL = -0.0298
      Cm = -0.0593     CD =  0.00714   =>   CDf =  0.00512    CDp =  0.00202

 Side 1  free  transition at x/c =  0.9179   71
 Side 2  free  transition at x/c =  0.2726   40

  85   rms: 0.1708E-02   max: -.3736E-01   C at   40  2
       a = -2.500      CL = -0.0298
      Cm = -0.0593     CD =  0.00714   =>   CDf =  0.00512    CDp =  0.00202

 Side 1  free  transition at x/c =  0.9179   71
 Side 2  free  transition at x/c =  0.2726   40

  86   rms: 0.1707E-02   max: -.3735E-01   C at   40  2
       a = -2.500      CL = -0.0298
      Cm = -0.0593     CD =  0.00714   =>   CDf =  0.00512    CDp =  0.00202

 Side 1  free  transition at x/c =  0.9179   71
 Side 2  free  transition at x/c =  0.2726   40

  87   rms: 0.1705E-02   max: -.3731E-01   C at   40  2
       a = -2.500      CL = -0.0298
      Cm = -0.0593     CD =  0.00714   =>   CDf =  0.00512    CDp =  0.00202

 Side 1  free  transition at x/c =  0.9179   71
 Side 2  free  transition at x/c =  0.2726   40

  88   rms: 0.1706E-02   max: -.3732E-01   C at   40  2
       a = -2.500      CL = -0.0298
      Cm = -0.0593     CD =  0.00714   =>   CDf =  0.00512    CDp =  0.00202

 Side 1  free  transition at x/c =  0.9179   71
 Side 2  free  transition at x/c =  0.2726   40

  89   rms: 0.1705E-02   max: -.3730E-01   C at   40  2
       a = -2.500      CL = -0.0298
      Cm = -0.0593     CD =  0.00714   =>   CDf =  0.00512    CDp =  0.00202

 Side 1  free  transition at x/c =  0.9179   71
 Side 2  free  transition at x/c =  0.2726   40

  90   rms: 0.1707E-02   max: -.3736E-01   C at   40  2
       a = -2.500      CL = -0.0298
      Cm = -0.0593     CD =  0.00714   =>   CDf =  0.00512    CDp =  0.00202

 Side 1  free  transition at x/c =  0.9179   71
 Side 2  free  transition at x/c =  0.2726   40

  91   rms: 0.1705E-02   max: -.3729E-01   C at   40  2
       a = -2.500      CL = -0.0298
      Cm = -0.0593     CD =  0.00714   =>   CDf =  0.00512    CDp =  0.00202

 Side 1  free  transition at x/c =  0.9179   71
 Side 2  free  transition at x/c =  0.2726   40

  92   rms: 0.1705E-02   max: -.3729E-01   C at   40  2
       a = -2.500      CL = -0.0298
      Cm = -0.0593     CD =  0.00714   =>   CDf =  0.00512    CDp =  0.00202

 Side 1  free  transition at x/c =  0.9179   71
 Side 2  free  transition at x/c =  0.2726   40

  93   rms: 0.1704E-02   max: -.3727E-01   C at   40  2
       a = -2.500      CL = -0.0298
      Cm = -0.0593     CD =  0.00714   =>   CDf =  0.00512    CDp =  0.00202

 Side 1  free  transition at x/c =  0.9179   71
 Side 2  free  transition at x/c =  0.2726   40

  94   rms: 0.1706E-02   max: -.3732E-01   C at   40  2
       a = -2.500      CL = -0.0298
      Cm = -0.0593     CD =  0.00714   =>   CDf =  0.00512    CDp =  0.00202

 Side 1  free  transition at x/c =  0.9179   71
 Side 2  free  transition at x/c =  0.2726   40

  95   rms: 0.1706E-02   max: -.3733E-01   C at   40  2
       a = -2.500      CL = -0.0298
      Cm = -0.0593     CD =  0.00714   =>   CDf =  0.00512    CDp =  0.00202

 Side 1  free  transition at x/c =  0.9179   71
 Side 2  free  transition at x/c =  0.2726   40

  96   rms: 0.1706E-02   max: -.3733E-01   C at   40  2
       a = -2.500      CL = -0.0298
      Cm = -0.0593     CD =  0.00714   =>   CDf =  0.00512    CDp =  0.00202

 Side 1  free  transition at x/c =  0.9179   71
 Side 2  free  transition at x/c =  0.2726   40

  97   rms: 0.1706E-02   max: -.3731E-01   C at   40  2
       a = -2.500      CL = -0.0298
      Cm = -0.0593     CD =  0.00714   =>   CDf =  0.00512    CDp =  0.00202

 Side 1  free  transition at x/c =  0.9179   71
 Side 2  free  transition at x/c =  0.2726   40

  98   rms: 0.1706E-02   max: -.3733E-01   C at   40  2
       a = -2.500      CL = -0.0298
      Cm = -0.0593     CD =  0.00714   =>   CDf =  0.00512    CDp =  0.00202

 Side 1  free  transition at x/c =  0.9179   71
 Side 2  free  transition at x/c =  0.2726   40

  99   rms: 0.1706E-02   max: -.3732E-01   C at   40  2
       a = -2.500      CL = -0.0298
      Cm = -0.0593     CD =  0.00714   =>   CDf =  0.00512    CDp =  0.00202

 Side 1  free  transition at x/c =  0.9179   71
 Side 2  free  transition at x/c =  0.2726   40

 100   rms: 0.1708E-02   max: -.3736E-01   C at   40  2
       a = -2.500      CL = -0.0298
      Cm = -0.0593     CD =  0.00714   =>   CDf =  0.00512    CDp =  0.00202

 Side 1  free  transition at x/c =  0.9179   71
 Side 2  free  transition at x/c =  0.2726   40

 101   rms: 0.1705E-02   max: -.3730E-01   C at   40  2
       a = -2.500      CL = -0.0298
      Cm = -0.0593     CD =  0.00714   =>   CDf =  0.00512    CDp =  0.00202

 Side 1  free  transition at x/c =  0.9179   71
 Side 2  free  transition at x/c =  0.2726   40

 102   rms: 0.1707E-02   max: -.3735E-01   C at   40  2
       a = -2.500      CL = -0.0298
      Cm = -0.0593     CD =  0.00714   =>   CDf =  0.00512    CDp =  0.00202

 Side 1  free  transition at x/c =  0.9179   71
 Side 2  free  transition at x/c =  0.2726   40

 103   rms: 0.1708E-02   max: -.3736E-01   C at   40  2
       a = -2.500      CL = -0.0298
      Cm = -0.0593     CD =  0.00714   =>   CDf =  0.00512    CDp =  0.00202

 Side 1  free  transition at x/c =  0.9179   71
 Side 2  free  transition at x/c =  0.2726   40

 104   rms: 0.1707E-02   max: -.3734E-01   C at   40  2
       a = -2.500      CL = -0.0298
      Cm = -0.0593     CD =  0.00714   =>   CDf =  0.00512    CDp =  0.00202

 Side 1  free  transition at x/c =  0.9179   71
 Side 2  free  transition at x/c =  0.2726   40

 105   rms: 0.1706E-02   max: -.3731E-01   C at   40  2
       a = -2.500      CL = -0.0298
      Cm = -0.0593     CD =  0.00714   =>   CDf =  0.00512    CDp =  0.00202

 Side 1  free  transition at x/c =  0.9179   71
 Side 2  free  transition at x/c =  0.2726   40

 106   rms: 0.1707E-02   max: -.3735E-01   C at   40  2
       a = -2.500      CL = -0.0298
      Cm = -0.0593     CD =  0.00714   =>   CDf =  0.00512    CDp =  0.00202

 Side 1  free  transition at x/c =  0.9179   71
 Side 2  free  transition at x/c =  0.2726   40

 107   rms: 0.1707E-02   max: -.3734E-01   C at   40  2
       a = -2.500      CL = -0.0298
      Cm = -0.0593     CD =  0.00714   =>   CDf =  0.00512    CDp =  0.00202

 Side 1  free  transition at x/c =  0.9179   71
 Side 2  free  transition at x/c =  0.2726   40

 108   rms: 0.1706E-02   max: -.3733E-01   C at   40  2
       a = -2.500      CL = -0.0298
      Cm = -0.0593     CD =  0.00714   =>   CDf =  0.00512    CDp =  0.00202

 Side 1  free  transition at x/c =  0.9179   71
 Side 2  free  transition at x/c =  0.2726   40

 109   rms: 0.1706E-02   max: -.3733E-01   C at   40  2
       a = -2.500      CL = -0.0298
      Cm = -0.0593     CD =  0.00714   =>   CDf =  0.00512    CDp =  0.00202

 Side 1  free  transition at x/c =  0.9179   71
 Side 2  free  transition at x/c =  0.2726   40

 110   rms: 0.1706E-02   max: -.3732E-01   C at   40  2
       a = -2.500      CL = -0.0298
      Cm = -0.0593     CD =  0.00714   =>   CDf =  0.00512    CDp =  0.00202

 Side 1  free  transition at x/c =  0.9179   71
 Side 2  free  transition at x/c =  0.2726   40

 111   rms: 0.1708E-02   max: -.3736E-01   C at   40  2
       a = -2.500      CL = -0.0298
      Cm = -0.0593     CD =  0.00714   =>   CDf =  0.00512    CDp =  0.00202

 Side 1  free  transition at x/c =  0.9179   71
 Side 2  free  transition at x/c =  0.2726   40

 112   rms: 0.1708E-02   max: -.3737E-01   C at   40  2
       a = -2.500      CL = -0.0298
      Cm = -0.0593     CD =  0.00714   =>   CDf =  0.00512    CDp =  0.00202

 Side 1  free  transition at x/c =  0.9179   71
 Side 2  free  transition at x/c =  0.2726   40

 113   rms: 0.1704E-02   max: -.3727E-01   C at   40  2
       a = -2.500      CL = -0.0298
      Cm = -0.0593     CD =  0.00714   =>   CDf =  0.00512    CDp =  0.00202

 Side 1  free  transition at x/c =  0.9179   71
 Side 2  free  transition at x/c =  0.2726   40

 114   rms: 0.1706E-02   max: -.3732E-01   C at   40  2
       a = -2.500      CL = -0.0298
      Cm = -0.0593     CD =  0.00714   =>   CDf =  0.00512    CDp =  0.00202

 Side 1  free  transition at x/c =  0.9179   71
 Side 2  free  transition at x/c =  0.2726   40

 115   rms: 0.1705E-02   max: -.3730E-01   C at   40  2
       a = -2.500      CL = -0.0298
      Cm = -0.0593     CD =  0.00714   =>   CDf =  0.00512    CDp =  0.00202

 Side 1  free  transition at x/c =  0.9179   71
 Side 2  free  transition at x/c =  0.2726   40

 116   rms: 0.1706E-02   max: -.3732E-01   C at   40  2
       a = -2.500      CL = -0.0298
      Cm = -0.0593     CD =  0.00714   =>   CDf =  0.00512    CDp =  0.00202

 Side 1  free  transition at x/c =  0.9179   71
 Side 2  free  transition at x/c =  0.2726   40

 117   rms: 0.1705E-02   max: -.3729E-01   C at   40  2
       a = -2.500      CL = -0.0298
      Cm = -0.0593     CD =  0.00714   =>   CDf =  0.00512    CDp =  0.00202

 Side 1  free  transition at x/c =  0.9179   71
 Side 2  free  transition at x/c =  0.2726   40

 118   rms: 0.1707E-02   max: -.3734E-01   C at   40  2
       a = -2.500      CL = -0.0298
      Cm = -0.0593     CD =  0.00714   =>   CDf =  0.00512    CDp =  0.00202

 Side 1  free  transition at x/c =  0.9179   71
 Side 2  free  transition at x/c =  0.2726   40

 119   rms: 0.1706E-02   max: -.3731E-01   C at   40  2
       a = -2.500      CL = -0.0298
      Cm = -0.0593     CD =  0.00714   =>   CDf =  0.00512    CDp =  0.00202

 Side 1  free  transition at x/c =  0.9179   71
 Side 2  free  transition at x/c =  0.2726   40

 120   rms: 0.1707E-02   max: -.3735E-01   C at   40  2
       a = -2.500      CL = -0.0298
      Cm = -0.0593     CD =  0.00714   =>   CDf =  0.00512    CDp =  0.00202

 Side 1  free  transition at x/c =  0.9179   71
 Side 2  free  transition at x/c =  0.2726   40

 121   rms: 0.1705E-02   max: -.3730E-01   C at   40  2
       a = -2.500      CL = -0.0298
      Cm = -0.0593     CD =  0.00714   =>   CDf =  0.00512    CDp =  0.00202

 Side 1  free  transition at x/c =  0.9179   71
 Side 2  free  transition at x/c =  0.2726   40

 122   rms: 0.1706E-02   max: -.3731E-01   C at   40  2
       a = -2.500      CL = -0.0298
      Cm = -0.0593     CD =  0.00714   =>   CDf =  0.00512    CDp =  0.00202

 Side 1  free  transition at x/c =  0.9179   71
 Side 2  free  transition at x/c =  0.2726   40

 123   rms: 0.1708E-02   max: -.3737E-01   C at   40  2
       a = -2.500      CL = -0.0298
      Cm = -0.0593     CD =  0.00714   =>   CDf =  0.00512    CDp =  0.00202

 Side 1  free  transition at x/c =  0.9179   71
 Side 2  free  transition at x/c =  0.2726   40

 124   rms: 0.1705E-02   max: -.3729E-01   C at   40  2
       a = -2.500      CL = -0.0298
      Cm = -0.0593     CD =  0.00714   =>   CDf =  0.00512    CDp =  0.00202

 Side 1  free  transition at x/c =  0.9179   71
 Side 2  free  transition at x/c =  0.2726   40

 125   rms: 0.1707E-02   max: -.3735E-01   C at   40  2
       a = -2.500      CL = -0.0298
      Cm = -0.0593     CD =  0.00714   =>   CDf =  0.00512    CDp =  0.00202

 Side 1  free  transition at x/c =  0.9179   71
 Side 2  free  transition at x/c =  0.2726   40

 126   rms: 0.1705E-02   max: -.3730E-01   C at   40  2
       a = -2.500      CL = -0.0298
      Cm = -0.0593     CD =  0.00714   =>   CDf =  0.00512    CDp =  0.00202

 Side 1  free  transition at x/c =  0.9179   71
 Side 2  free  transition at x/c =  0.2726   40

 127   rms: 0.1703E-02   max: -.3725E-01   C at   40  2
       a = -2.500      CL = -0.0298
      Cm = -0.0593     CD =  0.00714   =>   CDf =  0.00512    CDp =  0.00202

 Side 1  free  transition at x/c =  0.9179   71
 Side 2  free  transition at x/c =  0.2726   40

 128   rms: 0.1710E-02   max: -.3742E-01   C at   40  2
       a = -2.500      CL = -0.0298
      Cm = -0.0593     CD =  0.00714   =>   CDf =  0.00512    CDp =  0.00202

 Side 1  free  transition at x/c =  0.9179   71
 Side 2  free  transition at x/c =  0.2726   40

 129   rms: 0.1705E-02   max: -.3730E-01   C at   40  2
       a = -2.500      CL = -0.0298
      Cm = -0.0593     CD =  0.00714   =>   CDf =  0.00512    CDp =  0.00202

 Side 1  free  transition at x/c =  0.9179   71
 Side 2  free  transition at x/c =  0.2726   40

 130   rms: 0.1706E-02   max: -.3732E-01   C at   40  2
       a = -2.500      CL = -0.0298
      Cm = -0.0593     CD =  0.00714   =>   CDf =  0.00512    CDp =  0.00202

 Side 1  free  transition at x/c =  0.9179   71
 Side 2  free  transition at x/c =  0.2726   40

 131   rms: 0.1704E-02   max: -.3727E-01   C at   40  2
       a = -2.500      CL = -0.0298
      Cm = -0.0593     CD =  0.00714   =>   CDf =  0.00512    CDp =  0.00202

 Side 1  free  transition at x/c =  0.9179   71
 Side 2  free  transition at x/c =  0.2726   40

 132   rms: 0.1706E-02   max: -.3733E-01   C at   40  2
       a = -2.500      CL = -0.0298
      Cm = -0.0593     CD =  0.00714   =>   CDf =  0.00512    CDp =  0.00202

 Side 1  free  transition at x/c =  0.9179   71
 Side 2  free  transition at x/c =  0.2726   40

 133   rms: 0.1703E-02   max: -.3726E-01   C at   40  2
       a = -2.500      CL = -0.0298
      Cm = -0.0593     CD =  0.00714   =>   CDf =  0.00512    CDp =  0.00202

 Side 1  free  transition at x/c =  0.9179   71
 Side 2  free  transition at x/c =  0.2726   40

 134   rms: 0.1710E-02   max: -.3741E-01   C at   40  2
       a = -2.500      CL = -0.0298
      Cm = -0.0593     CD =  0.00714   =>   CDf =  0.00512    CDp =  0.00202

 Side 1  free  transition at x/c =  0.9179   71
 Side 2  free  transition at x/c =  0.2726   40

 135   rms: 0.1709E-02   max: -.3740E-01   C at   40  2
       a = -2.500      CL = -0.0298
      Cm = -0.0593     CD =  0.00714   =>   CDf =  0.00512    CDp =  0.00202

 Side 1  free  transition at x/c =  0.9179   71
 Side 2  free  transition at x/c =  0.2726   40

 136   rms: 0.1706E-02   max: -.3732E-01   C at   40  2
       a = -2.500      CL = -0.0298
      Cm = -0.0593     CD =  0.00714   =>   CDf =  0.00512    CDp =  0.00202

 Side 1  free  transition at x/c =  0.9179   71
 Side 2  free  transition at x/c =  0.2726   40

 137   rms: 0.1705E-02   max: -.3730E-01   C at   40  2
       a = -2.500      CL = -0.0298
      Cm = -0.0593     CD =  0.00714   =>   CDf =  0.00512    CDp =  0.00202

 Side 1  free  transition at x/c =  0.9179   71
 Side 2  free  transition at x/c =  0.2726   40

 138   rms: 0.1704E-02   max: -.3728E-01   C at   40  2
       a = -2.500      CL = -0.0298
      Cm = -0.0593     CD =  0.00714   =>   CDf =  0.00512    CDp =  0.00202

 Side 1  free  transition at x/c =  0.9179   71
 Side 2  free  transition at x/c =  0.2726   40

 139   rms: 0.1709E-02   max: -.3738E-01   C at   40  2
       a = -2.500      CL = -0.0298
      Cm = -0.0593     CD =  0.00714   =>   CDf =  0.00512    CDp =  0.00202

 Side 1  free  transition at x/c =  0.9179   71
 Side 2  free  transition at x/c =  0.2726   40

 140   rms: 0.1704E-02   max: -.3727E-01   C at   40  2
       a = -2.500      CL = -0.0298
      Cm = -0.0593     CD =  0.00714   =>   CDf =  0.00512    CDp =  0.00202

 Side 1  free  transition at x/c =  0.9179   71
 Side 2  free  transition at x/c =  0.2726   40

 141   rms: 0.1708E-02   max: -.3737E-01   C at   40  2
       a = -2.500      CL = -0.0298
      Cm = -0.0593     CD =  0.00714   =>   CDf =  0.00512    CDp =  0.00202

 Side 1  free  transition at x/c =  0.9179   71
 Side 2  free  transition at x/c =  0.2726   40

 142   rms: 0.1704E-02   max: -.3728E-01   C at   40  2
       a = -2.500      CL = -0.0298
      Cm = -0.0593     CD =  0.00714   =>   CDf =  0.00512    CDp =  0.00202

 Side 1  free  transition at x/c =  0.9179   71
 Side 2  free  transition at x/c =  0.2726   40

 143   rms: 0.1705E-02   max: -.3730E-01   C at   40  2
       a = -2.500      CL = -0.0298
      Cm = -0.0593     CD =  0.00714   =>   CDf =  0.00512    CDp =  0.00202

 Side 1  free  transition at x/c =  0.9179   71
 Side 2  free  transition at x/c =  0.2726   40

 144   rms: 0.1707E-02   max: -.3734E-01   C at   40  2
       a = -2.500      CL = -0.0298
      Cm = -0.0593     CD =  0.00714   =>   CDf =  0.00512    CDp =  0.00202

 Side 1  free  transition at x/c =  0.9179   71
 Side 2  free  transition at x/c =  0.2726   40

 145   rms: 0.1707E-02   max: -.3734E-01   C at   40  2
       a = -2.500      CL = -0.0298
      Cm = -0.0593     CD =  0.00714   =>   CDf =  0.00512    CDp =  0.00202

 Side 1  free  transition at x/c =  0.9179   71
 Side 2  free  transition at x/c =  0.2726   40

 146   rms: 0.1708E-02   max: -.3738E-01   C at   40  2
       a = -2.500      CL = -0.0298
      Cm = -0.0593     CD =  0.00714   =>   CDf =  0.00512    CDp =  0.00202

 Side 1  free  transition at x/c =  0.9179   71
 Side 2  free  transition at x/c =  0.2726   40

 147   rms: 0.1702E-02   max: -.3724E-01   C at   40  2
[...]

 Side 1  free  transition at x/c =  0.0274   33
 Side 2 forced transition at x/c =  1.0000   65

   2   rms: 0.2710E-02   max: 0.1745E-01   D at    3  2
       a = 12.250      CL =  1.3882
      Cm = -0.0208     CD =  0.02881   =>   CDf =  0.00566    CDp =  0.02315

 Side 1  free  transition at x/c =  0.0274   33
 Side 2 forced transition at x/c =  1.0000   65

   3   rms: 0.1175E-03   max: -.1161E-02   D at    4  2
       a = 12.250      CL =  1.3883
      Cm = -0.0208     CD =  0.02881   =>   CDf =  0.00566    CDp =  0.02314

 Side 1  free  transition at x/c =  0.0274   33
 Side 2 forced transition at x/c =  1.0000   65

   4   rms: 0.1154E-05   max: -.1240E-04   D at    4  2
       a = 12.250      CL =  1.3883
      Cm = -0.0208     CD =  0.02881   =>   CDf =  0.00566    CDp =  0.02314
 plradd ia,ip,cpol           36           0  6.96349563E-03

 Point added to stored polar  1
 Point written to save file  rae5213_Re600k.base.pol                         
 Dump file unspecified or not available
 Calculating wake trajectory ...
 Calculating source influence matrix ...

 Solving BL system ...

 Side 1  free  transition at x/c =  0.0274   33
 Side 2 forced transition at x/c =  1.0000   65

   1   rms: 0.3427E-01   max: -.7779E-01   D at    3  2
       a = 12.500      CL =  1.3996
      Cm = -0.0187     CD =  0.02994   =>   CDf =  0.00529    CDp =  0.02465

 Side 1  free  transition at x/c =  0.0272   34
 Side 2 forced transition at x/c =  1.0000   64

   2   rms: 0.2753E-02   max: -.2855E-01   D at    3  1
       a = 12.500      CL =  1.3978
      Cm = -0.0185     CD =  0.02993   =>   CDf =  0.00554    CDp =  0.02438

 Side 1  free  transition at x/c =  0.0272   34
 Side 2 forced transition at x/c =  1.0000   64

   3   rms: 0.4514E-03   max: -.5283E-02   D at    4  1
       a = 12.500      CL =  1.3979
      Cm = -0.0185     CD =  0.02993   =>   CDf =  0.00555    CDp =  0.02438

 Side 1  free  transition at x/c =  0.0272   34
 Side 2 forced transition at x/c =  1.0000   64

   4   rms: 0.8425E-06   max: 0.4493E-05   C at   64  2
       a = 12.500      CL =  1.3979
      Cm = -0.0185     CD =  0.02993   =>   CDf =  0.00555    CDp =  0.02438
 plradd ia,ip,cpol           37           0  6.96349563E-03

 Point added to stored polar  1
 Point written to save file  rae5213_Re600k.base.pol                         
 Dump file unspecified or not available
 Calculating wake trajectory ...
 Calculating source influence matrix ...

 Solving BL system ...

 Side 1  free  transition at x/c =  0.0272   34
 Side 2 forced transition at x/c =  1.0000   64

   1   rms: 0.3377E-01   max: 0.7215E-01   D at   87  1
       a = 12.750      CL =  1.4074
      Cm = -0.0164     CD =  0.03118   =>   CDf =  0.00555    CDp =  0.02563

 Side 1  free  transition at x/c =  0.0269   34
 Side 2 forced transition at x/c =  1.0000   64

   2   rms: 0.1940E-02   max: 0.1275E-01   D at   95  1
       a = 12.750      CL =  1.4058
      Cm = -0.0163     CD =  0.03117   =>   CDf =  0.00543    CDp =  0.02574

 Side 1  free  transition at x/c =  0.0269   34
 Side 2 forced transition at x/c =  1.0000   64

   3   rms: 0.4351E-04   max: 0.4575E-03   D at   94  1
       a = 12.750      CL =  1.4059
      Cm = -0.0163     CD =  0.03117   =>   CDf =  0.00543    CDp =  0.02574
 plradd ia,ip,cpol           38           0  6.96349563E-03

 Point added to stored polar  1
 Point written to save file  rae5213_Re600k.base.pol                         
 Dump file unspecified or not available
 Calculating wake trajectory ...
 Calculating source influence matrix ...

 Solving BL system ...

 Side 1  free  transition at x/c =  0.0269   34
 Side 2 forced transition at x/c =  1.0000   64

   1   rms: 0.3314E-01   max: 0.7514E-01   D at   87  1
       a = 13.000      CL =  1.4141
      Cm = -0.0142     CD =  0.03248   =>   CDf =  0.00543    CDp =  0.02705

 Side 1  free  transition at x/c =  0.0267   34
 Side 2 forced transition at x/c =  1.0000   64

   2   rms: 0.2045E-02   max: 0.1532E-01   D at   93  1
       a = 13.000      CL =  1.4126
      Cm = -0.0141     CD =  0.03247   =>   CDf =  0.00531    CDp =  0.02716

 Side 1  free  transition at x/c =  0.0267   34
 Side 2 forced transition at x/c =  1.0000   64

   3   rms: 0.7186E-04   max: 0.3540E-03   D at   70  2
       a = 13.000      CL =  1.4127
      Cm = -0.0141     CD =  0.03247   =>   CDf =  0.00531    CDp =  0.02715
 plradd ia,ip,cpol           39           0  6.96349563E-03

 Point added to stored polar  1
 Point written to save file  rae5213_Re600k.base.pol                         
 Dump file unspecified or not available
 Calculating wake trajectory ...
 Calculating source influence matrix ...

 Solving BL system ...

 Side 1  free  transition at x/c =  0.0267   34
 Side 2 forced transition at x/c =  1.0000   64

   1   rms: 0.3321E-01   max: 0.7978E-01   D at   86  1
       a = 13.250      CL =  1.4197
      Cm = -0.0120     CD =  0.03391   =>   CDf =  0.00532    CDp =  0.02860

 Side 1  free  transition at x/c =  0.0265   34
 Side 2 forced transition at x/c =  1.0000   64

   2   rms: 0.2281E-02   max: 0.1832E-01   D at   92  1
       a = 13.250      CL =  1.4181
      Cm = -0.0120     CD =  0.03390   =>   CDf =  0.00519    CDp =  0.02871

 Side 1  free  transition at x/c =  0.0265   34
 Side 2 forced transition at x/c =  1.0000   64

   3   rms: 0.5820E-04   max: 0.6078E-03   D at   91  1
       a = 13.250      CL =  1.4181
      Cm = -0.0120     CD =  0.03390   =>   CDf =  0.00520    CDp =  0.02870
 plradd ia,ip,cpol           40           0  6.96349563E-03

 Point added to stored polar  1
 Point written to save file  rae5213_Re600k.base.pol                         
 Dump file unspecified or not available
 Calculating wake trajectory ...
 Calculating source influence matrix ...

 Solving BL system ...

 Side 1  free  transition at x/c =  0.0265   34
 Side 2 forced transition at x/c =  1.0000   64

   1   rms: 0.3299E-01   max: 0.8373E-01   D at   86  1
       a = 13.500      CL =  1.4239
      Cm = -0.0101     CD =  0.03547   =>   CDf =  0.00481    CDp =  0.03066

 Side 1  free  transition at x/c =  0.0263   35
 Side 2 forced transition at x/c =  1.0000   63

   2   rms: 0.2837E-02   max: -.2815E-01   D at    2  1
       a = 13.500      CL =  1.4223
      Cm = -0.0100     CD =  0.03546   =>   CDf =  0.00507    CDp =  0.03039

 Side 1  free  transition at x/c =  0.0263   35
 Side 2 forced transition at x/c =  1.0000   63

   3   rms: 0.4389E-03   max: -.5508E-02   D at    4  1
       a = 13.500      CL =  1.4224
      Cm = -0.0100     CD =  0.03546   =>   CDf =  0.00507    CDp =  0.03038

 Side 1  free  transition at x/c =  0.0263   35
 Side 2 forced transition at x/c =  1.0000   63

   4   rms: 0.6674E-06   max: 0.8823E-05   C at   63  2
       a = 13.500      CL =  1.4224
      Cm = -0.0100     CD =  0.03546   =>   CDf =  0.00507    CDp =  0.03038
 plradd ia,ip,cpol           41           0  6.96349563E-03

 Point added to stored polar  1
 Point written to save file  rae5213_Re600k.base.pol                         
 Dump file unspecified or not available
 Calculating wake trajectory ...
 Calculating source influence matrix ...

 Solving BL system ...

 Side 1  free  transition at x/c =  0.0263   35
 Side 2 forced transition at x/c =  1.0000   63

   1   rms: 0.3298E-01   max: 0.8705E-01   D at   86  1
       a = 13.750      CL =  1.4274
      Cm = -0.0083     CD =  0.03716   =>   CDf =  0.00508    CDp =  0.03208

 Side 1  free  transition at x/c =  0.0261   35
 Side 2 forced transition at x/c =  1.0000   63

   2   rms: 0.2773E-02   max: 0.2414E-01   D at   90  1
       a = 13.750      CL =  1.4254
      Cm = -0.0082     CD =  0.03716   =>   CDf =  0.00496    CDp =  0.03221

 Side 1  free  transition at x/c =  0.0262   35
 Side 2 forced transition at x/c =  1.0000   63

   3   rms: 0.6145E-04   max: 0.9474E-03   D at   89  1
       a = 13.750      CL =  1.4255
      Cm = -0.0083     CD =  0.03716   =>   CDf =  0.00496    CDp =  0.03220
 plradd ia,ip,cpol           42           0  5.41300979E-03

 Point added to stored polar  1
 Point written to save file  rae5213_Re600k.base.pol                         
 Dump file unspecified or not available
 Calculating wake trajectory ...
 Calculating source influence matrix ...

 Solving BL system ...

 Side 1  free  transition at x/c =  0.0262   35
 Side 2 forced transition at x/c =  1.0000   63

   1   rms: 0.3298E-01   max: 0.9191E-01   D at   85  1
       a = 14.000      CL =  1.4291
      Cm = -0.0067     CD =  0.03904   =>   CDf =  0.00496    CDp =  0.03408

 Side 1  free  transition at x/c =  0.0260   35
 Side 2 forced transition at x/c =  1.0000   63

   2   rms: 0.2650E-02   max: 0.1985E-01   D at   88  1
       a = 14.000      CL =  1.4273
      Cm = -0.0067     CD =  0.03904   =>   CDf =  0.00484    CDp =  0.03419

 Side 1  free  transition at x/c =  0.0260   35
 Side 2 forced transition at x/c =  1.0000   63

   3   rms: 0.8386E-04   max: 0.7869E-03   D at   73  2
       a = 14.000      CL =  1.4274
      Cm = -0.0067     CD =  0.03903   =>   CDf =  0.00484    CDp =  0.03419
 plradd ia,ip,cpol           43           0  5.41300979E-03

 Point added to stored polar  1
 Point written to save file  rae5213_Re600k.base.pol                         
 Dump file unspecified or not available
 Calculating wake trajectory ...
 Calculating source influence matrix ...

 Solving BL system ...

 Side 1  free  transition at x/c =  0.0260   35
 Side 2 forced transition at x/c =  1.0000   63

   1   rms: 0.3332E-01   max: 0.9653E-01   D at   84  1
       a = 14.250      CL =  1.4299
      Cm = -0.0054     CD =  0.04116   =>   CDf =  0.00484    CDp =  0.03631

 Side 1  free  transition at x/c =  0.0258   35
 Side 2 forced transition at x/c =  1.0000   63

   2   rms: 0.3078E-02   max: 0.2778E-01   D at   87  1
       a = 14.250      CL =  1.4278
      Cm = -0.0054     CD =  0.04115   =>   CDf =  0.00472    CDp =  0.03643

 Side 1  free  transition at x/c =  0.0258   35
 Side 2 forced transition at x/c =  1.0000   63

   3   rms: 0.8093E-04   max: 0.1406E-02   D at   86  1
       a = 14.250      CL =  1.4278
      Cm = -0.0054     CD =  0.04114   =>   CDf =  0.00472    CDp =  0.03642
 plradd ia,ip,cpol           44           0  5.41300979E-03

 Point added to stored polar  1
 Point written to save file  rae5213_Re600k.base.pol                         
 Dump file unspecified or not available
 Calculating wake trajectory ...
 Calculating source influence matrix ...

 Solving BL system ...

 Side 1  free  transition at x/c =  0.0258   35
 Side 2 forced transition at x/c =  1.0000   63

   1   rms: 0.3351E-01   max: 0.1009E+00   D at   82  1   RLX: 0.967
       a = 14.500      CL =  1.4291
      Cm = -0.0044     CD =  0.04339   =>   CDf =  0.00472    CDp =  0.03867

 Side 1  free  transition at x/c =  0.0257   35
 Side 2 forced transition at x/c =  1.0000   63

   2   rms: 0.3418E-02   max: 0.2680E-01   D at   85  1
       a = 14.500      CL =  1.4271
      Cm = -0.0044     CD =  0.04347   =>   CDf =  0.00461    CDp =  0.03886

 Side 1  free  transition at x/c =  0.0257   35
 Side 2 forced transition at x/c =  1.0000   63

   3   rms: 0.5378E-04   max: 0.9452E-03   D at   85  1
       a = 14.500      CL =  1.4271
      Cm = -0.0044     CD =  0.04345   =>   CDf =  0.00460    CDp =  0.03885
 plradd ia,ip,cpol           45           0  5.41300979E-03

 Point added to stored polar  1
 Point written to save file  rae5213_Re600k.base.pol                         
 Dump file unspecified or not available
 Calculating wake trajectory ...
 Calculating source influence matrix ...

 Solving BL system ...

 Side 1  free  transition at x/c =  0.0257   35
 Side 2 forced transition at x/c =  1.0000   63

   1   rms: 0.3416E-01   max: 0.1066E+00   D at   81  1   RLX: 0.914
       a = 14.750      CL =  1.4272
      Cm = -0.0037     CD =  0.04589   =>   CDf =  0.00461    CDp =  0.04128

 Side 1  free  transition at x/c =  0.0256   35
 Side 2 forced transition at x/c =  1.0000   63

   2   rms: 0.5666E-02   max: 0.4106E-01   D at   84  1
       a = 14.750      CL =  1.4244
      Cm = -0.0037     CD =  0.04617   =>   CDf =  0.00449    CDp =  0.04168

 Side 1  free  transition at x/c =  0.0256   35
 Side 2 forced transition at x/c =  1.0000   63

   3   rms: 0.3600E-03   max: 0.3958E-02   D at   75  2
       a = 14.750      CL =  1.4242
      Cm = -0.0037     CD =  0.04614   =>   CDf =  0.00448    CDp =  0.04166

 Side 1  free  transition at x/c =  0.0256   35
 Side 2 forced transition at x/c =  1.0000   63

   4   rms: 0.2849E-05   max: 0.4308E-04   D at   75  2
       a = 14.750      CL =  1.4242
      Cm = -0.0037     CD =  0.04613   =>   CDf =  0.00447    CDp =  0.04166
 plradd ia,ip,cpol           46           0  5.41300979E-03

 Point added to stored polar  1
 Point written to save file  rae5213_Re600k.base.pol                         
 Dump file unspecified or not available
 Calculating wake trajectory ...
 Calculating source influence matrix ...

 Solving BL system ...

 Side 1  free  transition at x/c =  0.0256   35
 Side 2 forced transition at x/c =  1.0000   63

   1   rms: 0.3462E-01   max: 0.1129E+00   D at   79  1   RLX: 0.862
       a = 15.000      CL =  1.4231
      Cm = -0.0034     CD =  0.04873   =>   CDf =  0.00448    CDp =  0.04426

 Side 1  free  transition at x/c =  0.0255   35
 Side 2 forced transition at x/c =  1.0000   63

   2   rms: 0.7153E-02   max: 0.4522E-01   D at   82  1
       a = 15.000      CL =  1.4201
      Cm = -0.0034     CD =  0.04919   =>   CDf =  0.00437    CDp =  0.04483

 Side 1  free  transition at x/c =  0.0255   35
 Side 2 forced transition at x/c =  1.0000   63

   3   rms: 0.6293E-03   max: 0.6297E-02   D at   81  1
       a = 15.000      CL =  1.4197
      Cm = -0.0034     CD =  0.04915   =>   CDf =  0.00434    CDp =  0.04480

 Side 1  free  transition at x/c =  0.0255   35
 Side 2 forced transition at x/c =  1.0000   63

   4   rms: 0.1116E-04   max: 0.1183E-03   D at   76  2
       a = 15.000      CL =  1.4196
      Cm = -0.0034     CD =  0.04914   =>   CDf =  0.00434    CDp =  0.04480
 plradd ia,ip,cpol           47           0  5.41300979E-03

 Point added to stored polar  1
 Point written to save file  rae5213_Re600k.base.pol                         
 Dump file unspecified or not available
 Calculating wake trajectory ...
 Calculating source influence matrix ...

 Solving BL system ...

 Side 1  free  transition at x/c =  0.0255   35
 Side 2 forced transition at x/c =  1.0000   63

   1   rms: 0.3597E-01   max: 0.1212E+00   D at   77  1   RLX: 0.814
       a = 15.250      CL =  1.4172
      Cm = -0.0034     CD =  0.05197   =>   CDf =  0.00435    CDp =  0.04763

 Side 1  free  transition at x/c =  0.0254   35
 Side 2 forced transition at x/c =  1.0000   63

   2   rms: 0.9602E-02   max: 0.5159E-01   D at   80  1
       a = 15.250      CL =  1.4133
      Cm = -0.0036     CD =  0.05271   =>   CDf =  0.00424    CDp =  0.04847

 Side 1  free  transition at x/c =  0.0254   35
 Side 2 forced transition at x/c =  1.0000   63

   3   rms: 0.9862E-03   max: 0.8470E-02   D at   76  2
       a = 15.250      CL =  1.4127
      Cm = -0.0036     CD =  0.05263   =>   CDf =  0.00421    CDp =  0.04842

 Side 1  free  transition at x/c =  0.0254   35
 Side 2 forced transition at x/c =  1.0000   63

   4   rms: 0.2202E-04   max: 0.2716E-03   D at   76  2
       a = 15.250      CL =  1.4127
      Cm = -0.0036     CD =  0.05262   =>   CDf =  0.00421    CDp =  0.04841
 plradd ia,ip,cpol           48           0  5.41300979E-03

 Point added to stored polar  1
 Point written to save file  rae5213_Re600k.base.pol                         
 Dump file unspecified or not available
 Calculating wake trajectory ...
 Calculating source influence matrix ...

 Solving BL system ...

 Side 1  free  transition at x/c =  0.0254   35
 Side 2 forced transition at x/c =  1.0000   63

   1   rms: 0.3807E-01   max: 0.1359E+00   D at   76  1   RLX: 0.766
       a = 15.500      CL =  1.4082
      Cm = -0.0040     CD =  0.05580   =>   CDf =  0.00380    CDp =  0.05199

 Side 1  free  transition at x/c =  0.0253   36
 Side 2 forced transition at x/c =  1.0000   62

   2   rms: 0.1244E-01   max: 0.6202E-01   D at   79  1
       a = 15.500      CL =  1.4034
      Cm = -0.0043     CD =  0.05682   =>   CDf =  0.00409    CDp =  0.05274

 Side 1  free  transition at x/c =  0.0253   36
 Side 2 forced transition at x/c =  1.0000   62

   3   rms: 0.1505E-02   max: -.8709E-02   D at    4  1
       a = 15.500      CL =  1.4025
      Cm = -0.0043     CD =  0.05671   =>   CDf =  0.00404    CDp =  0.05267

 Side 1  free  transition at x/c =  0.0253   36
 Side 2 forced transition at x/c =  1.0000   62

   4   rms: 0.3464E-04   max: 0.3672E-03   D at   76  2
       a = 15.500      CL =  1.4025
      Cm = -0.0043     CD =  0.05670   =>   CDf =  0.00404    CDp =  0.05266
 plradd ia,ip,cpol           49           0  5.41300979E-03

 Point added to stored polar  1
 Point written to save file  rae5213_Re600k.base.pol                         
 Dump file unspecified or not available
 Calculating wake trajectory ...
 Calculating source influence matrix ...

 Solving BL system ...

 Side 1  free  transition at x/c =  0.0253   36
 Side 2 forced transition at x/c =  1.0000   62

   1   rms: 0.4037E-01   max: 0.1488E+00   D at   75  1   RLX: 0.721
       a = 15.750      CL =  1.3965
      Cm = -0.0052     CD =  0.06023   =>   CDf =  0.00404    CDp =  0.05618

 Side 1  free  transition at x/c =  0.0253   36
 Side 2 forced transition at x/c =  1.0000   62

   2   rms: 0.1545E-01   max: 0.7551E-01   D at   77  1
       a = 15.750      CL =  1.3902
      Cm = -0.0058     CD =  0.06168   =>   CDf =  0.00392    CDp =  0.05776

 Side 1  free  transition at x/c =  0.0253   36
 Side 2 forced transition at x/c =  1.0000   62

   3   rms: 0.2129E-02   max: 0.1612E-01   D at   76  2
       a = 15.750      CL =  1.3889
      Cm = -0.0058     CD =  0.06152   =>   CDf =  0.00387    CDp =  0.05765

 Side 1  free  transition at x/c =  0.0253   36
 Side 2 forced transition at x/c =  1.0000   62

   4   rms: 0.5916E-04   max: 0.7813E-03   D at   76  2
       a = 15.750      CL =  1.3889
      Cm = -0.0058     CD =  0.06149   =>   CDf =  0.00387    CDp =  0.05762
 plradd ia,ip,cpol           50           0  5.41300979E-03

 Point added to stored polar  1
 Point written to save file  rae5213_Re600k.base.pol                         
 Dump file unspecified or not available
 Calculating wake trajectory ...
 Calculating source influence matrix ...

 Solving BL system ...

 Side 1  free  transition at x/c =  0.0253   36
 Side 2 forced transition at x/c =  1.0000   62

   1   rms: 0.4158E-01   max: 0.1569E+00   D at   73  1   RLX: 0.679
       a = 16.000      CL =  1.3822
      Cm = -0.0070     CD =  0.06525   =>   CDf =  0.00387    CDp =  0.06138

 Side 1  free  transition at x/c =  0.0252   36
 Side 2 forced transition at x/c =  1.0000   62

   2   rms: 0.1852E-01   max: 0.8979E-01   D at   75  1
       a = 16.000      CL =  1.3745
      Cm = -0.0080     CD =  0.06725   =>   CDf =  0.00376    CDp =  0.06349

 Side 1  free  transition at x/c =  0.0252   36
 Side 2 forced transition at x/c =  1.0000   62

   3   rms: 0.2646E-02   max: 0.2275E-01   D at   74  1
       a = 16.000      CL =  1.3729
      Cm = -0.0080     CD =  0.06702   =>   CDf =  0.00370    CDp =  0.06332

 Side 1  free  transition at x/c =  0.0252   36
 Side 2 forced transition at x/c =  1.0000   62

   4   rms: 0.8531E-04   max: 0.7952E-03   D at   77  2
       a = 16.000      CL =  1.3730
      Cm = -0.0080     CD =  0.06697   =>   CDf =  0.00370    CDp =  0.06327
 plradd ia,ip,cpol           51           0  4.07438027E-03

 Point added to stored polar  1
 Point written to save file  rae5213_Re600k.base.pol                         
 Dump file unspecified or not available

.OPERva   c>  
 Polar accumulation disabled

.OPERv   c>  
 XFOIL   c>  
 XFOIL   c>  