
 ===================================================
  XFOIL Version 6.99
  Copyright (C) 2000   Mark Drela, Harold Youngren

  This software comes with ABSOLUTELY NO WARRANTY,
    subject to the GNU General Public License.

  Caveat computor
 ===================================================

 File  xfoil.def  not found

   QUIT    Exit program

  .OPER    Direct operating point(s)
  .MDES    Complex mapping design routine
  .QDES    Surface speed design routine
  .GDES    Geometry design routine

   SAVE f  Write airfoil to labeled coordinate file
   PSAV f  Write airfoil to plain coordinate file
   ISAV f  Write airfoil to ISES coordinate file
   MSAV f  Write airfoil to MSES coordinate file
   REVE    Reverse written-airfoil node ordering

   LOAD f  Read buffer airfoil from coordinate file
   NACA i  Set NACA 4,5-digit airfoil and buffer airfoil
   INTE    Set buffer airfoil by interpolating two airfoils
   NORM    Buffer airfoil normalization toggle
   XYCM rr Change CM reference location, currently  0.25000 0.00000

   BEND    Display structural properties of current airfoil

   PCOP    Set current-airfoil panel nodes directly from buffer airfoil points
   PANE    Set current-airfoil panel nodes ( 160 ) based on curvature
  .PPAR    Show/change paneling

  .PLOP    Plotting options

   WDEF f  Write  current-settings file
   RDEF f  Reread current-settings file
   NAME s  Specify new airfoil name
   NINC    Increment name version number

   Z       Zoom    | (available in all menus)
   U       Unzoom  | 

 XFOIL   c>  
 Labeled airfoil file.  Name:   RAE(NPL) 5212 AIRFOIL                          

 Number of input coordinate points:  83
 Counterclockwise ordering
 Max thickness =     0.119460  at x =   0.355
 Max camber    =     0.018277  at x =   0.691

  LE  x,y  =  -0.00000   0.00017  |   Chord =   1.00000
  TE  x,y  =   1.00000   0.00000  |

 Current airfoil nodes set from buffer airfoil nodes (  83 )

 XFOIL   c>  
 XFOIL   c>  
 Sharp trailing edge

 Paneling parameters used...
   Number of panel nodes       160
   Panel bunching parameter    1.000
   TE/LE panel density ratio   0.150
   Refined-area/LE panel density ratio    0.200
   Top    side refined area x/c limits  1.000 1.000
   Bottom side refined area x/c limits  1.000 1.000

 XFOIL   c>  
.OPERi   c>  
 Xtr/c     =  1.0000    top    side
 Xtr/c     =  1.0000    bottom side
 Ncrit     =    9.00   ( 0.070 % turb. level )
 Vacc      =  0.0100

 Klag  =  5.6000     Uxwt  =    1.00
 A     =  6.7000     B     =  0.7500       KCt = 0.01485
 CtiniK=  1.8000     CtiniX=  3.3000

..VPAR   c>  
..VPAR   c>  
.OPERi   c>  
 M  =    0.0000
 Re =    400000

.OPERv   c>  
.OPERv   c>  
.OPERv   c>  
 Polar  1 newly created for accumulation
 Airfoil archived with polar: RAE(NPL) 5212 AIRFOIL                           

Enter  polar save filename  OR  <return> for no file   s>  
 New polar save file available

Enter  polar dump filename  OR  <return> for no file   s>  
 Polar dump file will NOT be written

 Polar accumulation enabled

.OPERva   c>   Calculating unit vorticity distributions ...
 Calculating wake trajectory ...
 Calculating source influence matrix ...

 Solving BL system ...

 Initializing BL ...
    side            1  ...
 MRCHUE: Inverse mode at  60     Hk =   4.115
 MRCHUE: Inverse mode at  61     Hk =   4.644
 MRCHUE: Inverse mode at  62     Hk =   5.166
 MRCHUE: Inverse mode at  63     Hk =   5.684
 MRCHUE: Inverse mode at  64     Hk =   6.195
 MRCHUE: Inverse mode at  65     Hk =   6.699
 MRCHUE: Inverse mode at  66     Hk =   7.197
 MRCHUE: Inverse mode at  67     Hk =   7.690
 MRCHUE: Inverse mode at  68     Hk =   8.169
 MRCHUE: Inverse mode at  69     Hk =   8.627
 MRCHUE: Inverse mode at  70     Hk =   8.920
 MRCHUE: Inverse mode at  71     Hk =   6.775
 MRCHUE: Inverse mode at  72     Hk =   5.500
 MRCHUE: Inverse mode at  73     Hk =   4.619
 MRCHUE: Inverse mode at  74     Hk =   3.973
 MRCHUE: Inverse mode at  75     Hk =   3.492
 MRCHUE: Inverse mode at  76     Hk =   3.246
    side            2  ...
 MRCHUE: Inverse mode at  18     Hk =   3.926
 MRCHUE: Inverse mode at  19     Hk =   4.720
 MRCHUE: Inverse mode at  20     Hk =   5.528
 MRCHUE: Inverse mode at  21     Hk =   6.375
 MRCHUE: Inverse mode at  22     Hk =   7.285
 MRCHUE: Inverse mode at  23     Hk =   8.291
 MRCHUE: Inverse mode at  24     Hk =   9.417
 MRCHUE: Inverse mode at  25     Hk =   7.579
 MRCHUE: Inverse mode at  26     Hk =   2.720
 MRCHUE: Inverse mode at  86     Hk =   2.500

 Side 1  free  transition at x/c =  0.9297   70
 Side 2  free  transition at x/c =  0.0544   25

   1   rms: 0.1059E+00   max: -.6747E+00   D at   86  2   RLX: 0.741
       a = -4.000      CL = -0.1998
      Cm = -0.0645     CD =  0.01198   =>   CDf =  0.00654    CDp =  0.00544

 Side 1  free  transition at x/c =  0.9376   71
 Side 2  free  transition at x/c =  0.0597   26

   2   rms: 0.6459E-01   max: -.4456E+00   D at   86  2
       a = -4.000      CL = -0.2001
      Cm = -0.0630     CD =  0.01146   =>   CDf =  0.00668    CDp =  0.00478

 Side 1  free  transition at x/c =  0.9347   71
 Side 2  free  transition at x/c =  0.0682   26

   3   rms: 0.2049E-01   max: 0.1588E+00   C at   26  2
       a = -4.000      CL = -0.1805
      Cm = -0.0673     CD =  0.01167   =>   CDf =  0.00665    CDp =  0.00502

 Side 1  free  transition at x/c =  0.9366   71
 Side 2  free  transition at x/c =  0.0705   27

   4   rms: 0.1202E-01   max: -.1185E+00   D at   26  2
       a = -4.000      CL = -0.1794
      Cm = -0.0676     CD =  0.01156   =>   CDf =  0.00663    CDp =  0.00493

 Side 1  free  transition at x/c =  0.9369   71
 Side 2  free  transition at x/c =  0.0731   27

   5   rms: 0.2764E-02   max: 0.3464E-01   C at   27  2
       a = -4.000      CL = -0.1793
      Cm = -0.0676     CD =  0.01158   =>   CDf =  0.00660    CDp =  0.00498

 Side 1  free  transition at x/c =  0.9369   71
 Side 2  free  transition at x/c =  0.0724   27

   6   rms: 0.3062E-04   max: -.4186E-03   D at   28  2
       a = -4.000      CL = -0.1793
      Cm = -0.0676     CD =  0.01158   =>   CDf =  0.00660    CDp =  0.00498
 plradd ia,ip,cpol            1           0  4.11724625E-03

 Point added to stored polar  1
 Point written to save file  rae5212_Re400k.base.pol                         
 Dump file unspecified or not available
 Calculating wake trajectory ...
 Calculating source influence matrix ...

 Solving BL system ...

 Side 1  free  transition at x/c =  0.9369   71
 Side 2  free  transition at x/c =  0.0724   27

   1   rms: 0.1754E+00   max: 0.1475E+01   D at   27  2   RLX: 0.419
       a = -3.500      CL = -0.1522
      Cm = -0.0688     CD =  0.01097   =>   CDf =  0.00660    CDp =  0.00436

 Side 1  free  transition at x/c =  0.9342   71
 Side 2  free  transition at x/c =  0.0948   29

   2   rms: 0.1633E+00   max: -.1543E+01   C at   29  2   RLX: 0.324
       a = -3.500      CL = -0.1395
      Cm = -0.0691     CD =  0.01074   =>   CDf =  0.00651    CDp =  0.00422

 Side 1  free  transition at x/c =  0.9332   72
 Side 2  free  transition at x/c =  0.1334   30

   3   rms: 0.2759E+00   max: -.6133E+01   C at   30  2   RLX: 0.082
       a = -3.500      CL = -0.1385
      Cm = -0.0694     CD =  0.01064   =>   CDf =  0.00631    CDp =  0.00433

 Side 1  free  transition at x/c =  0.9331   72
 Side 2  free  transition at x/c =  0.1365   30

   4   rms: 0.8443E-01   max: -.1374E+01   C at   30  2   RLX: 0.364
       a = -3.500      CL = -0.1283
      Cm = -0.0697     CD =  0.01054   =>   CDf =  0.00632    CDp =  0.00422

 Side 1  free  transition at x/c =  0.9326   72
 Side 2  free  transition at x/c =  0.1957   34

   5   rms: 0.4068E+00   max: -.8851E+01   C at   34  2   RLX: 0.056
       a = -3.500      CL = -0.1279
      Cm = -0.0697     CD =  0.01013   =>   CDf =  0.00603    CDp =  0.00410

 Side 1  free  transition at x/c =  0.9325   72
 Side 2  free  transition at x/c =  0.2020   35

   6   rms: 0.3180E+00   max: -.6749E+01   C at   35  2   RLX: 0.074
       a = -3.500      CL = -0.1268
      Cm = -0.0698     CD =  0.01005   =>   CDf =  0.00600    CDp =  0.00405

 Side 1  free  transition at x/c =  0.9324   72
 Side 2  free  transition at x/c =  0.2176   35

   7   rms: 0.5893E+00   max: -.1215E+02   C at   35  2   RLX: 0.041
       a = -3.500      CL = -0.1266
      Cm = -0.0698     CD =  0.00998   =>   CDf =  0.00592    CDp =  0.00405

 Side 1  free  transition at x/c =  0.9323   72
 Side 2  free  transition at x/c =  0.2258   36

   8   rms: 0.4793E+00   max: -.1027E+02   C at   36  2   RLX: 0.049
       a = -3.500      CL = -0.1261
      Cm = -0.0698     CD =  0.00991   =>   CDf =  0.00589    CDp =  0.00402

 Side 1  free  transition at x/c =  0.9323   72
 Side 2  free  transition at x/c =  0.2453   37

   9   rms: 0.6577E+00   max: -.1375E+02   C at   37  2   RLX: 0.036
       a = -3.500      CL = -0.1262
      Cm = -0.0698     CD =  0.00980   =>   CDf =  0.00582    CDp =  0.00399

 Side 1  free  transition at x/c =  0.9322   72
 Side 2  free  transition at x/c =  0.2466   37

  10   rms: 0.3313E+00   max: -.6889E+01   C at   37  2   RLX: 0.073
       a = -3.500      CL = -0.1255
      Cm = -0.0699     CD =  0.00979   =>   CDf =  0.00581    CDp =  0.00398

 Side 1  free  transition at x/c =  0.9321   72
 Side 2  free  transition at x/c =  0.2646   38

  11   rms: 0.3087E+00   max: -.6293E+01   C at   38  2   RLX: 0.079
       a = -3.500      CL = -0.1252
      Cm = -0.0699     CD =  0.00969   =>   CDf =  0.00574    CDp =  0.00394

 Side 1  free  transition at x/c =  0.9320   72
 Side 2  free  transition at x/c =  0.2841   40

  12   rms: 0.2529E+00   max: -.5269E+01   C at   40  2   RLX: 0.095
       a = -3.500      CL = -0.1250
      Cm = -0.0699     CD =  0.00954   =>   CDf =  0.00566    CDp =  0.00388

 Side 1  free  transition at x/c =  0.9320   72
 Side 2  free  transition at x/c =  0.2990   41

  13   rms: 0.2337E+00   max: -.4816E+01   C at   41  2   RLX: 0.104
       a = -3.500      CL = -0.1245
      Cm = -0.0700     CD =  0.00945   =>   CDf =  0.00561    CDp =  0.00384

 Side 1  free  transition at x/c =  0.9319   72
 Side 2  free  transition at x/c =  0.3124   41

  14   rms: 0.2253E+00   max: -.4524E+01   C at   41  2   RLX: 0.111
       a = -3.500      CL = -0.1239
      Cm = -0.0700     CD =  0.00939   =>   CDf =  0.00556    CDp =  0.00384

 Side 1  free  transition at x/c =  0.9318   72
 Side 2  free  transition at x/c =  0.3270   42

  15   rms: 0.1806E+00   max: -.3623E+01   C at   42  2   RLX: 0.138
       a = -3.500      CL = -0.1234
      Cm = -0.0701     CD =  0.00930   =>   CDf =  0.00550    CDp =  0.00381

 Side 1  free  transition at x/c =  0.9317   72
 Side 2  free  transition at x/c =  0.3430   43

  16   rms: 0.1409E+00   max: -.2814E+01   C at   43  2   RLX: 0.178
       a = -3.500      CL = -0.1229
      Cm = -0.0701     CD =  0.00921   =>   CDf =  0.00543    CDp =  0.00378

 Side 1  free  transition at x/c =  0.9316   72
 Side 2  free  transition at x/c =  0.3598   44

  17   rms: 0.9720E-01   max: -.1926E+01   C at   44  2   RLX: 0.260
       a = -3.500      CL = -0.1223
      Cm = -0.0701     CD =  0.00912   =>   CDf =  0.00537    CDp =  0.00375

 Side 1  free  transition at x/c =  0.9315   72
 Side 2  free  transition at x/c =  0.3780   45

  18   rms: 0.5396E-01   max: -.1057E+01   C at   45  2   RLX: 0.473
       a = -3.500      CL = -0.1212
      Cm = -0.0702     CD =  0.00902   =>   CDf =  0.00530    CDp =  0.00372

 Side 1  free  transition at x/c =  0.9314   72
 Side 2  free  transition at x/c =  0.4010   47

  19   rms: 0.1803E-01   max: -.3479E+00   C at   47  2
       a = -3.500      CL = -0.1202
      Cm = -0.0703     CD =  0.00890   =>   CDf =  0.00520    CDp =  0.00370

 Side 1  free  transition at x/c =  0.9312   72
 Side 2  free  transition at x/c =  0.4111   48

  20   rms: 0.3146E-02   max: -.6250E-01   C at   48  2
       a = -3.500      CL = -0.1201
      Cm = -0.0703     CD =  0.00891   =>   CDf =  0.00517    CDp =  0.00375

 Side 1  free  transition at x/c =  0.9312   72
 Side 2  free  transition at x/c =  0.4129   48

  21   rms: 0.3438E-04   max: -.6696E-03   C at   48  2
       a = -3.500      CL = -0.1201
      Cm = -0.0703     CD =  0.00891   =>   CDf =  0.00516    CDp =  0.00376
 plradd ia,ip,cpol            2           0  5.87032735E-03

 Point added to stored polar  1
 Point written to save file  rae5212_Re400k.base.pol                         
 Dump file unspecified or not available
 Calculating wake trajectory ...
 Calculating source influence matrix ...

 Solving BL system ...

 Side 1  free  transition at x/c =  0.9312   72
 Side 2  free  transition at x/c =  0.4129   48

   1   rms: 0.6559E+00   max: -.1283E+02   C at   48  2   RLX: 0.039
       a = -3.000      CL = -0.1180
      Cm = -0.0703     CD =  0.00881   =>   CDf =  0.00516    CDp =  0.00365

 Side 1  free  transition at x/c =  0.9310   72
 Side 2  free  transition at x/c =  0.4269   49

   2   rms: 0.5200E+00   max: -.9825E+01   C at   49  2   RLX: 0.051
       a = -3.000      CL = -0.1147
      Cm = -0.0705     CD =  0.00872   =>   CDf =  0.00511    CDp =  0.00362

 Side 1  free  transition at x/c =  0.9308   72
 Side 2  free  transition at x/c =  0.4415   49

   3   rms: 0.3736E+00   max: -.7090E+01   C at   49  2   RLX: 0.071
       a = -3.000      CL = -0.1100
      Cm = -0.0708     CD =  0.00868   =>   CDf =  0.00505    CDp =  0.00363

 Side 1  free  transition at x/c =  0.9305   72
 Side 2  free  transition at x/c =  0.4663   51

   4   rms: 0.3576E+00   max: -.6700E+01   C at   51  2   RLX: 0.075
       a = -3.000      CL = -0.1065
      Cm = -0.0708     CD =  0.00857   =>   CDf =  0.00494    CDp =  0.00364

 Side 1  free  transition at x/c =  0.9303   71
 Side 2  free  transition at x/c =  0.4854   52

   5   rms: 0.2316E+01   max: -.3121E+02   C at   52  2   RLX: 0.016
       a = -3.000      CL = -0.0883
      Cm = -0.0745     CD =  0.00843   =>   CDf =  0.00487    CDp =  0.00356

 MRCHDU: Convergence failed at  75  side 1    Res =  0.1476E+01
 MRCHDU: Convergence failed at  76  side 1    Res =  0.2805E+01
 MRCHDU: Convergence failed at  77  side 1    Res =  0.2781E+01
 Side 1  free  transition at x/c =  0.9414   72
 Side 2  free  transition at x/c =  0.5249   55

   6   rms: 0.1316E+00   max: -.9781E+00   C at   55  2   RLX: 0.511
       a = -3.000      CL = -0.0706
      Cm = -0.0748     CD =  0.00718   =>   CDf =  0.00471    CDp =  0.00247

 Side 1  free  transition at x/c =  0.9320   72
 Side 2  free  transition at x/c =  0.5496   56

   7   rms: 0.7195E-01   max: 0.5272E+00   D at   77  1
       a = -3.000      CL = -0.0377
      Cm = -0.0759     CD =  0.00846   =>   CDf =  0.00479    CDp =  0.00367

 MRCHDU: Convergence failed at  58  side 2    Res =  0.1304E+01
 MRCHDU: Convergence failed at  59  side 2    Res =  0.2548E+01
 MRCHDU: Convergence failed at  60  side 2    Res =  0.4755E+01
 MRCHDU: Convergence failed at  61  side 2    Res =  0.8281E+01
 MRCHDU: Convergence failed at  62  side 2    Res =  0.1119E+02
 MRCHDU: Convergence failed at  63  side 2    Res =  0.1282E+02
 MRCHDU: Convergence failed at  64  side 2    Res =  0.1349E+02
 MRCHDU: Convergence failed at  65  side 2    Res =  0.1371E+02
 MRCHDU: Convergence failed at  66  side 2    Res =  0.1350E+02
 MRCHDU: Convergence failed at  67  side 2    Res =  0.1291E+02
 MRCHDU: Convergence failed at  68  side 2    Res =  0.1223E+02
 MRCHDU: Convergence failed at  69  side 2    Res =  0.1150E+02
 MRCHDU: Convergence failed at  70  side 2    Res =  0.1112E+02
 MRCHDU: Convergence failed at  71  side 2    Res =  0.1082E+02
 MRCHDU: Convergence failed at  72  side 2    Res =  0.1052E+02
 MRCHDU: Convergence failed at  73  side 2    Res =  0.1019E+02
 MRCHDU: Convergence failed at  74  side 2    Res =  0.9883E+01
 MRCHDU: Convergence failed at  75  side 2    Res =  0.9629E+01
 MRCHDU: Convergence failed at  76  side 2    Res =  0.9380E+01
 MRCHDU: Convergence failed at  77  side 2    Res =  0.9119E+01
 MRCHDU: Convergence failed at  78  side 2    Res =  0.8924E+01
 MRCHDU: Convergence failed at  79  side 2    Res =  0.8708E+01
 MRCHDU: Convergence failed at  80  side 2    Res =  0.8373E+01
 MRCHDU: Convergence failed at  81  side 2    Res =  0.7954E+01
 MRCHDU: Convergence failed at  82  side 2    Res =  0.7286E+01
 MRCHDU: Convergence failed at  83  side 2    Res =  0.6403E+01
 MRCHDU: Convergence failed at  84  side 2    Res =  0.6404E+01
 Side 1  free  transition at x/c =  0.9286   72
 Side 2  free  transition at x/c =  0.5840   57

   8   rms: 0.2683E+00   max: 0.1010E+01   T at   83  2   RLX: 0.864
       a = -3.000      CL =  0.0156
      Cm = -0.0791     CD =  0.00662   =>   CDf =  0.00347    CDp =  0.00316

 MRCHDU: Convergence failed at  75  side 1    Res =  0.1550E+02
 MRCHDU: Convergence failed at  76  side 1    Res =  0.5586E+01
 MRCHDU: Convergence failed at  77  side 1    Res =  0.4876E+01
 MRCHDU: Convergence failed at  78  side 1    Res =  0.9073E+01
 Side 1  free  transition at x/c =  0.9640   75
 Side 2  free  transition at x/c =  0.5887   58

   9   rms: 0.2004E+00   max: 0.1773E+01   C at   75  1   RLX: 0.846
       a = -3.000      CL = -0.0286
      Cm = -0.0784     CD =  0.00709   =>   CDf =  0.00485    CDp =  0.00224

 Side 1  free  transition at x/c =  0.9209   72
 Side 2  free  transition at x/c =  0.5766   57
 idif Ue xi dudx           1  0.14813720      2.24316120E-03   66.039482    
 Uenew xinew           2  1.07066263E-03  1.62124634E-05

  10   rms: 0.5424E-01   max: -.5508E+00   D at   74  1   RLX: 0.908
       a = -3.000      CL = -0.0657
      Cm = -0.0698     CD =  0.00870   =>   CDf =  0.00474    CDp =  0.00395

 Side 1  free  transition at x/c =  0.9171   71
 Side 2  free  transition at x/c =  0.5617   57

  11   rms: 0.1983E-01   max: -.2592E+00   D at   73  1
       a = -3.000      CL = -0.0653
      Cm = -0.0698     CD =  0.00844   =>   CDf =  0.00475    CDp =  0.00369

 Side 1  free  transition at x/c =  0.9201   71
 Side 2  free  transition at x/c =  0.5636   57

  12   rms: 0.1537E-02   max: 0.1768E-01   D at   73  1
       a = -3.000      CL = -0.0649
      Cm = -0.0699     CD =  0.00844   =>   CDf =  0.00472    CDp =  0.00371

 Side 1  free  transition at x/c =  0.9202   71
 Side 2  free  transition at x/c =  0.5635   57

  13   rms: 0.2767E-04   max: 0.2777E-03   D at   73  1
       a = -3.000      CL = -0.0649
      Cm = -0.0699     CD =  0.00844   =>   CDf =  0.00473    CDp =  0.00371
 plradd ia,ip,cpol            3           0  5.87032735E-03

 Point added to stored polar  1
 Point written to save file  rae5212_Re400k.base.pol                         
 Dump file unspecified or not available
 Calculating wake trajectory ...
 Calculating source influence matrix ...

 Solving BL system ...

 Side 1  free  transition at x/c =  0.9202   71
 Side 2  free  transition at x/c =  0.5635   57

   1   rms: 0.1874E+00   max: 0.2072E+01   D at    3  2   RLX: 0.244
       a = -2.500      CL = -0.0484
      Cm = -0.0704     CD =  0.00842   =>   CDf =  0.00471    CDp =  0.00371

 Side 1  free  transition at x/c =  0.9185   72
 Side 2  free  transition at x/c =  0.5751   57

   2   rms: 0.8953E-01   max: 0.5016E+00   D at   58  2
       a = -2.500      CL =  0.0036
      Cm = -0.0720     CD =  0.00833   =>   CDf =  0.00473    CDp =  0.00360

 Side 1  free  transition at x/c =  0.9142   71
 Side 2  free  transition at x/c =  0.5962   58

   3   rms: 0.2089E-01   max: -.1854E+00   D at   59  2
       a = -2.500      CL = -0.0032
      Cm = -0.0706     CD =  0.00841   =>   CDf =  0.00482    CDp =  0.00359

 Side 1  free  transition at x/c =  0.9104   71
 Side 2  free  transition at x/c =  0.6028   59

   4   rms: 0.3851E-02   max: -.2577E-01   D at   72  1
       a = -2.500      CL = -0.0008
      Cm = -0.0711     CD =  0.00840   =>   CDf =  0.00478    CDp =  0.00362

 Side 1  free  transition at x/c =  0.9116   71
 Side 2  free  transition at x/c =  0.6027   59

   5   rms: 0.2624E-03   max: -.2068E-02   D at   72  1
       a = -2.500      CL = -0.0007
      Cm = -0.0711     CD =  0.00840   =>   CDf =  0.00478    CDp =  0.00362

 Side 1  free  transition at x/c =  0.9117   71
 Side 2  free  transition at x/c =  0.6027   59

   6   rms: 0.2127E-05   max: -.9794E-05   D at   77  1
       a = -2.500      CL = -0.0007
      Cm = -0.0711     CD =  0.00840   =>   CDf =  0.00478    CDp =  0.00362
 plradd ia,ip,cpol            4           0  7.91740604E-03

 Point added to stored polar  1
 Point written to save file  rae5212_Re400k.base.pol                         
 Dump file unspecified or not available
 Calculating wake trajectory ...
 Calculating source influence matrix ...

 Solving BL system ...

 Side 1  free  transition at x/c =  0.9117   71
 Side 2  free  transition at x/c =  0.6027   59

   1   rms: 0.1001E+00   max: 0.6099E+00   D at   60  2
       a = -2.000      CL =  0.0491
      Cm = -0.0692     CD =  0.00835   =>   CDf =  0.00475    CDp =  0.00360

 Side 1  free  transition at x/c =  0.8965   71
 Side 2  free  transition at x/c =  0.6259   59

   2   rms: 0.3061E-01   max: -.1854E+00   T at   59  2
       a = -2.000      CL =  0.0698
      Cm = -0.0734     CD =  0.00843   =>   CDf =  0.00483    CDp =  0.00360

 Side 1  free  transition at x/c =  0.9073   72
 Side 2  free  transition at x/c =  0.6336   59

   3   rms: 0.2159E-01   max: 0.1620E+00   D at   72  1
       a = -2.000      CL =  0.0665
      Cm = -0.0728     CD =  0.00846   =>   CDf =  0.00479    CDp =  0.00367

 Side 1  free  transition at x/c =  0.9036   72
 Side 2  free  transition at x/c =  0.6345   59

   4   rms: 0.7359E-02   max: -.7034E-01   D at   79  1
       a = -2.000      CL =  0.0625
      Cm = -0.0720     CD =  0.00849   =>   CDf =  0.00480    CDp =  0.00369

 Side 1  free  transition at x/c =  0.9021   72
 Side 2  free  transition at x/c =  0.6336   59

   5   rms: 0.7164E-03   max: -.5680E-02   D at   79  1
       a = -2.000      CL =  0.0620
      Cm = -0.0719     CD =  0.00849   =>   CDf =  0.00480    CDp =  0.00369

 Side 1  free  transition at x/c =  0.9020   72
 Side 2  free  transition at x/c =  0.6335   59

   6   rms: 0.2845E-05   max: -.2224E-04   D at   79  1
       a = -2.000      CL =  0.0620
      Cm = -0.0719     CD =  0.00849   =>   CDf =  0.00480    CDp =  0.00369
 plradd ia,ip,cpol            5           0  1.02596004E-02

 Point added to stored polar  1
 Point written to save file  rae5212_Re400k.base.pol                         
 Dump file unspecified or not available
 Calculating wake trajectory ...
 Calculating source influence matrix ...

 Solving BL system ...

 Side 1  free  transition at x/c =  0.9020   72
 Side 2  free  transition at x/c =  0.6335   59

   1   rms: 0.1194E+00   max: 0.9209E+00   C at   59  2   RLX: 0.583
       a = -1.500      CL =  0.1011
      Cm = -0.0729     CD =  0.00869   =>   CDf =  0.00480    CDp =  0.00389

 MRCHDU: Convergence failed at  61  side 2    Res =  0.4121E+01
 MRCHDU: Convergence failed at  62  side 2    Res =  0.6239E+01
 MRCHDU: Convergence failed at  63  side 2    Res =  0.5175E+01
 MRCHDU: Convergence failed at  64  side 2    Res =  0.9702E+01
 MRCHDU: Convergence failed at  65  side 2    Res =  0.1742E+02
 MRCHDU: Convergence failed at  66  side 2    Res =  0.3018E+02
 MRCHDU: Convergence failed at  67  side 2    Res =  0.5211E+02
 MRCHDU: Convergence failed at  68  side 2    Res =  0.7570E+02
 MRCHDU: Convergence failed at  69  side 2    Res =  0.9727E+02
 MRCHDU: Convergence failed at  70  side 2    Res =  0.1072E+03
 MRCHDU: Convergence failed at  71  side 2    Res =  0.9991E+02
 MRCHDU: Convergence failed at  72  side 2    Res =  0.8560E+02
 MRCHDU: Convergence failed at  73  side 2    Res =  0.7201E+02
 MRCHDU: Convergence failed at  74  side 2    Res =  0.6168E+02
 MRCHDU: Convergence failed at  75  side 2    Res =  0.5082E+02
 MRCHDU: Convergence failed at  76  side 2    Res =  0.4443E+02
 MRCHDU: Convergence failed at  77  side 2    Res =  0.4001E+02
 MRCHDU: Convergence failed at  78  side 2    Res =  0.3627E+02
 MRCHDU: Convergence failed at  79  side 2    Res =  0.3230E+02
 MRCHDU: Convergence failed at  80  side 2    Res =  0.2843E+02
 MRCHDU: Convergence failed at  81  side 2    Res =  0.2461E+02
 MRCHDU: Convergence failed at  82  side 2    Res =  0.2071E+02
 MRCHDU: Convergence failed at  83  side 2    Res =  0.1520E+02
 Side 1  free  transition at x/c =  0.8979   71
 Side 2  free  transition at x/c =  0.6564   61

   2   rms: 0.3043E+00   max: 0.1291E+01   T at   69  2
       a = -1.500      CL =  0.1998
      Cm = -0.0862     CD =  0.00724   =>   CDf =  0.00371    CDp =  0.00353

 Side 1  free  transition at x/c =  0.9117   73
 Side 2  free  transition at x/c =  0.6494   59

   3   rms: 0.1416E+00   max: -.9027E+00   D at   63  2   RLX: 0.554
       a = -1.500      CL =  0.1757
      Cm = -0.0842     CD =  0.00925   =>   CDf =  0.00460    CDp =  0.00465

 MRCHDU: Convergence failed at  61  side 2    Res =  0.4666E+01
 MRCHDU: Convergence failed at  62  side 2    Res =  0.1027E+02
 MRCHDU: Convergence failed at  63  side 2    Res =  0.4035E+02
 MRCHDU: Convergence failed at  64  side 2    Res =  0.8786E+01
 MRCHDU: Convergence failed at  65  side 2    Res =  0.8419E+01
 MRCHDU: Convergence failed at  66  side 2    Res =  0.9609E+01
 MRCHDU: Convergence failed at  67  side 2    Res =  0.1091E+02
 MRCHDU: Convergence failed at  68  side 2    Res =  0.1211E+02
 MRCHDU: Convergence failed at  69  side 2    Res =  0.1315E+02
 MRCHDU: Convergence failed at  70  side 2    Res =  0.1423E+02
 MRCHDU: Convergence failed at  71  side 2    Res =  0.1544E+02
 MRCHDU: Convergence failed at  72  side 2    Res =  0.1680E+02
 MRCHDU: Convergence failed at  73  side 2    Res =  0.1826E+02
 MRCHDU: Convergence failed at  74  side 2    Res =  0.2002E+02
 MRCHDU: Convergence failed at  75  side 2    Res =  0.2229E+02
 MRCHDU: Convergence failed at  76  side 2    Res =  0.2476E+02
 MRCHDU: Convergence failed at  77  side 2    Res =  0.2826E+02
 MRCHDU: Convergence failed at  78  side 2    Res =  0.3444E+02
 MRCHDU: Convergence failed at  79  side 2    Res =  0.4832E+02
 MRCHDU: Convergence failed at  80  side 2    Res =  0.8759E+02
 MRCHDU: Convergence failed at  81  side 2    Res =  0.2449E+03
 MRCHDU: Convergence failed at  82  side 2    Res =  0.2681E+02
 Side 1  free  transition at x/c =  0.9038   73
 Side 2  free  transition at x/c =  0.6665   60

   4   rms: 0.3391E+00   max: 0.2279E+01   T at   60  2   RLX: 0.334
       a = -1.500      CL =  0.1221
      Cm = -0.0433     CD =  0.00618   =>   CDf =  0.00373    CDp =  0.00245

 MRCHDU: Convergence failed at  69  side 2    Res =  0.1621E+00
 MRCHDU: Convergence failed at  70  side 2    Res =  0.1315E+00
 MRCHDU: Convergence failed at  71  side 2    Res =  0.6610E-01
 Side 1  free  transition at x/c =  0.9076   73
 Side 2  free  transition at x/c =  0.6457   59

   5   rms: 0.2429E+00   max: -.1173E+01   T at   59  2   RLX: 0.426
       a = -1.500      CL =  0.1377
      Cm = -0.0723     CD =  0.01379   =>   CDf =  0.00396    CDp =  0.00983

 MRCHDU: Convergence failed at  71  side 2    Res =  0.9296E-01
 Side 1  free  transition at x/c =  0.8968   72
 Side 2  free  transition at x/c =  0.6631   60
 idif Ue xi dudx           1  0.15875824      2.14040279E-03   74.172134    
 Uenew xinew           2  1.11497715E-02  1.50322914E-04

   6   rms: 0.3245E+00   max: -.1426E+01   D at   71  2   RLX: 0.351
       a = -1.500      CL =  0.0744
      Cm = -0.0627     CD =  0.01058   =>   CDf =  0.00400    CDp =  0.00657

 Side 1  free  transition at x/c =  0.8810   70
 Side 2  free  transition at x/c =  0.6650   61

   7   rms: 0.5501E+00   max: -.2737E+01   D at   80  2   RLX: 0.183
       a = -1.500      CL =  0.0213
      Cm = -0.0533     CD =  0.00968   =>   CDf =  0.00410    CDp =  0.00558

 Side 1  free  transition at x/c =  0.8713   70
 Side 2  free  transition at x/c =  0.6612   61

   8   rms: 0.4543E+00   max: -.2842E+01   D at   80  2   RLX: 0.176
       a = -1.500      CL = -0.0041
      Cm = -0.0481     CD =  0.00889   =>   CDf =  0.00425    CDp =  0.00464

 MRCHDU: Convergence failed at  74  side 2    Res =  0.2700E+00
 Side 1  free  transition at x/c =  0.8694   70
 Side 2  free  transition at x/c =  0.6592   61

   9   rms: 0.1856E+00   max: -.1197E+01   D at   82  2   RLX: 0.418
       a = -1.500      CL =  0.0138
      Cm = -0.0488     CD =  0.00843   =>   CDf =  0.00460    CDp =  0.00383

 Side 1  free  transition at x/c =  0.8730   70
 Side 2  free  transition at x/c =  0.6596   61

  10   rms: 0.1216E+00   max: -.6303E+00   D at   82  2   RLX: 0.793
       a = -1.500      CL =  0.0768
      Cm = -0.0628     CD =  0.00847   =>   CDf =  0.00463    CDp =  0.00384

 Side 1  free  transition at x/c =  0.8821   70
 Side 2  free  transition at x/c =  0.6604   61

  11   rms: 0.6282E-01   max: -.2908E+00   T at   70  1
       a = -1.500      CL =  0.1327
      Cm = -0.0740     CD =  0.00860   =>   CDf =  0.00473    CDp =  0.00387

 Side 1  free  transition at x/c =  0.8995   72
 Side 2  free  transition at x/c =  0.6596   60

  12   rms: 0.6370E-01   max: -.4497E+00   C at   72  1
       a = -1.500      CL =  0.0904
      Cm = -0.0655     CD =  0.00890   =>   CDf =  0.00475    CDp =  0.00415

 Side 1  free  transition at x/c =  0.8779   71
 Side 2  free  transition at x/c =  0.6555   60

  13   rms: 0.4832E-01   max: -.3492E+00   T at   71  1
       a = -1.500      CL =  0.1315
      Cm = -0.0738     CD =  0.00857   =>   CDf =  0.00485    CDp =  0.00372

 Side 1  free  transition at x/c =  0.8988   72
 Side 2  free  transition at x/c =  0.6589   60

  14   rms: 0.3690E-01   max: 0.3572E+00   C at   72  1
       a = -1.500      CL =  0.1349
      Cm = -0.0747     CD =  0.00850   =>   CDf =  0.00470    CDp =  0.00380

 Side 1  free  transition at x/c =  0.8964   72
 Side 2  free  transition at x/c =  0.6606   60

  15   rms: 0.1939E-01   max: -.1182E+00   D at   80  1
       a = -1.500      CL =  0.1201
      Cm = -0.0716     CD =  0.00867   =>   CDf =  0.00471    CDp =  0.00396

 Side 1  free  transition at x/c =  0.8890   72
 Side 2  free  transition at x/c =  0.6593   60

  16   rms: 0.3850E-02   max: -.4203E-01   D at   73  1
       a = -1.500      CL =  0.1193
      Cm = -0.0714     CD =  0.00866   =>   CDf =  0.00475    CDp =  0.00391

 Side 1  free  transition at x/c =  0.8898   72
 Side 2  free  transition at x/c =  0.6594   60

  17   rms: 0.1968E-03   max: -.1793E-02   D at   80  1
       a = -1.500      CL =  0.1192
      Cm = -0.0714     CD =  0.00866   =>   CDf =  0.00474    CDp =  0.00392

 Side 1  free  transition at x/c =  0.8897   72
 Side 2  free  transition at x/c =  0.6594   60

  18   rms: 0.9270E-06   max: -.7727E-05   D at   72  1
       a = -1.500      CL =  0.1192
      Cm = -0.0714     CD =  0.00866   =>   CDf =  0.00475    CDp =  0.00392
 plradd ia,ip,cpol            6           0  1.29296342E-02

 Point added to stored polar  1
 Point written to save file  rae5212_Re400k.base.pol                         
 Dump file unspecified or not available
 Calculating wake trajectory ...
 Calculating source influence matrix ...

 Solving BL system ...

 Side 1  free  transition at x/c =  0.8897   72
 Side 2  free  transition at x/c =  0.6594   60

   1   rms: 0.9355E-01   max: -.4688E+00   T at   60  2
       a = -1.000      CL =  0.1814
      Cm = -0.0721     CD =  0.00873   =>   CDf =  0.00475    CDp =  0.00398

 Side 1  free  transition at x/c =  0.8794   71
 Side 2  free  transition at x/c =  0.6642   60

   2   rms: 0.7054E-01   max: -.5036E+00   D at   60  2   RLX: 0.993
       a = -1.000      CL =  0.1788
      Cm = -0.0719     CD =  0.00902   =>   CDf =  0.00478    CDp =  0.00423

 Side 1  free  transition at x/c =  0.8767   71
 Side 2  free  transition at x/c =  0.6745   61

   3   rms: 0.3619E-01   max: 0.4910E+00   D at   61  2
       a = -1.000      CL =  0.1782
      Cm = -0.0717     CD =  0.00859   =>   CDf =  0.00479    CDp =  0.00380

 Side 1  free  transition at x/c =  0.8772   71
 Side 2  free  transition at x/c =  0.6715   61

   4   rms: 0.4854E-02   max: 0.5006E-01   D at   61  2
       a = -1.000      CL =  0.1782
      Cm = -0.0717     CD =  0.00862   =>   CDf =  0.00481    CDp =  0.00382

 Side 1  free  transition at x/c =  0.8773   71
 Side 2  free  transition at x/c =  0.6706   61

   5   rms: 0.1213E-03   max: -.1705E-02   D at   63  2
       a = -1.000      CL =  0.1782
      Cm = -0.0717     CD =  0.00862   =>   CDf =  0.00481    CDp =  0.00381

 Side 1  free  transition at x/c =  0.8773   71
 Side 2  free  transition at x/c =  0.6706   61

   6   rms: 0.1179E-05   max: -.7361E-05   T at   71  1
       a = -1.000      CL =  0.1782
      Cm = -0.0717     CD =  0.00862   =>   CDf =  0.00482    CDp =  0.00381
 plradd ia,ip,cpol            7           0  4.59910147E-02

 Point added to stored polar  1
 Point written to save file  rae5212_Re400k.base.pol                         
 Dump file unspecified or not available
 Calculating wake trajectory ...
 Calculating source influence matrix ...

 Solving BL system ...

 Side 1  free  transition at x/c =  0.8773   71
 Side 2  free  transition at x/c =  0.6706   61

   1   rms: 0.8275E-01   max: -.2601E+00   T at   61  2
       a = -0.500      CL =  0.2355
      Cm = -0.0716     CD =  0.00850   =>   CDf =  0.00478    CDp =  0.00372

 Side 1  free  transition at x/c =  0.8591   71
 Side 2  free  transition at x/c =  0.6768   60

   2   rms: 0.2516E-01   max: -.2032E+00   D at   71  1
       a = -0.500      CL =  0.2378
      Cm = -0.0720     CD =  0.00851   =>   CDf =  0.00489    CDp =  0.00362

 Side 1  free  transition at x/c =  0.8626   71
 Side 2  free  transition at x/c =  0.6781   60

   3   rms: 0.2572E-02   max: 0.2480E-01   D at   72  1
       a = -0.500      CL =  0.2363
      Cm = -0.0717     CD =  0.00853   =>   CDf =  0.00487    CDp =  0.00367

 Side 1  free  transition at x/c =  0.8615   71
 Side 2  free  transition at x/c =  0.6780   60

   4   rms: 0.6515E-04   max: -.7479E-03   D at   72  1
       a = -0.500      CL =  0.2363
      Cm = -0.0717     CD =  0.00853   =>   CDf =  0.00487    CDp =  0.00366
 plradd ia,ip,cpol            8           0  3.90089862E-02

 Point added to stored polar  1
 Point written to save file  rae5212_Re400k.base.pol                         
 Dump file unspecified or not available
 Calculating wake trajectory ...
 Calculating source influence matrix ...

 Solving BL system ...

 Side 1  free  transition at x/c =  0.8616   71
 Side 2  free  transition at x/c =  0.6780   60

   1   rms: 0.8274E-01   max: -.2112E+00   T at   60  2
       a =  0.000      CL =  0.2913
      Cm = -0.0712     CD =  0.00846   =>   CDf =  0.00484    CDp =  0.00363

 Side 1  free  transition at x/c =  0.8276   70
 Side 2  free  transition at x/c =  0.6852   60

   2   rms: 0.3709E-01   max: -.4862E+00   D at   71  1
       a =  0.000      CL =  0.2951
      Cm = -0.0716     CD =  0.00844   =>   CDf =  0.00505    CDp =  0.00339

 Side 1  free  transition at x/c =  0.8375   71
 Side 2  free  transition at x/c =  0.6854   60

   3   rms: 0.3507E-02   max: 0.4829E-01   D at   71  1
       a =  0.000      CL =  0.2930
      Cm = -0.0712     CD =  0.00840   =>   CDf =  0.00503    CDp =  0.00337

 Side 1  free  transition at x/c =  0.8368   71
 Side 2  free  transition at x/c =  0.6853   60

   4   rms: 0.2946E-03   max: 0.4216E-02   D at   71  1
       a =  0.000      CL =  0.2930
      Cm = -0.0712     CD =  0.00840   =>   CDf =  0.00502    CDp =  0.00337

 Side 1  free  transition at x/c =  0.8367   71
 Side 2  free  transition at x/c =  0.6853   60

   5   rms: 0.1868E-05   max: -.1303E-04   D at   82  1
       a =  0.000      CL =  0.2930
      Cm = -0.0712     CD =  0.00840   =>   CDf =  0.00502    CDp =  0.00337
 plradd ia,ip,cpol            9           0  3.90089862E-02

 Point added to stored polar  1
 Point written to save file  rae5212_Re400k.base.pol                         
 Dump file unspecified or not available
 Calculating wake trajectory ...
 Calculating source influence matrix ...

 Solving BL system ...

 Side 1  free  transition at x/c =  0.8367   71
 Side 2  free  transition at x/c =  0.6853   60

   1   rms: 0.1071E+00   max: -.5668E+00   D at   72  1   RLX: 0.882
       a =  0.500      CL =  0.3500
      Cm = -0.0720     CD =  0.00827   =>   CDf =  0.00498    CDp =  0.00329

 Side 1  free  transition at x/c =  0.8186   70
 Side 2  free  transition at x/c =  0.6911   59

   2   rms: 0.2452E-01   max: -.2591E+00   D at   73  1
       a =  0.500      CL =  0.3436
      Cm = -0.0695     CD =  0.00821   =>   CDf =  0.00499    CDp =  0.00322

 Side 1  free  transition at x/c =  0.8074   70
 Side 2  free  transition at x/c =  0.6922   59

   3   rms: 0.4050E-02   max: -.5592E-01   D at   70  1
       a =  0.500      CL =  0.3454
      Cm = -0.0699     CD =  0.00830   =>   CDf =  0.00508    CDp =  0.00322

 Side 1  free  transition at x/c =  0.8076   70
 Side 2  free  transition at x/c =  0.6921   59

   4   rms: 0.1888E-03   max: 0.3022E-02   D at   70  1
       a =  0.500      CL =  0.3454
      Cm = -0.0699     CD =  0.00830   =>   CDf =  0.00507    CDp =  0.00323

 Side 1  free  transition at x/c =  0.8076   70
 Side 2  free  transition at x/c =  0.6921   59

   5   rms: 0.1834E-05   max: 0.1068E-04   D at   81  1
       a =  0.500      CL =  0.3454
      Cm = -0.0699     CD =  0.00830   =>   CDf =  0.00507    CDp =  0.00322
 plradd ia,ip,cpol           10           0  3.90089862E-02

 Point added to stored polar  1
 Point written to save file  rae5212_Re400k.base.pol                         
 Dump file unspecified or not available
 Calculating wake trajectory ...
 Calculating source influence matrix ...

 Solving BL system ...

 Side 1  free  transition at x/c =  0.8076   70
 Side 2  free  transition at x/c =  0.6921   59

   1   rms: 0.9576E-01   max: -.1974E+00   T at   59  2
       a =  1.000      CL =  0.4016
      Cm = -0.0693     CD =  0.00824   =>   CDf =  0.00508    CDp =  0.00317

 Side 1  free  transition at x/c =  0.7778   68
 Side 2  free  transition at x/c =  0.6990   59

   2   rms: 0.1973E-01   max: 0.2996E+00   D at   69  1
       a =  1.000      CL =  0.3978
      Cm = -0.0687     CD =  0.00830   =>   CDf =  0.00519    CDp =  0.00311

 Side 1  free  transition at x/c =  0.7757   68
 Side 2  free  transition at x/c =  0.6997   59

   3   rms: 0.1195E-02   max: -.1461E-01   D at   71  1
       a =  1.000      CL =  0.3984
      Cm = -0.0688     CD =  0.00829   =>   CDf =  0.00520    CDp =  0.00309

 Side 1  free  transition at x/c =  0.7753   68
 Side 2  free  transition at x/c =  0.6997   59

   4   rms: 0.1051E-04   max: -.2085E-03   D at   71  1
       a =  1.000      CL =  0.3984
      Cm = -0.0688     CD =  0.00829   =>   CDf =  0.00521    CDp =  0.00308
 plradd ia,ip,cpol           11           0  3.90089862E-02

 Point added to stored polar  1
 Point written to save file  rae5212_Re400k.base.pol                         
 Dump file unspecified or not available
 Calculating wake trajectory ...
 Calculating source influence matrix ...

 Solving BL system ...

 Side 1  free  transition at x/c =  0.7753   68
 Side 2  free  transition at x/c =  0.6997   59

   1   rms: 0.8688E-01   max: -.2482E+00   T at   59  2
       a =  1.500      CL =  0.4535
      Cm = -0.0683     CD =  0.00837   =>   CDf =  0.00515    CDp =  0.00322

 Side 1  free  transition at x/c =  0.7484   67
 Side 2  free  transition at x/c =  0.7099   59

   2   rms: 0.3184E-01   max: 0.3879E+00   D at   59  2
       a =  1.500      CL =  0.4517
      Cm = -0.0679     CD =  0.00821   =>   CDf =  0.00518    CDp =  0.00303

 Side 1  free  transition at x/c =  0.7497   67
 Side 2  free  transition at x/c =  0.7076   59

   3   rms: 0.5497E-02   max: 0.4361E-01   D at   60  2
       a =  1.500      CL =  0.4516
      Cm = -0.0679     CD =  0.00826   =>   CDf =  0.00520    CDp =  0.00306

 Side 1  free  transition at x/c =  0.7487   67
 Side 2  free  transition at x/c =  0.7063   59

   4   rms: 0.2021E-03   max: -.3208E-02   D at   61  2
       a =  1.500      CL =  0.4516
      Cm = -0.0679     CD =  0.00826   =>   CDf =  0.00521    CDp =  0.00304

 Side 1  free  transition at x/c =  0.7486   67
 Side 2  free  transition at x/c =  0.7062   59

   5   rms: 0.8917E-06   max: -.9628E-05   D at   61  2
       a =  1.500      CL =  0.4516
      Cm = -0.0679     CD =  0.00826   =>   CDf =  0.00522    CDp =  0.00304
 plradd ia,ip,cpol           12           0  3.90089862E-02

 Point added to stored polar  1
 Point written to save file  rae5212_Re400k.base.pol                         
 Dump file unspecified or not available
 Calculating wake trajectory ...
 Calculating source influence matrix ...

 Solving BL system ...

 Side 1  free  transition at x/c =  0.7486   67
 Side 2  free  transition at x/c =  0.7062   59

   1   rms: 0.8156E-01   max: -.2024E+00   T at   59  2
       a =  2.000      CL =  0.5035
      Cm = -0.0667     CD =  0.00826   =>   CDf =  0.00515    CDp =  0.00311

 Side 1  free  transition at x/c =  0.7068   66
 Side 2  free  transition at x/c =  0.7134   58

   2   rms: 0.2091E-01   max: 0.2799E+00   D at   67  1
       a =  2.000      CL =  0.5031
      Cm = -0.0666     CD =  0.00833   =>   CDf =  0.00540    CDp =  0.00292

 Side 1  free  transition at x/c =  0.7177   66
 Side 2  free  transition at x/c =  0.7142   58

   3   rms: 0.7493E-02   max: 0.1247E+00   C at   66  1
       a =  2.000      CL =  0.5036
      Cm = -0.0667     CD =  0.00833   =>   CDf =  0.00526    CDp =  0.00307

 Side 1  free  transition at x/c =  0.7140   66
 Side 2  free  transition at x/c =  0.7142   58

   4   rms: 0.2239E-03   max: -.3095E-02   D at   69  1
       a =  2.000      CL =  0.5036
      Cm = -0.0667     CD =  0.00833   =>   CDf =  0.00529    CDp =  0.00304

 Side 1  free  transition at x/c =  0.7139   66
 Side 2  free  transition at x/c =  0.7141   58

   5   rms: 0.2165E-05   max: -.1256E-04   D at   84  1
       a =  2.000      CL =  0.5036
      Cm = -0.0667     CD =  0.00833   =>   CDf =  0.00529    CDp =  0.00304
 plradd ia,ip,cpol           13           0  3.30317356E-02

 Point added to stored polar  1
 Point written to save file  rae5212_Re400k.base.pol                         
 Dump file unspecified or not available
 Calculating wake trajectory ...
 Calculating source influence matrix ...

 Solving BL system ...

 Side 1  free  transition at x/c =  0.7139   66
 Side 2  free  transition at x/c =  0.7141   58

   1   rms: 0.8798E-01   max: -.2054E+00   T at   58  2
       a =  2.500      CL =  0.5546
      Cm = -0.0654     CD =  0.00845   =>   CDf =  0.00530    CDp =  0.00316

 Side 1  free  transition at x/c =  0.6556   62
 Side 2  free  transition at x/c =  0.7238   59

   2   rms: 0.2508E-01   max: 0.2652E+00   D at   65  1
       a =  2.500      CL =  0.5526
      Cm = -0.0649     CD =  0.00847   =>   CDf =  0.00547    CDp =  0.00300

 Side 1  free  transition at x/c =  0.6686   63
 Side 2  free  transition at x/c =  0.7218   59

   3   rms: 0.1020E-01   max: 0.1715E+00   C at   63  1
       a =  2.500      CL =  0.5531
      Cm = -0.0650     CD =  0.00844   =>   CDf =  0.00535    CDp =  0.00308

 Side 1  free  transition at x/c =  0.6634   63
 Side 2  free  transition at x/c =  0.7214   59

   4   rms: 0.2821E-03   max: -.4677E-02   D at   65  1
       a =  2.500      CL =  0.5531
      Cm = -0.0651     CD =  0.00844   =>   CDf =  0.00540    CDp =  0.00305

 Side 1  free  transition at x/c =  0.6634   63
 Side 2  free  transition at x/c =  0.7214   59

   5   rms: 0.2330E-05   max: -.1578E-04   D at   65  1
       a =  2.500      CL =  0.5531
      Cm = -0.0651     CD =  0.00844   =>   CDf =  0.00540    CDp =  0.00305
 plradd ia,ip,cpol           14           0  3.30317356E-02

 Point added to stored polar  1
 Point written to save file  rae5212_Re400k.base.pol                         
 Dump file unspecified or not available
 Calculating wake trajectory ...
 Calculating source influence matrix ...

 Solving BL system ...

 Side 1  free  transition at x/c =  0.6634   63
 Side 2  free  transition at x/c =  0.7214   59

   1   rms: 0.9796E-01   max: 0.9213E+00   C at   63  1
       a =  3.000      CL =  0.6004
      Cm = -0.0629     CD =  0.00866   =>   CDf =  0.00531    CDp =  0.00335

 Side 1  free  transition at x/c =  0.5438   56
 Side 2  free  transition at x/c =  0.7289   58

   2   rms: 0.3036E-01   max: -.3530E+00   C at   56  1
       a =  3.000      CL =  0.5947
      Cm = -0.0618     CD =  0.00892   =>   CDf =  0.00589    CDp =  0.00303

 Side 1  free  transition at x/c =  0.5694   58
 Side 2  free  transition at x/c =  0.7302   58

   3   rms: 0.1339E-01   max: 0.2479E+00   C at   58  1
       a =  3.000      CL =  0.5959
      Cm = -0.0621     CD =  0.00889   =>   CDf =  0.00572    CDp =  0.00317

 Side 1  free  transition at x/c =  0.5601   57
 Side 2  free  transition at x/c =  0.7301   58

   4   rms: 0.1170E-02   max: -.2175E-01   C at   57  1
       a =  3.000      CL =  0.5957
      Cm = -0.0620     CD =  0.00890   =>   CDf =  0.00578    CDp =  0.00312

 Side 1  free  transition at x/c =  0.5605   57
 Side 2  free  transition at x/c =  0.7301   58

   5   rms: 0.1349E-02   max: -.2454E-01   C at   57  1
       a =  3.000      CL =  0.5957
      Cm = -0.0620     CD =  0.00890   =>   CDf =  0.00578    CDp =  0.00312

 Side 1  free  transition at x/c =  0.5605   57
 Side 2  free  transition at x/c =  0.7301   58

   6   rms: 0.1347E-02   max: -.2451E-01   C at   57  1
       a =  3.000      CL =  0.5957
      Cm = -0.0620     CD =  0.00890   =>   CDf =  0.00578    CDp =  0.00312

 Side 1  free  transition at x/c =  0.5605   57
 Side 2  free  transition at x/c =  0.7301   58

   7   rms: 0.1346E-02   max: -.2449E-01   C at   57  1
       a =  3.000      CL =  0.5957
      Cm = -0.0620     CD =  0.00890   =>   CDf =  0.00578    CDp =  0.00312

 Side 1  free  transition at x/c =  0.5605   57
 Side 2  free  transition at x/c =  0.7301   58

   8   rms: 0.1347E-02   max: -.2450E-01   C at   57  1
       a =  3.000      CL =  0.5957
      Cm = -0.0620     CD =  0.00890   =>   CDf =  0.00578    CDp =  0.00312

 Side 1  free  transition at x/c =  0.5605   57
 Side 2  free  transition at x/c =  0.7301   58

   9   rms: 0.1347E-02   max: -.2451E-01   C at   57  1
       a =  3.000      CL =  0.5957
      Cm = -0.0620     CD =  0.00890   =>   CDf =  0.00578    CDp =  0.00312

 Side 1  free  transition at x/c =  0.5605   57
 Side 2  free  transition at x/c =  0.7301   58

  10   rms: 0.1348E-02   max: -.2453E-01   C at   57  1
       a =  3.000      CL =  0.5957
      Cm = -0.0620     CD =  0.00890   =>   CDf =  0.00578    CDp =  0.00312

 Side 1  free  transition at x/c =  0.5605   57
 Side 2  free  transition at x/c =  0.7301   58

  11   rms: 0.1346E-02   max: -.2450E-01   C at   57  1
       a =  3.000      CL =  0.5957
      Cm = -0.0620     CD =  0.00890   =>   CDf =  0.00578    CDp =  0.00312

 Side 1  free  transition at x/c =  0.5605   57
 Side 2  free  transition at x/c =  0.7301   58

  12   rms: 0.1348E-02   max: -.2452E-01   C at   57  1
       a =  3.000      CL =  0.5957
      Cm = -0.0620     CD =  0.00890   =>   CDf =  0.00578    CDp =  0.00312

 Side 1  free  transition at x/c =  0.5605   57
 Side 2  free  transition at x/c =  0.7301   58

  13   rms: 0.1348E-02   max: -.2454E-01   C at   57  1
       a =  3.000      CL =  0.5957
      Cm = -0.0620     CD =  0.00890   =>   CDf =  0.00578    CDp =  0.00312

 Side 1  free  transition at x/c =  0.5605   57
 Side 2  free  transition at x/c =  0.7301   58

  14   rms: 0.1347E-02   max: -.2451E-01   C at   57  1
       a =  3.000      CL =  0.5957
      Cm = -0.0620     CD =  0.00890   =>   CDf =  0.00578    CDp =  0.00312

 Side 1  free  transition at x/c =  0.5605   57
 Side 2  free  transition at x/c =  0.7301   58

  15   rms: 0.1347E-02   max: -.2451E-01   C at   57  1
       a =  3.000      CL =  0.5957
      Cm = -0.0620     CD =  0.00890   =>   CDf =  0.00578    CDp =  0.00312

 Side 1  free  transition at x/c =  0.5605   57
 Side 2  free  transition at x/c =  0.7301   58

  16   rms: 0.1346E-02   max: -.2449E-01   C at   57  1
       a =  3.000      CL =  0.5957
      Cm = -0.0620     CD =  0.00890   =>   CDf =  0.00578    CDp =  0.00312

 Side 1  free  transition at x/c =  0.5605   57
 Side 2  free  transition at x/c =  0.7301   58

  17   rms: 0.1348E-02   max: -.2453E-01   C at   57  1
       a =  3.000      CL =  0.5957
      Cm = -0.0620     CD =  0.00890   =>   CDf =  0.00578    CDp =  0.00312

 Side 1  free  transition at x/c =  0.5605   57
 Side 2  free  transition at x/c =  0.7301   58

  18   rms: 0.1349E-02   max: -.2454E-01   C at   57  1
       a =  3.000      CL =  0.5957
      Cm = -0.0620     CD =  0.00890   =>   CDf =  0.00578    CDp =  0.00312

 Side 1  free  transition at x/c =  0.5605   57
 Side 2  free  transition at x/c =  0.7301   58

  19   rms: 0.1348E-02   max: -.2452E-01   C at   57  1
       a =  3.000      CL =  0.5957
      Cm = -0.0620     CD =  0.00890   =>   CDf =  0.00578    CDp =  0.00312

 Side 1  free  transition at x/c =  0.5605   57
 Side 2  free  transition at x/c =  0.7301   58

  20   rms: 0.1347E-02   max: -.2451E-01   C at   57  1
       a =  3.000      CL =  0.5957
      Cm = -0.0620     CD =  0.00890   =>   CDf =  0.00578    CDp =  0.00312

 Side 1  free  transition at x/c =  0.5605   57
 Side 2  free  transition at x/c =  0.7301   58

  21   rms: 0.1349E-02   max: -.2455E-01   C at   57  1
       a =  3.000      CL =  0.5957
      Cm = -0.0620     CD =  0.00890   =>   CDf =  0.00578    CDp =  0.00312

 Side 1  free  transition at x/c =  0.5605   57
 Side 2  free  transition at x/c =  0.7301   58

  22   rms: 0.1347E-02   max: -.2451E-01   C at   57  1
       a =  3.000      CL =  0.5957
      Cm = -0.0620     CD =  0.00890   =>   CDf =  0.00578    CDp =  0.00312

 Side 1  free  transition at x/c =  0.5605   57
 Side 2  free  transition at x/c =  0.7301   58

  23   rms: 0.1349E-02   max: -.2455E-01   C at   57  1
       a =  3.000      CL =  0.5957
      Cm = -0.0620     CD =  0.00890   =>   CDf =  0.00578    CDp =  0.00312

 Side 1  free  transition at x/c =  0.5605   57
 Side 2  free  transition at x/c =  0.7301   58

  24   rms: 0.1348E-02   max: -.2454E-01   C at   57  1
       a =  3.000      CL =  0.5957
      Cm = -0.0620     CD =  0.00890   =>   CDf =  0.00578    CDp =  0.00312

 Side 1  free  transition at x/c =  0.5605   57
 Side 2  free  transition at x/c =  0.7301   58

  25   rms: 0.1348E-02   max: -.2453E-01   C at   57  1
       a =  3.000      CL =  0.5957
      Cm = -0.0620     CD =  0.00890   =>   CDf =  0.00578    CDp =  0.00312

 Side 1  free  transition at x/c =  0.5605   57
 Side 2  free  transition at x/c =  0.7301   58

  26   rms: 0.1349E-02   max: -.2455E-01   C at   57  1
       a =  3.000      CL =  0.5957
      Cm = -0.0620     CD =  0.00890   =>   CDf =  0.00578    CDp =  0.00312

 Side 1  free  transition at x/c =  0.5605   57
 Side 2  free  transition at x/c =  0.7301   58

  27   rms: 0.1347E-02   max: -.2451E-01   C at   57  1
       a =  3.000      CL =  0.5957
      Cm = -0.0620     CD =  0.00890   =>   CDf =  0.00578    CDp =  0.00312

 Side 1  free  transition at x/c =  0.5605   57
 Side 2  free  transition at x/c =  0.7301   58

  28   rms: 0.1348E-02   max: -.2452E-01   C at   57  1
       a =  3.000      CL =  0.5957
      Cm = -0.0620     CD =  0.00890   =>   CDf =  0.00578    CDp =  0.00312

 Side 1  free  transition at x/c =  0.5605   57
 Side 2  free  transition at x/c =  0.7301   58

  29   rms: 0.1348E-02   max: -.2454E-01   C at   57  1
       a =  3.000      CL =  0.5957
      Cm = -0.0620     CD =  0.00890   =>   CDf =  0.00578    CDp =  0.00312

 Side 1  free  transition at x/c =  0.5605   57
 Side 2  free  transition at x/c =  0.7301   58

  30   rms: 0.1347E-02   max: -.2451E-01   C at   57  1
       a =  3.000      CL =  0.5957
      Cm = -0.0620     CD =  0.00890   =>   CDf =  0.00578    CDp =  0.00312

 Side 1  free  transition at x/c =  0.5605   57
 Side 2  free  transition at x/c =  0.7301   58

  31   rms: 0.1350E-02   max: -.2456E-01   C at   57  1
       a =  3.000      CL =  0.5957
      Cm = -0.0620     CD =  0.00890   =>   CDf =  0.00578    CDp =  0.00312

 Side 1  free  transition at x/c =  0.5605   57
 Side 2  free  transition at x/c =  0.7301   58

  32   rms: 0.1348E-02   max: -.2452E-01   C at   57  1
       a =  3.000      CL =  0.5957
      Cm = -0.0620     CD =  0.00890   =>   CDf =  0.00578    CDp =  0.00312

 Side 1  free  transition at x/c =  0.5605   57
 Side 2  free  transition at x/c =  0.7301   58

  33   rms: 0.1348E-02   max: -.2452E-01   C at   57  1
       a =  3.000      CL =  0.5957
      Cm = -0.0620     CD =  0.00890   =>   CDf =  0.00578    CDp =  0.00312

 Side 1  free  transition at x/c =  0.5605   57
 Side 2  free  transition at x/c =  0.7301   58

  34   rms: 0.1348E-02   max: -.2452E-01   C at   57  1
       a =  3.000      CL =  0.5957
      Cm = -0.0620     CD =  0.00890   =>   CDf =  0.00578    CDp =  0.00312

 Side 1  free  transition at x/c =  0.5605   57
 Side 2  free  transition at x/c =  0.7301   58

  35   rms: 0.1349E-02   max: -.2454E-01   C at   57  1
       a =  3.000      CL =  0.5957
      Cm = -0.0620     CD =  0.00890   =>   CDf =  0.00578    CDp =  0.00312

 Side 1  free  transition at x/c =  0.5605   57
 Side 2  free  transition at x/c =  0.7301   58

  36   rms: 0.1348E-02   max: -.2453E-01   C at   57  1
       a =  3.000      CL =  0.5957
      Cm = -0.0620     CD =  0.00890   =>   CDf =  0.00578    CDp =  0.00312

 Side 1  free  transition at x/c =  0.5605   57
 Side 2  free  transition at x/c =  0.7301   58

  37   rms: 0.1348E-02   max: -.2452E-01   C at   57  1
       a =  3.000      CL =  0.5957
      Cm = -0.0620     CD =  0.00890   =>   CDf =  0.00578    CDp =  0.00312

 Side 1  free  transition at x/c =  0.5605   57
 Side 2  free  transition at x/c =  0.7301   58

  38   rms: 0.1348E-02   max: -.2452E-01   C at   57  1
       a =  3.000      CL =  0.5957
      Cm = -0.0620     CD =  0.00890   =>   CDf =  0.00578    CDp =  0.00312

 Side 1  free  transition at x/c =  0.5605   57
 Side 2  free  transition at x/c =  0.7301   58

  39   rms: 0.1348E-02   max: -.2452E-01   C at   57  1
       a =  3.000      CL =  0.5957
      Cm = -0.0620     CD =  0.00890   =>   CDf =  0.00578    CDp =  0.00312

 Side 1  free  transition at x/c =  0.5605   57
 Side 2  free  transition at x/c =  0.7301   58

  40   rms: 0.1348E-02   max: -.2453E-01   C at   57  1
       a =  3.000      CL =  0.5957
      Cm = -0.0620     CD =  0.00890   =>   CDf =  0.00578    CDp =  0.00312

 Side 1  free  transition at x/c =  0.5605   57
 Side 2  free  transition at x/c =  0.7301   58

  41   rms: 0.1348E-02   max: -.2453E-01   C at   57  1
       a =  3.000      CL =  0.5957
      Cm = -0.0620     CD =  0.00890   =>   CDf =  0.00578    CDp =  0.00312

 Side 1  free  transition at x/c =  0.5605   57
 Side 2  free  transition at x/c =  0.7301   58

  42   rms: 0.1349E-02   max: -.2454E-01   C at   57  1
       a =  3.000      CL =  0.5957
      Cm = -0.0620     CD =  0.00890   =>   CDf =  0.00578    CDp =  0.00312

 Side 1  free  transition at x/c =  0.5605   57
 Side 2  free  transition at x/c =  0.7301   58

  43   rms: 0.1348E-02   max: -.2454E-01   C at   57  1
       a =  3.000      CL =  0.5957
      Cm = -0.0620     CD =  0.00890   =>   CDf =  0.00578    CDp =  0.00312

 Side 1  free  transition at x/c =  0.5605   57
 Side 2  free  transition at x/c =  0.7301   58

  44   rms: 0.1348E-02   max: -.2453E-01   C at   57  1
       a =  3.000      CL =  0.5957
      Cm = -0.0620     CD =  0.00890   =>   CDf =  0.00578    CDp =  0.00312

 Side 1  free  transition at x/c =  0.5605   57
 Side 2  free  transition at x/c =  0.7301   58

  45   rms: 0.1347E-02   max: -.2451E-01   C at   57  1
       a =  3.000      CL =  0.5957
      Cm = -0.0620     CD =  0.00890   =>   CDf =  0.00578    CDp =  0.00312

 Side 1  free  transition at x/c =  0.5605   57
 Side 2  free  transition at x/c =  0.7301   58

  46   rms: 0.1347E-02   max: -.2451E-01   C at   57  1
       a =  3.000      CL =  0.5957
      Cm = -0.0620     CD =  0.00890   =>   CDf =  0.00578    CDp =  0.00312

 Side 1  free  transition at x/c =  0.5605   57
 Side 2  free  transition at x/c =  0.7301   58

  47   rms: 0.1349E-02   max: -.2454E-01   C at   57  1
       a =  3.000      CL =  0.5957
      Cm = -0.0620     CD =  0.00890   =>   CDf =  0.00578    CDp =  0.00312

 Side 1  free  transition at x/c =  0.5605   57
 Side 2  free  transition at x/c =  0.7301   58

  48   rms: 0.1349E-02   max: -.2454E-01   C at   57  1
       a =  3.000      CL =  0.5957
      Cm = -0.0620     CD =  0.00890   =>   CDf =  0.00578    CDp =  0.00312

 Side 1  free  transition at x/c =  0.5605   57
 Side 2  free  transition at x/c =  0.7301   58

  49   rms: 0.1346E-02   max: -.2450E-01   C at   57  1
       a =  3.000      CL =  0.5957
      Cm = -0.0620     CD =  0.00890   =>   CDf =  0.00578    CDp =  0.00312

 Side 1  free  transition at x/c =  0.5605   57
 Side 2  free  transition at x/c =  0.7301   58

  50   rms: 0.1349E-02   max: -.2454E-01   C at   57  1
       a =  3.000      CL =  0.5957
      Cm = -0.0620     CD =  0.00890   =>   CDf =  0.00578    CDp =  0.00312

 Side 1  free  transition at x/c =  0.5605   57
 Side 2  free  transition at x/c =  0.7301   58

  51   rms: 0.1348E-02   max: -.2452E-01   C at   57  1
       a =  3.000      CL =  0.5957
      Cm = -0.0620     CD =  0.00890   =>   CDf =  0.00578    CDp =  0.00312

 Side 1  free  transition at x/c =  0.5605   57
 Side 2  free  transition at x/c =  0.7301   58

  52   rms: 0.1348E-02   max: -.2453E-01   C at   57  1
       a =  3.000      CL =  0.5957
      Cm = -0.0620     CD =  0.00890   =>   CDf =  0.00578    CDp =  0.00312

 Side 1  free  transition at x/c =  0.5605   57
 Side 2  free  transition at x/c =  0.7301   58

  53   rms: 0.1348E-02   max: -.2452E-01   C at   57  1
       a =  3.000      CL =  0.5957
      Cm = -0.0620     CD =  0.00890   =>   CDf =  0.00578    CDp =  0.00312

 Side 1  free  transition at x/c =  0.5605   57
 Side 2  free  transition at x/c =  0.7301   58

  54   rms: 0.1347E-02   max: -.2451E-01   C at   57  1
       a =  3.000      CL =  0.5957
      Cm = -0.0620     CD =  0.00890   =>   CDf =  0.00578    CDp =  0.00312

 Side 1  free  transition at x/c =  0.5605   57
 Side 2  free  transition at x/c =  0.7301   58

  55   rms: 0.1348E-02   max: -.2453E-01   C at   57  1
       a =  3.000      CL =  0.5957
      Cm = -0.0620     CD =  0.00890   =>   CDf =  0.00578    CDp =  0.00312

 Side 1  free  transition at x/c =  0.5605   57
 Side 2  free  transition at x/c =  0.7301   58

  56   rms: 0.1348E-02   max: -.2452E-01   C at   57  1
       a =  3.000      CL =  0.5957
      Cm = -0.0620     CD =  0.00890   =>   CDf =  0.00578    CDp =  0.00312

 Side 1  free  transition at x/c =  0.5605   57
 Side 2  free  transition at x/c =  0.7301   58

  57   rms: 0.1348E-02   max: -.2453E-01   C at   57  1
       a =  3.000      CL =  0.5957
      Cm = -0.0620     CD =  0.00890   =>   CDf =  0.00578    CDp =  0.00312

 Side 1  free  transition at x/c =  0.5605   57
 Side 2  free  transition at x/c =  0.7301   58

  58   rms: 0.1349E-02   max: -.2455E-01   C at   57  1
       a =  3.000      CL =  0.5957
      Cm = -0.0620     CD =  0.00890   =>   CDf =  0.00578    CDp =  0.00312

 Side 1  free  transition at x/c =  0.5605   57
 Side 2  free  transition at x/c =  0.7301   58

  59   rms: 0.1348E-02   max: -.2452E-01   C at   57  1
       a =  3.000      CL =  0.5957
      Cm = -0.0620     CD =  0.00890   =>   CDf =  0.00578    CDp =  0.00312

 Side 1  free  transition at x/c =  0.5605   57
 Side 2  free  transition at x/c =  0.7301   58

  60   rms: 0.1348E-02   max: -.2452E-01   C at   57  1
       a =  3.000      CL =  0.5957
      Cm = -0.0620     CD =  0.00890   =>   CDf =  0.00578    CDp =  0.00312

 Side 1  free  transition at x/c =  0.5605   57
 Side 2  free  transition at x/c =  0.7301   58

  61   rms: 0.1347E-02   max: -.2451E-01   C at   57  1
       a =  3.000      CL =  0.5957
      Cm = -0.0620     CD =  0.00890   =>   CDf =  0.00578    CDp =  0.00312

 Side 1  free  transition at x/c =  0.5605   57
 Side 2  free  transition at x/c =  0.7301   58

  62   rms: 0.1348E-02   max: -.2453E-01   C at   57  1
       a =  3.000      CL =  0.5957
      Cm = -0.0620     CD =  0.00890   =>   CDf =  0.00578    CDp =  0.00312

 Side 1  free  transition at x/c =  0.5605   57
 Side 2  free  transition at x/c =  0.7301   58

  63   rms: 0.1347E-02   max: -.2452E-01   C at   57  1
       a =  3.000      CL =  0.5957
      Cm = -0.0620     CD =  0.00890   =>   CDf =  0.00578    CDp =  0.00312

 Side 1  free  transition at x/c =  0.5605   57
 Side 2  free  transition at x/c =  0.7301   58

  64   rms: 0.1347E-02   max: -.2451E-01   C at   57  1
       a =  3.000      CL =  0.5957
      Cm = -0.0620     CD =  0.00890   =>   CDf =  0.00578    CDp =  0.00312

 Side 1  free  transition at x/c =  0.5605   57
 Side 2  free  transition at x/c =  0.7301   58

  65   rms: 0.1347E-02   max: -.2451E-01   C at   57  1
       a =  3.000      CL =  0.5957
      Cm = -0.0620     CD =  0.00890   =>   CDf =  0.00578    CDp =  0.00312

 Side 1  free  transition at x/c =  0.5605   57
 Side 2  free  transition at x/c =  0.7301   58

  66   rms: 0.1348E-02   max: -.2453E-01   C at   57  1
       a =  3.000      CL =  0.5957
      Cm = -0.0620     CD =  0.00890   =>   CDf =  0.00578    CDp =  0.00312

 Side 1  free  transition at x/c =  0.5605   57
 Side 2  free  transition at x/c =  0.7301   58

  67   rms: 0.1347E-02   max: -.2451E-01   C at   57  1
       a =  3.000      CL =  0.5957
      Cm = -0.0620     CD =  0.00890   =>   CDf =  0.00578    CDp =  0.00312

 Side 1  free  transition at x/c =  0.5605   57
 Side 2  free  transition at x/c =  0.7301   58

  68   rms: 0.1348E-02   max: -.2452E-01   C at   57  1
       a =  3.000      CL =  0.5957
      Cm = -0.0620     CD =  0.00890   =>   CDf =  0.00578    CDp =  0.00312

 Side 1  free  transition at x/c =  0.5605   57
 Side 2  free  transition at x/c =  0.7301   58

  69   rms: 0.1347E-02   max: -.2451E-01   C at   57  1
       a =  3.000      CL =  0.5957
      Cm = -0.0620     CD =  0.00890   =>   CDf =  0.00578    CDp =  0.00312

 Side 1  free  transition at x/c =  0.5605   57
 Side 2  free  transition at x/c =  0.7301   58

  70   rms: 0.1348E-02   max: -.2452E-01   C at   57  1
       a =  3.000      CL =  0.5957
      Cm = -0.0620     CD =  0.00890   =>   CDf =  0.00578    CDp =  0.00312

 Side 1  free  transition at x/c =  0.5605   57
 Side 2  free  transition at x/c =  0.7301   58

  71   rms: 0.1347E-02   max: -.2451E-01   C at   57  1
       a =  3.000      CL =  0.5957
      Cm = -0.0620     CD =  0.00890   =>   CDf =  0.00578    CDp =  0.00312

 Side 1  free  transition at x/c =  0.5605   57
 Side 2  free  transition at x/c =  0.7301   58

  72   rms: 0.1348E-02   max: -.2453E-01   C at   57  1
       a =  3.000      CL =  0.5957
      Cm = -0.0620     CD =  0.00890   =>   CDf =  0.00578    CDp =  0.00312

 Side 1  free  transition at x/c =  0.5605   57
 Side 2  free  transition at x/c =  0.7301   58

  73   rms: 0.1346E-02   max: -.2449E-01   C at   57  1
       a =  3.000      CL =  0.5957
      Cm = -0.0620     CD =  0.00890   =>   CDf =  0.00578    CDp =  0.00312

 Side 1  free  transition at x/c =  0.5605   57
 Side 2  free  transition at x/c =  0.7301   58

  74   rms: 0.1347E-02   max: -.2450E-01   C at   57  1
       a =  3.000      CL =  0.5957
      Cm = -0.0620     CD =  0.00890   =>   CDf =  0.00578    CDp =  0.00312

 Side 1  free  transition at x/c =  0.5605   57
 Side 2  free  transition at x/c =  0.7301   58

  75   rms: 0.1348E-02   max: -.2454E-01   C at   57  1
       a =  3.000      CL =  0.5957
      Cm = -0.0620     CD =  0.00890   =>   CDf =  0.00578    CDp =  0.00312

 Side 1  free  transition at x/c =  0.5605   57
 Side 2  free  transition at x/c =  0.7301   58

  76   rms: 0.1348E-02   max: -.2453E-01   C at   57  1
       a =  3.000      CL =  0.5957
      Cm = -0.0620     CD =  0.00890   =>   CDf =  0.00578    CDp =  0.00312

 Side 1  free  transition at x/c =  0.5605   57
 Side 2  free  transition at x/c =  0.7301   58

  77   rms: 0.1346E-02   max: -.2449E-01   C at   57  1
       a =  3.000      CL =  0.5957
      Cm = -0.0620     CD =  0.00890   =>   CDf =  0.00578    CDp =  0.00312

 Side 1  free  transition at x/c =  0.5605   57
 Side 2  free  transition at x/c =  0.7301   58

  78   rms: 0.1349E-02   max: -.2455E-01   C at   57  1
       a =  3.000      CL =  0.5957
      Cm = -0.0620     CD =  0.00890   =>   CDf =  0.00578    CDp =  0.00312

 Side 1  free  transition at x/c =  0.5605   57
 Side 2  free  transition at x/c =  0.7301   58

  79   rms: 0.1348E-02   max: -.2452E-01   C at   57  1
       a =  3.000      CL =  0.5957
      Cm = -0.0620     CD =  0.00890   =>   CDf =  0.00578    CDp =  0.00312

 Side 1  free  transition at x/c =  0.5605   57
 Side 2  free  transition at x/c =  0.7301   58

  80   rms: 0.1347E-02   max: -.2452E-01   C at   57  1
       a =  3.000      CL =  0.5957
      Cm = -0.0620     CD =  0.00890   =>   CDf =  0.00578    CDp =  0.00312

 Side 1  free  transition at x/c =  0.5605   57
 Side 2  free  transition at x/c =  0.7301   58

  81   rms: 0.1347E-02   max: -.2451E-01   C at   57  1
       a =  3.000      CL =  0.5957
      Cm = -0.0620     CD =  0.00890   =>   CDf =  0.00578    CDp =  0.00312

 Side 1  free  transition at x/c =  0.5605   57
 Side 2  free  transition at x/c =  0.7301   58

  82   rms: 0.1348E-02   max: -.2453E-01   C at   57  1
       a =  3.000      CL =  0.5957
      Cm = -0.0620     CD =  0.00890   =>   CDf =  0.00578    CDp =  0.00312

 Side 1  free  transition at x/c =  0.5605   57
 Side 2  free  transition at x/c =  0.7301   58

  83   rms: 0.1347E-02   max: -.2450E-01   C at   57  1
       a =  3.000      CL =  0.5957
      Cm = -0.0620     CD =  0.00890   =>   CDf =  0.00578    CDp =  0.00312

 Side 1  free  transition at x/c =  0.5605   57
 Side 2  free  transition at x/c =  0.7301   58

  84   rms: 0.1348E-02   max: -.2452E-01   C at   57  1
       a =  3.000      CL =  0.5957
      Cm = -0.0620     CD =  0.00890   =>   CDf =  0.00578    CDp =  0.00312

 Side 1  free  transition at x/c =  0.5605   57
 Side 2  free  transition at x/c =  0.7301   58

  85   rms: 0.1349E-02   max: -.2454E-01   C at   57  1
       a =  3.000      CL =  0.5957
      Cm = -0.0620     CD =  0.00890   =>   CDf =  0.00578    CDp =  0.00312

 Side 1  free  transition at x/c =  0.5605   57
 Side 2  free  transition at x/c =  0.7301   58

  86   rms: 0.1348E-02   max: -.2453E-01   C at   57  1
       a =  3.000      CL =  0.5957
      Cm = -0.0620     CD =  0.00890   =>   CDf =  0.00578    CDp =  0.00312

 Side 1  free  transition at x/c =  0.5605   57
 Side 2  free  transition at x/c =  0.7301   58

  87   rms: 0.1348E-02   max: -.2453E-01   C at   57  1
       a =  3.000      CL =  0.5957
      Cm = -0.0620     CD =  0.00890   =>   CDf =  0.00578    CDp =  0.00312

 Side 1  free  transition at x/c =  0.5605   57
 Side 2  free  transition at x/c =  0.7301   58

  88   rms: 0.1347E-02   max: -.2451E-01   C at   57  1
       a =  3.000      CL =  0.5957
      Cm = -0.0620     CD =  0.00890   =>   CDf =  0.00578    CDp =  0.00312

 Side 1  free  transition at x/c =  0.5605   57
 Side 2  free  transition at x/c =  0.7301   58

  89   rms: 0.1347E-02   max: -.2451E-01   C at   57  1
       a =  3.000      CL =  0.5957
      Cm = -0.0620     CD =  0.00890   =>   CDf =  0.00578    CDp =  0.00312

 Side 1  free  transition at x/c =  0.5605   57
 Side 2  free  transition at x/c =  0.7301   58

  90   rms: 0.1347E-02   max: -.2452E-01   C at   57  1
       a =  3.000      CL =  0.5957
      Cm = -0.0620     CD =  0.00890   =>   CDf =  0.00578    CDp =  0.00312

 Side 1  free  transition at x/c =  0.5605   57
 Side 2  free  transition at x/c =  0.7301   58

  91   rms: 0.1347E-02   max: -.2451E-01   C at   57  1
       a =  3.000      CL =  0.5957
      Cm = -0.0620     CD =  0.00890   =>   CDf =  0.00578    CDp =  0.00312

 Side 1  free  transition at x/c =  0.5605   57
 Side 2  free  transition at x/c =  0.7301   58

  92   rms: 0.1348E-02   max: -.2453E-01   C at   57  1
       a =  3.000      CL =  0.5957
      Cm = -0.0620     CD =  0.00890   =>   CDf =  0.00578    CDp =  0.00312

 Side 1  free  transition at x/c =  0.5605   57
 Side 2  free  transition at x/c =  0.7301   58

  93   rms: 0.1348E-02   max: -.2453E-01   C at   57  1
       a =  3.000      CL =  0.5957
      Cm = -0.0620     CD =  0.00890   =>   CDf =  0.00578    CDp =  0.00312

 Side 1  free  transition at x/c =  0.5605   57
 Side 2  free  transition at x/c =  0.7301   58

  94   rms: 0.1348E-02   max: -.2452E-01   C at   57  1
       a =  3.000      CL =  0.5957
      Cm = -0.0620     CD =  0.00890   =>   CDf =  0.00578    CDp =  0.00312

 Side 1  free  transition at x/c =  0.5605   57
 Side 2  free  transition at x/c =  0.7301   58

  95   rms: 0.1347E-02   max: -.2451E-01   C at   57  1
       a =  3.000      CL =  0.5957
      Cm = -0.0620     CD =  0.00890   =>   CDf =  0.00578    CDp =  0.00312

 Side 1  free  transition at x/c =  0.5605   57
 Side 2  free  transition at x/c =  0.7301   58

  96   rms: 0.1348E-02   max: -.2452E-01   C at   57  1
       a =  3.000      CL =  0.5957
      Cm = -0.0620     CD =  0.00890   =>   CDf =  0.00578    CDp =  0.00312

 Side 1  free  transition at x/c =  0.5605   57
 Side 2  free  transition at x/c =  0.7301   58

  97   rms: 0.1349E-02   max: -.2454E-01   C at   57  1
       a =  3.000      CL =  0.5957
      Cm = -0.0620     CD =  0.00890   =>   CDf =  0.00578    CDp =  0.00312

 Side 1  free  transition at x/c =  0.5605   57
 Side 2  free  transition at x/c =  0.7301   58

  98   rms: 0.1347E-02   max: -.2451E-01   C at   57  1
       a =  3.000      CL =  0.5957
      Cm = -0.0620     CD =  0.00890   =>   CDf =  0.00578    CDp =  0.00312

 Side 1  free  transition at x/c =  0.5605   57
 Side 2  free  transition at x/c =  0.7301   58

  99   rms: 0.1347E-02   max: -.2451E-01   C at   57  1
       a =  3.000      CL =  0.5957
      Cm = -0.0620     CD =  0.00890   =>   CDf =  0.00578    CDp =  0.00312

 Side 1  free  transition at x/c =  0.5605   57
 Side 2  free  transition at x/c =  0.7301   58

 100   rms: 0.1347E-02   max: -.2451E-01   C at   57  1
       a =  3.000      CL =  0.5957
      Cm = -0.0620     CD =  0.00890   =>   CDf =  0.00578    CDp =  0.00312

 Side 1  free  transition at x/c =  0.5605   57
 Side 2  free  transition at x/c =  0.7301   58

 101   rms: 0.1346E-02   max: -.2449E-01   C at   57  1
       a =  3.000      CL =  0.5957
      Cm = -0.0620     CD =  0.00890   =>   CDf =  0.00578    CDp =  0.00312

 Side 1  free  transition at x/c =  0.5605   57
 Side 2  free  transition at x/c =  0.7301   58

 102   rms: 0.1349E-02   max: -.2455E-01   C at   57  1
       a =  3.000      CL =  0.5957
      Cm = -0.0620     CD =  0.00890   =>   CDf =  0.00578    CDp =  0.00312

 Side 1  free  transition at x/c =  0.5605   57
 Side 2  free  transition at x/c =  0.7301   58

 103   rms: 0.1346E-02   max: -.2449E-01   C at   57  1
       a =  3.000      CL =  0.5957
      Cm = -0.0620     CD =  0.00890   =>   CDf =  0.00578    CDp =  0.00312

 Side 1  free  transition at x/c =  0.5605   57
 Side 2  free  transition at x/c =  0.7301   58

 104   rms: 0.1347E-02   max: -.2451E-01   C at   57  1
       a =  3.000      CL =  0.5957
      Cm = -0.0620     CD =  0.00890   =>   CDf =  0.00578    CDp =  0.00312

 Side 1  free  transition at x/c =  0.5605   57
 Side 2  free  transition at x/c =  0.7301   58

 105   rms: 0.1348E-02   max: -.2453E-01   C at   57  1
       a =  3.000      CL =  0.5957
      Cm = -0.0620     CD =  0.00890   =>   CDf =  0.00578    CDp =  0.00312

 Side 1  free  transition at x/c =  0.5605   57
 Side 2  free  transition at x/c =  0.7301   58

 106   rms: 0.1348E-02   max: -.2453E-01   C at   57  1
       a =  3.000      CL =  0.5957
      Cm = -0.0620     CD =  0.00890   =>   CDf =  0.00578    CDp =  0.00312

 Side 1  free  transition at x/c =  0.5605   57
 Side 2  free  transition at x/c =  0.7301   58

 107   rms: 0.1347E-02   max: -.2450E-01   C at   57  1
       a =  3.000      CL =  0.5957
      Cm = -0.0620     CD =  0.00890   =>   CDf =  0.00578    CDp =  0.00312

 Side 1  free  transition at x/c =  0.5605   57
 Side 2  free  transition at x/c =  0.7301   58

 108   rms: 0.1348E-02   max: -.2454E-01   C at   57  1
       a =  3.000      CL =  0.5957
      Cm = -0.0620     CD =  0.00890   =>   CDf =  0.00578    CDp =  0.00312

 Side 1  free  transition at x/c =  0.5605   57
 Side 2  free  transition at x/c =  0.7301   58

 109   rms: 0.1347E-02   max: -.2450E-01   C at   57  1
       a =  3.000      CL =  0.5957
      Cm = -0.0620     CD =  0.00890   =>   CDf =  0.00578    CDp =  0.00312

 Side 1  free  transition at x/c =  0.5605   57
 Side 2  free  transition at x/c =  0.7301   58

 110   rms: 0.1346E-02   max: -.2449E-01   C at   57  1
       a =  3.000      CL =  0.5957
      Cm = -0.0620     CD =  0.00890   =>   CDf =  0.00578    CDp =  0.00312

 Side 1  free  transition at x/c =  0.5605   57
 Side 2  free  transition at x/c =  0.7301   58

 111   rms: 0.1348E-02   max: -.2453E-01   C at   57  1
       a =  3.000      CL =  0.5957
      Cm = -0.0620     CD =  0.00890   =>   CDf =  0.00578    CDp =  0.00312

 Side 1  free  transition at x/c =  0.5605   57
 Side 2  free  transition at x/c =  0.7301   58

 112   rms: 0.1347E-02   max: -.2451E-01   C at   57  1
       a =  3.000      CL =  0.5957
      Cm = -0.0620     CD =  0.00890   =>   CDf =  0.00578    CDp =  0.00312

 Side 1  free  transition at x/c =  0.5605   57
 Side 2  free  transition at x/c =  0.7301   58

 113   rms: 0.1348E-02   max: -.2453E-01   C at   57  1
       a =  3.000      CL =  0.5957
      Cm = -0.0620     CD =  0.00890   =>   CDf =  0.00578    CDp =  0.00312

 Side 1  free  transition at x/c =  0.5605   57
 Side 2  free  transition at x/c =  0.7301   58

 114   rms: 0.1348E-02   max: -.2453E-01   C at   57  1
       a =  3.000      CL =  0.5957
      Cm = -0.0620     CD =  0.00890   =>   CDf =  0.00578    CDp =  0.00312

 Side 1  free  transition at x/c =  0.5605   57
 Side 2  free  transition at x/c =  0.7301   58

 115   rms: 0.1347E-02   max: -.2451E-01   C at   57  1
       a =  3.000      CL =  0.5957
      Cm = -0.0620     CD =  0.00890   =>   CDf =  0.00578    CDp =  0.00312

 Side 1  free  transition at x/c =  0.5605   57
 Side 2  free  transition at x/c =  0.7301   58

 116   rms: 0.1348E-02   max: -.2452E-01   C at   57  1
       a =  3.000      CL =  0.5957
      Cm = -0.0620     CD =  0.00890   =>   CDf =  0.00578    CDp =  0.00312

 Side 1  free  transition at x/c =  0.5605   57
 Side 2  free  transition at x/c =  0.7301   58

 117   rms: 0.1347E-02   max: -.2450E-01   C at   57  1
       a =  3.000      CL =  0.5957
      Cm = -0.0620     CD =  0.00890   =>   CDf =  0.00578    CDp =  0.00312

 Side 1  free  transition at x/c =  0.5605   57
 Side 2  free  transition at x/c =  0.7301   58

 118   rms: 0.1348E-02   max: -.2452E-01   C at   57  1
       a =  3.000      CL =  0.5957
      Cm = -0.0620     CD =  0.00890   =>   CDf =  0.00578    CDp =  0.00312

 Side 1  free  transition at x/c =  0.5605   57
 Side 2  free  transition at x/c =  0.7301   58

 119   rms: 0.1347E-02   max: -.2450E-01   C at   57  1
       a =  3.000      CL =  0.5957
      Cm = -0.0620     CD =  0.00890   =>   CDf =  0.00578    CDp =  0.00312

 Side 1  free  transition at x/c =  0.5605   57
 Side 2  free  transition at x/c =  0.7301   58

 120   rms: 0.1348E-02   max: -.2453E-01   C at   57  1
       a =  3.000      CL =  0.5957
      Cm = -0.0620     CD =  0.00890   =>   CDf =  0.00578    CDp =  0.00312

 Side 1  free  transition at x/c =  0.5605   57
 Side 2  free  transition at x/c =  0.7301   58

 121   rms: 0.1346E-02   max: -.2449E-01   C at   57  1
       a =  3.000      CL =  0.5957
      Cm = -0.0620     CD =  0.00890   =>   CDf =  0.00578    CDp =  0.00312

 Side 1  free  transition at x/c =  0.5605   57
 Side 2  free  transition at x/c =  0.7301   58

 122   rms: 0.1349E-02   max: -.2454E-01   C at   57  1
       a =  3.000      CL =  0.5957
      Cm = -0.0620     CD =  0.00890   =>   CDf =  0.00578    CDp =  0.00312

 Side 1  free  transition at x/c =  0.5605   57
 Side 2  free  transition at x/c =  0.7301   58

 123   rms: 0.1349E-02   max: -.2454E-01   C at   57  1
       a =  3.000      CL =  0.5957
      Cm = -0.0620     CD =  0.00890   =>   CDf =  0.00578    CDp =  0.00312

 Side 1  free  transition at x/c =  0.5605   57
 Side 2  free  transition at x/c =  0.7301   58

 124   rms: 0.1348E-02   max: -.2453E-01   C at   57  1
       a =  3.000      CL =  0.5957
      Cm = -0.0620     CD =  0.00890   =>   CDf =  0.00578    CDp =  0.00312

 Side 1  free  transition at x/c =  0.5605   57
 Side 2  free  transition at x/c =  0.7301   58

 125   rms: 0.1350E-02   max: -.2456E-01   C at   57  1
       a =  3.000      CL =  0.5957
      Cm = -0.0620     CD =  0.00890   =>   CDf =  0.00578    CDp =  0.00312

 Side 1  free  transition at x/c =  0.5605   57
 Side 2  free  transition at x/c =  0.7301   58

 126   rms: 0.1348E-02   max: -.2452E-01   C at   57  1
       a =  3.000      CL =  0.5957
      Cm = -0.0620     CD =  0.00890   =>   CDf =  0.00578    CDp =  0.00312

 Side 1  free  transition at x/c =  0.5605   57
 Side 2  free  transition at x/c =  0.7301   58

 127   rms: 0.1348E-02   max: -.2453E-01   C at   57  1
       a =  3.000      CL =  0.5957
      Cm = -0.0620     CD =  0.00890   =>   CDf =  0.00578    CDp =  0.00312

 Side 1  free  transition at x/c =  0.5605   57
 Side 2  free  transition at x/c =  0.7301   58

 128   rms: 0.1347E-02   max: -.2451E-01   C at   57  1
       a =  3.000      CL =  0.5957
      Cm = -0.0620     CD =  0.00890   =>   CDf =  0.00578    CDp =  0.00312

 Side 1  free  transition at x/c =  0.5605   57
 Side 2  free  transition at x/c =  0.7301   58

 129   rms: 0.1348E-02   max: -.2453E-01   C at   57  1
       a =  3.000      CL =  0.5957
      Cm = -0.0620     CD =  0.00890   =>   CDf =  0.00578    CDp =  0.00312

 Side 1  free  transition at x/c =  0.5605   57
 Side 2  free  transition at x/c =  0.7301   58

 130   rms: 0.1347E-02   max: -.2451E-01   C at   57  1
       a =  3.000      CL =  0.5957
      Cm = -0.0620     CD =  0.00890   =>   CDf =  0.00578    CDp =  0.00312

 Side 1  free  transition at x/c =  0.5605   57
 Side 2  free  transition at x/c =  0.7301   58

 131   rms: 0.1348E-02   max: -.2453E-01   C at   57  1
       a =  3.000      CL =  0.5957
      Cm = -0.0620     CD =  0.00890   =>   CDf =  0.00578    CDp =  0.00312

 Side 1  free  transition at x/c =  0.5605   57
 Side 2  free  transition at x/c =  0.7301   58

 132   rms: 0.1347E-02   max: -.2451E-01   C at   57  1
       a =  3.000      CL =  0.5957
      Cm = -0.0620     CD =  0.00890   =>   CDf =  0.00578    CDp =  0.00312

 Side 1  free  transition at x/c =  0.5605   57
 Side 2  free  transition at x/c =  0.7301   58

 133   rms: 0.1348E-02   max: -.2452E-01   C at   57  1
       a =  3.000      CL =  0.5957
      Cm = -0.0620     CD =  0.00890   =>   CDf =  0.00578    CDp =  0.00312

 Side 1  free  transition at x/c =  0.5605   57
 Side 2  free  transition at x/c =  0.7301   58

 134   rms: 0.1347E-02   max: -.2451E-01   C at   57  1
       a =  3.000      CL =  0.5957
      Cm = -0.0620     CD =  0.00890   =>   CDf =  0.00578    CDp =  0.00312

 Side 1  free  transition at x/c =  0.5605   57
 Side 2  free  transition at x/c =  0.7301   58

[...]

 Solving BL system ...

 Side 1  free  transition at x/c =  0.0510   34
 Side 2 forced transition at x/c =  1.0000   66

   1   rms: 0.2982E-01   max: 0.1142E+00   T at   34  1
       a = 12.750      CL =  1.3510
      Cm = -0.0142     CD =  0.03319   =>   CDf =  0.00602    CDp =  0.02718

 Side 1  free  transition at x/c =  0.0499   34
 Side 2 forced transition at x/c =  1.0000   66

   2   rms: 0.3377E-02   max: -.1743E-01   D at   35  1
       a = 12.750      CL =  1.3509
      Cm = -0.0143     CD =  0.03312   =>   CDf =  0.00591    CDp =  0.02720

 Side 1  free  transition at x/c =  0.0499   34
 Side 2 forced transition at x/c =  1.0000   66

   3   rms: 0.2656E-03   max: -.1086E-02   D at   91  1
       a = 12.750      CL =  1.3511
      Cm = -0.0143     CD =  0.03312   =>   CDf =  0.00592    CDp =  0.02720

 Side 1  free  transition at x/c =  0.0499   34
 Side 2 forced transition at x/c =  1.0000   66

   4   rms: 0.1442E-05   max: 0.2061E-04   C at   66  2
       a = 12.750      CL =  1.3511
      Cm = -0.0143     CD =  0.03312   =>   CDf =  0.00592    CDp =  0.02720
 plradd ia,ip,cpol           40           0  2.31553288E-03

 Point added to stored polar  1
 Point written to save file  rae5212_Re400k.base.pol                         
 Dump file unspecified or not available
 Calculating wake trajectory ...
 Calculating source influence matrix ...

 Solving BL system ...

 Side 1  free  transition at x/c =  0.0499   34
 Side 2 forced transition at x/c =  1.0000   66

   1   rms: 0.2995E-01   max: 0.1090E+00   T at   34  1   RLX: 0.989
       a = 13.000      CL =  1.3601
      Cm = -0.0122     CD =  0.03387   =>   CDf =  0.00592    CDp =  0.02794

 Side 1  free  transition at x/c =  0.0488   34
 Side 2 forced transition at x/c =  1.0000   66

   2   rms: 0.4001E-02   max: -.2152E-01   D at   34  1
       a = 13.000      CL =  1.3600
      Cm = -0.0122     CD =  0.03379   =>   CDf =  0.00585    CDp =  0.02794

 Side 1  free  transition at x/c =  0.0489   34
 Side 2 forced transition at x/c =  1.0000   66

   3   rms: 0.3490E-03   max: -.1396E-02   D at   90  1
       a = 13.000      CL =  1.3603
      Cm = -0.0123     CD =  0.03379   =>   CDf =  0.00586    CDp =  0.02793

 Side 1  free  transition at x/c =  0.0489   34
 Side 2 forced transition at x/c =  1.0000   66

   4   rms: 0.4540E-05   max: 0.4358E-04   C at   66  2
       a = 13.000      CL =  1.3603
      Cm = -0.0123     CD =  0.03379   =>   CDf =  0.00586    CDp =  0.02793
 plradd ia,ip,cpol           41           0  1.41968334E-03

 Point added to stored polar  1
 Point written to save file  rae5212_Re400k.base.pol                         
 Dump file unspecified or not available
 Calculating wake trajectory ...
 Calculating source influence matrix ...

 Solving BL system ...

 Side 1  free  transition at x/c =  0.0489   34
 Side 2 forced transition at x/c =  1.0000   66

   1   rms: 0.3035E-01   max: 0.1084E+00   T at   34  1   RLX: 0.952
       a = 13.250      CL =  1.3691
      Cm = -0.0105     CD =  0.03452   =>   CDf =  0.00550    CDp =  0.02902

 Side 1  free  transition at x/c =  0.0480   35
 Side 2 forced transition at x/c =  1.0000   65

   2   rms: 0.3401E-02   max: -.2356E-01   D at    3  1
       a = 13.250      CL =  1.3697
      Cm = -0.0104     CD =  0.03453   =>   CDf =  0.00581    CDp =  0.02871

 Side 1  free  transition at x/c =  0.0480   35
 Side 2 forced transition at x/c =  1.0000   65

   3   rms: 0.5926E-03   max: -.6352E-02   D at    4  1
       a = 13.250      CL =  1.3699
      Cm = -0.0105     CD =  0.03453   =>   CDf =  0.00582    CDp =  0.02870

 Side 1  free  transition at x/c =  0.0480   35
 Side 2 forced transition at x/c =  1.0000   65

   4   rms: 0.6114E-05   max: 0.5078E-04   C at   65  2
       a = 13.250      CL =  1.3699
      Cm = -0.0105     CD =  0.03453   =>   CDf =  0.00582    CDp =  0.02870
 plradd ia,ip,cpol           42           0  2.31553288E-03

 Point added to stored polar  1
 Point written to save file  rae5212_Re400k.base.pol                         
 Dump file unspecified or not available
 Calculating wake trajectory ...
 Calculating source influence matrix ...

 Solving BL system ...

 Side 1  free  transition at x/c =  0.0480   35
 Side 2 forced transition at x/c =  1.0000   65

   1   rms: 0.3082E-01   max: 0.1150E+00   T at   35  1   RLX: 0.919
       a = 13.500      CL =  1.3787
      Cm = -0.0089     CD =  0.03526   =>   CDf =  0.00582    CDp =  0.02944

 Side 1  free  transition at x/c =  0.0472   35
 Side 2 forced transition at x/c =  1.0000   65

   2   rms: 0.3375E-02   max: -.2294E-01   D at   36  1
       a = 13.500      CL =  1.3798
      Cm = -0.0089     CD =  0.03540   =>   CDf =  0.00580    CDp =  0.02960

 Side 1  free  transition at x/c =  0.0470   35
 Side 2 forced transition at x/c =  1.0000   65

   3   rms: 0.3104E-03   max: 0.2318E-02   T at   35  1
       a = 13.500      CL =  1.3800
      Cm = -0.0089     CD =  0.03542   =>   CDf =  0.00582    CDp =  0.02960

 Side 1  free  transition at x/c =  0.0470   35
 Side 2 forced transition at x/c =  1.0000   65

   4   rms: 0.9844E-05   max: 0.7935E-04   C at   65  2
       a = 13.500      CL =  1.3800
      Cm = -0.0089     CD =  0.03542   =>   CDf =  0.00582    CDp =  0.02960
 plradd ia,ip,cpol           43           0  2.31553288E-03

 Point added to stored polar  1
 Point written to save file  rae5212_Re400k.base.pol                         
 Dump file unspecified or not available
 Calculating wake trajectory ...
 Calculating source influence matrix ...

 Solving BL system ...

 Side 1  free  transition at x/c =  0.0470   35
 Side 2 forced transition at x/c =  1.0000   65

   1   rms: 0.3346E-01   max: 0.1625E+00   T at   35  1   RLX: 0.890
       a = 13.750      CL =  1.3896
      Cm = -0.0077     CD =  0.03663   =>   CDf =  0.00582    CDp =  0.03081

 Side 1  free  transition at x/c =  0.0461   35
 Side 2 forced transition at x/c =  1.0000   65

   2   rms: 0.6775E-01   max: 0.2840E+00   T at   35  1
       a = 13.750      CL =  1.3907
      Cm = -0.0089     CD =  0.04104   =>   CDf =  0.00573    CDp =  0.03531

 Side 1  free  transition at x/c =  0.0448   34
 Side 2 forced transition at x/c =  1.0000   65

   3   rms: 0.2726E-01   max: -.2795E+00   D at   34  1
       a = 13.750      CL =  1.3834
      Cm = -0.0070     CD =  0.03791   =>   CDf =  0.00556    CDp =  0.03236

 Side 1  free  transition at x/c =  0.0457   34
 Side 2 forced transition at x/c =  1.0000   65

   4   rms: 0.4465E-02   max: 0.1996E-01   D at   89  1
       a = 13.750      CL =  1.3864
      Cm = -0.0073     CD =  0.03742   =>   CDf =  0.00570    CDp =  0.03172

 Side 1  free  transition at x/c =  0.0458   34
 Side 2 forced transition at x/c =  1.0000   65

   5   rms: 0.2214E-03   max: -.1163E-02   D at   89  1
       a = 13.750      CL =  1.3866
      Cm = -0.0073     CD =  0.03742   =>   CDf =  0.00570    CDp =  0.03172

 Side 1  free  transition at x/c =  0.0458   34
 Side 2 forced transition at x/c =  1.0000   65

   6   rms: 0.3154E-05   max: 0.6054E-04   C at   65  2
       a = 13.750      CL =  1.3866
      Cm = -0.0073     CD =  0.03742   =>   CDf =  0.00570    CDp =  0.03172
 plradd ia,ip,cpol           44           0  1.41968334E-03

 Point added to stored polar  1
 Point written to save file  rae5212_Re400k.base.pol                         
 Dump file unspecified or not available
 Calculating wake trajectory ...
 Calculating source influence matrix ...

 Solving BL system ...

 Side 1  free  transition at x/c =  0.0458   34
 Side 2 forced transition at x/c =  1.0000   65

   1   rms: 0.2956E-01   max: 0.1395E+00   T at   34  1   RLX: 0.845
       a = 14.000      CL =  1.3894
      Cm = -0.0055     CD =  0.03832   =>   CDf =  0.00571    CDp =  0.03262

 Side 1  free  transition at x/c =  0.0452   34
 Side 2 forced transition at x/c =  1.0000   65

   2   rms: 0.4254E-02   max: 0.2514E-01   T at   34  1
       a = 14.000      CL =  1.3896
      Cm = -0.0052     CD =  0.03853   =>   CDf =  0.00555    CDp =  0.03298

 Side 1  free  transition at x/c =  0.0450   34
 Side 2 forced transition at x/c =  1.0000   65

   3   rms: 0.1243E-03   max: 0.1005E-02   D at   86  1
       a = 14.000      CL =  1.3896
      Cm = -0.0052     CD =  0.03852   =>   CDf =  0.00553    CDp =  0.03299

 Side 1  free  transition at x/c =  0.0450   34
 Side 2 forced transition at x/c =  1.0000   65

   4   rms: 0.9435E-05   max: -.2536E-04   D at   76  2
       a = 14.000      CL =  1.3896
      Cm = -0.0052     CD =  0.03852   =>   CDf =  0.00553    CDp =  0.03299
 plradd ia,ip,cpol           45           0  1.41968334E-03

 Point added to stored polar  1
 Point written to save file  rae5212_Re400k.base.pol                         
 Dump file unspecified or not available
 Calculating wake trajectory ...
 Calculating source influence matrix ...

 Solving BL system ...

 Side 1  free  transition at x/c =  0.0450   34
 Side 2 forced transition at x/c =  1.0000   65

   1   rms: 0.2997E-01   max: 0.1364E+00   T at   34  1   RLX: 0.810
       a = 14.250      CL =  1.3925
      Cm = -0.0037     CD =  0.03955   =>   CDf =  0.00553    CDp =  0.03402

 Side 1  free  transition at x/c =  0.0442   34
 Side 2 forced transition at x/c =  1.0000   65

   2   rms: 0.5381E-02   max: 0.2183E-01   T at   34  1
       a = 14.250      CL =  1.3929
      Cm = -0.0034     CD =  0.03975   =>   CDf =  0.00539    CDp =  0.03435

 Side 1  free  transition at x/c =  0.0440   34
 Side 2 forced transition at x/c =  1.0000   65

   3   rms: 0.1173E-03   max: 0.1471E-02   D at   85  1
       a = 14.250      CL =  1.3928
      Cm = -0.0034     CD =  0.03974   =>   CDf =  0.00537    CDp =  0.03437

 Side 1  free  transition at x/c =  0.0440   34
 Side 2 forced transition at x/c =  1.0000   65

   4   rms: 0.1825E-05   max: -.4218E-04   C at   65  2
       a = 14.250      CL =  1.3928
      Cm = -0.0034     CD =  0.03974   =>   CDf =  0.00537    CDp =  0.03437
 plradd ia,ip,cpol           46           0  1.41968334E-03

 Point added to stored polar  1
 Point written to save file  rae5212_Re400k.base.pol                         
 Dump file unspecified or not available
 Calculating wake trajectory ...
 Calculating source influence matrix ...

 Solving BL system ...

 Side 1  free  transition at x/c =  0.0440   34
 Side 2 forced transition at x/c =  1.0000   65

   1   rms: 0.3014E-01   max: 0.1192E+00   T at   34  1   RLX: 0.778
       a = 14.500      CL =  1.3955
      Cm = -0.0022     CD =  0.04090   =>   CDf =  0.00537    CDp =  0.03553

 Side 1  free  transition at x/c =  0.0431   34
 Side 2 forced transition at x/c =  1.0000   65

   2   rms: 0.6430E-02   max: 0.2318E-01   D at   84  1
       a = 14.500      CL =  1.3962
      Cm = -0.0019     CD =  0.04109   =>   CDf =  0.00526    CDp =  0.03584

 Side 1  free  transition at x/c =  0.0429   34
 Side 2 forced transition at x/c =  1.0000   65

   3   rms: 0.3087E-03   max: -.1403E-02   D at   85  1
       a = 14.500      CL =  1.3963
      Cm = -0.0019     CD =  0.04106   =>   CDf =  0.00524    CDp =  0.03582

 Side 1  free  transition at x/c =  0.0429   34
 Side 2 forced transition at x/c =  1.0000   65

   4   rms: 0.2179E-04   max: 0.1415E-03   C at   65  2
       a = 14.500      CL =  1.3964
      Cm = -0.0019     CD =  0.04106   =>   CDf =  0.00524    CDp =  0.03582
 plradd ia,ip,cpol           47           0  1.41968334E-03

 Point added to stored polar  1
 Point written to save file  rae5212_Re400k.base.pol                         
 Dump file unspecified or not available
 Calculating wake trajectory ...
 Calculating source influence matrix ...

 Solving BL system ...

 Side 1  free  transition at x/c =  0.0429   34
 Side 2 forced transition at x/c =  1.0000   65

   1   rms: 0.2979E-01   max: 0.1121E+00   T at   34  1   RLX: 0.750
       a = 14.750      CL =  1.3998
      Cm = -0.0009     CD =  0.04211   =>   CDf =  0.00524    CDp =  0.03686

 Side 1  free  transition at x/c =  0.0420   34
 Side 2 forced transition at x/c =  1.0000   65

   2   rms: 0.7616E-02   max: -.2800E-01   D at   35  1
       a = 14.750      CL =  1.4011
      Cm = -0.0007     CD =  0.04231   =>   CDf =  0.00517    CDp =  0.03714

 Side 1  free  transition at x/c =  0.0418   34
 Side 2 forced transition at x/c =  1.0000   65

   3   rms: 0.3741E-03   max: -.1630E-02   D at   84  1
       a = 14.750      CL =  1.4013
      Cm = -0.0007     CD =  0.04226   =>   CDf =  0.00516    CDp =  0.03710

 Side 1  free  transition at x/c =  0.0418   34
 Side 2 forced transition at x/c =  1.0000   65

   4   rms: 0.2967E-04   max: -.1216E-03   D at   77  2
       a = 14.750      CL =  1.4013
      Cm = -0.0007     CD =  0.04226   =>   CDf =  0.00516    CDp =  0.03710
 plradd ia,ip,cpol           48           0  1.41968334E-03

 Point added to stored polar  1
 Point written to save file  rae5212_Re400k.base.pol                         
 Dump file unspecified or not available
 Calculating wake trajectory ...
 Calculating source influence matrix ...

 Solving BL system ...

 Side 1  free  transition at x/c =  0.0418   34
 Side 2 forced transition at x/c =  1.0000   65

   1   rms: 0.3028E-01   max: 0.1034E+00   T at   34  1   RLX: 0.725
       a = 15.000      CL =  1.4053
      Cm =  0.0001     CD =  0.04327   =>   CDf =  0.00475    CDp =  0.03851

 Side 1  free  transition at x/c =  0.0412   35
 Side 2 forced transition at x/c =  1.0000   64

   2   rms: 0.8700E-02   max: -.2969E-01   D at   35  1
       a = 15.000      CL =  1.4070
      Cm =  0.0003     CD =  0.04352   =>   CDf =  0.00512    CDp =  0.03840

 Side 1  free  transition at x/c =  0.0409   35
 Side 2 forced transition at x/c =  1.0000   64

   3   rms: 0.6607E-03   max: -.6417E-02   D at    4  1
       a = 15.000      CL =  1.4072
      Cm =  0.0003     CD =  0.04347   =>   CDf =  0.00512    CDp =  0.03836

 Side 1  free  transition at x/c =  0.0409   35
 Side 2 forced transition at x/c =  1.0000   64

   4   rms: 0.4261E-04   max: -.1660E-03   D at   76  2
       a = 15.000      CL =  1.4072
      Cm =  0.0003     CD =  0.04347   =>   CDf =  0.00512    CDp =  0.03836
 plradd ia,ip,cpol           49           0  1.41968334E-03

 Point added to stored polar  1
 Point written to save file  rae5212_Re400k.base.pol                         
 Dump file unspecified or not available
 Calculating wake trajectory ...
 Calculating source influence matrix ...

 Solving BL system ...

 Side 1  free  transition at x/c =  0.0409   35
 Side 2 forced transition at x/c =  1.0000   64

   1   rms: 0.3107E-01   max: 0.1120E+00   T at   35  1   RLX: 0.703
       a = 15.250      CL =  1.4118
      Cm =  0.0009     CD =  0.04435   =>   CDf =  0.00512    CDp =  0.03923

 Side 1  free  transition at x/c =  0.0403   35
 Side 2 forced transition at x/c =  1.0000   64

   2   rms: 0.9006E-02   max: 0.3778E-01   T at   35  1
       a = 15.250      CL =  1.4135
      Cm =  0.0011     CD =  0.04473   =>   CDf =  0.00511    CDp =  0.03962

 Side 1  free  transition at x/c =  0.0401   35
 Side 2 forced transition at x/c =  1.0000   64

   3   rms: 0.3132E-03   max: -.1781E-02   D at   36  1
       a = 15.250      CL =  1.4134
      Cm =  0.0011     CD =  0.04471   =>   CDf =  0.00511    CDp =  0.03960

 Side 1  free  transition at x/c =  0.0401   35
 Side 2 forced transition at x/c =  1.0000   64

   4   rms: 0.8419E-05   max: 0.1462E-03   C at   64  2
       a = 15.250      CL =  1.4134
      Cm =  0.0011     CD =  0.04471   =>   CDf =  0.00512    CDp =  0.03960
 plradd ia,ip,cpol           50           0  1.41968334E-03

 Point added to stored polar  1
 Point written to save file  rae5212_Re400k.base.pol                         
 Dump file unspecified or not available
 Calculating wake trajectory ...
 Calculating source influence matrix ...

 Solving BL system ...

 Side 1  free  transition at x/c =  0.0401   35
 Side 2 forced transition at x/c =  1.0000   64

   1   rms: 0.3088E-01   max: 0.1283E+00   T at   35  1   RLX: 0.680
       a = 15.500      CL =  1.4170
      Cm =  0.0016     CD =  0.04591   =>   CDf =  0.00512    CDp =  0.04079

 Side 1  free  transition at x/c =  0.0395   35
 Side 2 forced transition at x/c =  1.0000   64

   2   rms: 0.1249E-01   max: 0.7493E-01   T at   35  1
       a = 15.500      CL =  1.4164
      Cm =  0.0018     CD =  0.04692   =>   CDf =  0.00510    CDp =  0.04182

 Side 1  free  transition at x/c =  0.0390   34
 Side 2 forced transition at x/c =  1.0000   64

   3   rms: 0.3386E-02   max: 0.1266E-01   D at   77  2
       a = 15.500      CL =  1.4137
      Cm =  0.0019     CD =  0.04713   =>   CDf =  0.00507    CDp =  0.04206

 Side 1  free  transition at x/c =  0.0389   34
 Side 2 forced transition at x/c =  1.0000   64

   4   rms: 0.4138E-04   max: 0.3648E-03   D at   77  2
       a = 15.500      CL =  1.4137
      Cm =  0.0019     CD =  0.04712   =>   CDf =  0.00507    CDp =  0.04205
 plradd ia,ip,cpol           51           0  1.41968334E-03

 Point added to stored polar  1
 Point written to save file  rae5212_Re400k.base.pol                         
 Dump file unspecified or not available
 Calculating wake trajectory ...
 Calculating source influence matrix ...

 Solving BL system ...

 Side 1  free  transition at x/c =  0.0389   34
 Side 2 forced transition at x/c =  1.0000   64

   1   rms: 0.3226E-01   max: 0.1364E+00   T at   34  1   RLX: 0.650
       a = 15.750      CL =  1.4132
      Cm =  0.0024     CD =  0.04877   =>   CDf =  0.00508    CDp =  0.04369

 Side 1  free  transition at x/c =  0.0385   34
 Side 2 forced transition at x/c =  1.0000   64

   2   rms: 0.1191E-01   max: 0.5004E-01   D at   79  1
       a = 15.750      CL =  1.4116
      Cm =  0.0026     CD =  0.04969   =>   CDf =  0.00494    CDp =  0.04475

 Side 1  free  transition at x/c =  0.0383   34
 Side 2 forced transition at x/c =  1.0000   64

   3   rms: 0.9952E-03   max: 0.5723E-02   D at   78  1
       a = 15.750      CL =  1.4108
      Cm =  0.0026     CD =  0.04961   =>   CDf =  0.00486    CDp =  0.04476

 Side 1  free  transition at x/c =  0.0383   34
 Side 2 forced transition at x/c =  1.0000   64

   4   rms: 0.1901E-04   max: 0.2020E-03   D at   78  2
       a = 15.750      CL =  1.4108
      Cm =  0.0026     CD =  0.04961   =>   CDf =  0.00486    CDp =  0.04475
 plradd ia,ip,cpol           52           0  7.50070496E-04

 Point added to stored polar  1
 Point written to save file  rae5212_Re400k.base.pol                         
 Dump file unspecified or not available
 Calculating wake trajectory ...
 Calculating source influence matrix ...

 Solving BL system ...

 Side 1  free  transition at x/c =  0.0383   34
 Side 2 forced transition at x/c =  1.0000   64

   1   rms: 0.3403E-01   max: 0.1413E+00   T at   34  1   RLX: 0.623
       a = 16.000      CL =  1.4091
      Cm =  0.0028     CD =  0.05147   =>   CDf =  0.00486    CDp =  0.04661

 Side 1  free  transition at x/c =  0.0377   34
 Side 2 forced transition at x/c =  1.0000   64

   2   rms: 0.1249E-01   max: 0.4827E-01   D at   77  1
       a = 16.000      CL =  1.4077
      Cm =  0.0028     CD =  0.05245   =>   CDf =  0.00473    CDp =  0.04772

 Side 1  free  transition at x/c =  0.0373   34
 Side 2 forced transition at x/c =  1.0000   64

   3   rms: 0.8051E-03   max: 0.6373E-02   D at   78  2
       a = 16.000      CL =  1.4072
      Cm =  0.0029     CD =  0.05232   =>   CDf =  0.00466    CDp =  0.04766

 Side 1  free  transition at x/c =  0.0373   34
 Side 2 forced transition at x/c =  1.0000   64

   4   rms: 0.3785E-04   max: -.1138E-03   D at   74  1
       a = 16.000      CL =  1.4072
      Cm =  0.0029     CD =  0.05231   =>   CDf =  0.00466    CDp =  0.04765
 plradd ia,ip,cpol           53           0  1.41968334E-03

 Point added to stored polar  1
 Point written to save file  rae5212_Re400k.base.pol                         
 Dump file unspecified or not available

.OPERva   c>  
 Polar accumulation disabled

.OPERv   c>  
 XFOIL   c>  
 XFOIL   c>  