
 ===================================================
  XFOIL Version 6.99
  Copyright (C) 2000   Mark Drela, Harold Youngren

  This software comes with ABSOLUTELY NO WARRANTY,
    subject to the GNU General Public License.

  Caveat computor
 ===================================================

 File  xfoil.def  not found

   QUIT    Exit program

  .OPER    Direct operating point(s)
  .MDES    Complex mapping design routine
  .QDES    Surface speed design routine
  .GDES    Geometry design routine

   SAVE f  Write airfoil to labeled coordinate file
   PSAV f  Write airfoil to plain coordinate file
   ISAV f  Write airfoil to ISES coordinate file
   MSAV f  Write airfoil to MSES coordinate file
   REVE    Reverse written-airfoil node ordering

   LOAD f  Read buffer airfoil from coordinate file
   NACA i  Set NACA 4,5-digit airfoil and buffer airfoil
   INTE    Set buffer airfoil by interpolating two airfoils
   NORM    Buffer airfoil normalization toggle
   XYCM rr Change CM reference location, currently  0.25000 0.00000

   BEND    Display structural properties of current airfoil

   PCOP    Set current-airfoil panel nodes directly from buffer airfoil points
   PANE    Set current-airfoil panel nodes ( 160 ) based on curvature
  .PPAR    Show/change paneling

  .PLOP    Plotting options

   WDEF f  Write  current-settings file
   RDEF f  Reread current-settings file
   NAME s  Specify new airfoil name
   NINC    Increment name version number

   Z       Zoom    | (available in all menus)
   U       Unzoom  | 

 XFOIL   c>  
 Labeled airfoil file.  Name:  RAF 30 AIRFOIL                                  

 Number of input coordinate points:  31
 Counterclockwise ordering
 Max thickness =     0.126400  at x =   0.300
 Max camber    =    -0.000000  at x =   0.050

  LE  x,y  =   0.00000   0.00000  |   Chord =   1.00000
  TE  x,y  =   1.00000   0.00000  |

 Current airfoil nodes set from buffer airfoil nodes (  31 )

 WARNING: Poor input coordinate distribution
          Excessive panel angle   69.6  at i =  16
          Repaneling with PANE and/or PPAR suggested
           (doing GDES,CADD before repaneling _may_
            improve excessively coarse LE spacing

 XFOIL   c>  
 XFOIL   c>  
 Sharp trailing edge

 Paneling parameters used...
   Number of panel nodes       160
   Panel bunching parameter    1.000
   TE/LE panel density ratio   0.150
   Refined-area/LE panel density ratio    0.200
   Top    side refined area x/c limits  1.000 1.000
   Bottom side refined area x/c limits  1.000 1.000

 XFOIL   c>  
.OPERi   c>  
 Xtr/c     =  1.0000    top    side
 Xtr/c     =  1.0000    bottom side
 Ncrit     =    9.00   ( 0.070 % turb. level )
 Vacc      =  0.0100

 Klag  =  5.6000     Uxwt  =    1.00
 A     =  6.7000     B     =  0.7500       KCt = 0.01485
 CtiniK=  1.8000     CtiniX=  3.3000

..VPAR   c>  
..VPAR   c>  
.OPERi   c>  
 M  =    0.0000
 Re =    600000

.OPERv   c>  
.OPERv   c>  
.OPERv   c>  
 Polar  1 newly created for accumulation
 Airfoil archived with polar: RAF 30 AIRFOIL                                  

Enter  polar save filename  OR  <return> for no file   s>  
 New polar save file available

Enter  polar dump filename  OR  <return> for no file   s>  
 Polar dump file will NOT be written

 Polar accumulation enabled

.OPERva   c>   Calculating unit vorticity distributions ...
 Calculating wake trajectory ...
 Calculating source influence matrix ...

 Solving BL system ...

 Initializing BL ...
    side            1  ...
 MRCHUE: Inverse mode at  57     Hk =   4.374
 MRCHUE: Inverse mode at  58     Hk =   4.985
 MRCHUE: Inverse mode at  59     Hk =   5.588
 MRCHUE: Inverse mode at  60     Hk =   6.185
 MRCHUE: Inverse mode at  61     Hk =   6.776
 MRCHUE: Inverse mode at  62     Hk =   7.362
 MRCHUE: Inverse mode at  63     Hk =   7.942
 MRCHUE: Inverse mode at  64     Hk =   6.081
 MRCHUE: Inverse mode at  65     Hk =   4.056
 MRCHUE: Inverse mode at  66     Hk =   2.688
    side            2  ...
 MRCHUE: Inverse mode at  20     Hk =   4.187
 MRCHUE: Inverse mode at  21     Hk =   5.578
 MRCHUE: Inverse mode at  22     Hk =   7.034
 MRCHUE: Inverse mode at  23     Hk =   8.587
 MRCHUE: Inverse mode at  24     Hk =  10.236
 MRCHUE: Inverse mode at  25     Hk =   2.500
 MRCHUE: Inverse mode at  86     Hk =   2.500
 MRCHUE: Inverse mode at  87     Hk =   2.500

 Side 1  free  transition at x/c =  0.8390   64
 Side 2  free  transition at x/c =  0.0517   25

   1   rms: 0.3528E+00   max: -.2880E+01   D at   25  2   RLX: 0.174
       a = -4.000      CL = -0.4684
      Cm =  0.0055     CD =  0.00812   =>   CDf =  0.00704    CDp =  0.00109

 Side 1  free  transition at x/c =  0.8455   64
 Side 2  free  transition at x/c =  0.0629   26

   2   rms: 0.3675E+00   max: -.3613E+01   C at   26  2   RLX: 0.138
       a = -4.000      CL = -0.4567
      Cm =  0.0025     CD =  0.00833   =>   CDf =  0.00713    CDp =  0.00119

 Side 1  free  transition at x/c =  0.8517   65
 Side 2  free  transition at x/c =  0.1876   35

   3   rms: 0.3607E+00   max: -.5733E+01   C at   35  2   RLX: 0.087
       a = -4.000      CL = -0.4572
      Cm =  0.0007     CD =  0.00754   =>   CDf =  0.00640    CDp =  0.00114

 Side 1  free  transition at x/c =  0.8545   65
 Side 2  free  transition at x/c =  0.2158   36

   4   rms: 0.9705E+00   max: -.2203E+02   C at   36  2   RLX: 0.023
       a = -4.000      CL = -0.4561
      Cm =  0.0006     CD =  0.00749   =>   CDf =  0.00619    CDp =  0.00129

 Side 1  free  transition at x/c =  0.8553   65
 Side 2  free  transition at x/c =  0.2269   37

   5   rms: 0.1007E+01   max: -.2290E+02   C at   37  2   RLX: 0.022
       a = -4.000      CL = -0.4557
      Cm =  0.0004     CD =  0.00744   =>   CDf =  0.00613    CDp =  0.00131

 Side 1  free  transition at x/c =  0.8560   65
 Side 2  free  transition at x/c =  0.2369   38

   6   rms: 0.7886E+00   max: -.1740E+02   C at   38  2   RLX: 0.029
       a = -4.000      CL = -0.4548
      Cm =  0.0002     CD =  0.00739   =>   CDf =  0.00607    CDp =  0.00132

 Side 1  free  transition at x/c =  0.8571   65
 Side 2  free  transition at x/c =  0.2471   38

   7   rms: 0.5419E+00   max: -.1204E+02   C at   38  2   RLX: 0.042
       a = -4.000      CL = -0.4525
      Cm = -0.0002     CD =  0.00740   =>   CDf =  0.00603    CDp =  0.00137

 Side 1  free  transition at x/c =  0.8586   65
 Side 2  free  transition at x/c =  0.2661   40

   8   rms: 0.4987E+00   max: -.1028E+02   C at   40  2   RLX: 0.049
       a = -4.000      CL = -0.4514
      Cm = -0.0007     CD =  0.00731   =>   CDf =  0.00593    CDp =  0.00139

 Side 1  free  transition at x/c =  0.8605   65
 Side 2  free  transition at x/c =  0.2766   40

   9   rms: 0.2673E+00   max: -.5384E+01   C at   40  2   RLX: 0.093
       a = -4.000      CL = -0.4454
      Cm = -0.0018     CD =  0.00736   =>   CDf =  0.00588    CDp =  0.00148

 Side 1  free  transition at x/c =  0.8641   65
 Side 2  free  transition at x/c =  0.3017   42

  10   rms: 0.2502E+00   max: -.4810E+01   C at   42  2   RLX: 0.104
       a = -4.000      CL = -0.4406
      Cm = -0.0030     CD =  0.00731   =>   CDf =  0.00576    CDp =  0.00155

 Side 1  free  transition at x/c =  0.8685   66
 Side 2  free  transition at x/c =  0.3102   43

  11   rms: 0.1540E+00   max: -.1754E+01   C at   43  2   RLX: 0.285
       a = -4.000      CL = -0.4359
      Cm = -0.0040     CD =  0.00715   =>   CDf =  0.00572    CDp =  0.00143

 Side 1  free  transition at x/c =  0.8789   66
 Side 2  free  transition at x/c =  0.3220   43

  12   rms: 0.9062E-01   max: -.1028E+01   C at   43  2   RLX: 0.486
       a = -4.000      CL = -0.4128
      Cm = -0.0087     CD =  0.00752   =>   CDf =  0.00561    CDp =  0.00190

 Side 1  free  transition at x/c =  0.9070   68
 Side 2  free  transition at x/c =  0.3447   45

  13   rms: 0.6854E-01   max: -.7208E+00   C at   68  1   RLX: 0.694
       a = -4.000      CL = -0.4267
      Cm = -0.0061     CD =  0.00753   =>   CDf =  0.00533    CDp =  0.00221

 Side 1  free  transition at x/c =  0.9147   69
 Side 2  free  transition at x/c =  0.3559   45

  14   rms: 0.4085E-01   max: -.4936E+00   C at   69  1
       a = -4.000      CL = -0.4104
      Cm = -0.0097     CD =  0.00760   =>   CDf =  0.00526    CDp =  0.00234

 Side 1  free  transition at x/c =  0.9298   69
 Side 2  free  transition at x/c =  0.3712   46

  15   rms: 0.2469E-01   max: -.2825E+00   D at   69  1
       a = -4.000      CL = -0.3958
      Cm = -0.0129     CD =  0.00758   =>   CDf =  0.00517    CDp =  0.00241

 MRCHDU: Convergence failed at  72  side 1    Res =  0.1612E+01
 MRCHDU: Convergence failed at  73  side 1    Res =  0.1564E+01
 MRCHDU: Convergence failed at  74  side 1    Res =  0.2021E+01
 MRCHDU: Convergence failed at  75  side 1    Res =  0.2969E+01
 Side 1  free  transition at x/c =  0.9631   72
 Side 2  free  transition at x/c =  0.3777   47

  16   rms: 0.8172E-01   max: 0.6358E+00   T at   75  1
       a = -4.000      CL = -0.4278
      Cm = -0.0059     CD =  0.00757   =>   CDf =  0.00502    CDp =  0.00254

 Side 1  free  transition at x/c =  0.9195   69
 Side 2  free  transition at x/c =  0.3637   46

  17   rms: 0.3902E-01   max: 0.4301E+00   D at   71  1
       a = -4.000      CL = -0.4100
      Cm = -0.0099     CD =  0.00769   =>   CDf =  0.00516    CDp =  0.00252

 Side 1  free  transition at x/c =  0.9363   70
 Side 2  free  transition at x/c =  0.3706   46

  18   rms: 0.1244E-01   max: 0.1126E+00   C at   70  1
       a = -4.000      CL = -0.4193
      Cm = -0.0077     CD =  0.00769   =>   CDf =  0.00509    CDp =  0.00260

 Side 1  free  transition at x/c =  0.9317   70
 Side 2  free  transition at x/c =  0.3680   46

  19   rms: 0.1008E-02   max: -.1002E-01   D at   75  1
       a = -4.000      CL = -0.4200
      Cm = -0.0076     CD =  0.00770   =>   CDf =  0.00510    CDp =  0.00259

 Side 1  free  transition at x/c =  0.9314   70
 Side 2  free  transition at x/c =  0.3678   46

  20   rms: 0.9170E-05   max: 0.1074E-03   D at   74  1
       a = -4.000      CL = -0.4200
      Cm = -0.0076     CD =  0.00770   =>   CDf =  0.00511    CDp =  0.00259
 plradd ia,ip,cpol            1           0  1.41274836E-02

 Point added to stored polar  1
 Point written to save file  raf30_Re600k.base.pol                           
 Dump file unspecified or not available
 Calculating wake trajectory ...
 Calculating source influence matrix ...

 Solving BL system ...

 Side 1  free  transition at x/c =  0.9314   70
 Side 2  free  transition at x/c =  0.3678   46

   1   rms: 0.1371E+00   max: -.1927E+01   C at   46  2   RLX: 0.259
       a = -3.500      CL = -0.4005
      Cm = -0.0087     CD =  0.00756   =>   CDf =  0.00511    CDp =  0.00245

 Side 1  free  transition at x/c =  0.9268   69
 Side 2  free  transition at x/c =  0.3840   47

   2   rms: 0.8893E-01   max: -.1276E+01   C at   47  2   RLX: 0.392
       a = -3.500      CL = -0.3840
      Cm = -0.0088     CD =  0.00741   =>   CDf =  0.00506    CDp =  0.00236

 Side 1  free  transition at x/c =  0.9154   69
 Side 2  free  transition at x/c =  0.4014   48

   3   rms: 0.5603E-01   max: -.7671E+00   C at   48  2   RLX: 0.652
       a = -3.500      CL = -0.3647
      Cm = -0.0093     CD =  0.00731   =>   CDf =  0.00509    CDp =  0.00222

 Side 1  free  transition at x/c =  0.9091   69
 Side 2  free  transition at x/c =  0.4236   49

   4   rms: 0.1964E-01   max: -.2867E+00   C at   49  2
       a = -3.500      CL = -0.3592
      Cm = -0.0087     CD =  0.00719   =>   CDf =  0.00496    CDp =  0.00223

 Side 1  free  transition at x/c =  0.9016   69
 Side 2  free  transition at x/c =  0.4322   49

   5   rms: 0.4353E-02   max: -.7268E-01   C at   49  2
       a = -3.500      CL = -0.3582
      Cm = -0.0089     CD =  0.00720   =>   CDf =  0.00496    CDp =  0.00224

 Side 1  free  transition at x/c =  0.9028   69
 Side 2  free  transition at x/c =  0.4342   49

   6   rms: 0.7237E-04   max: -.6156E-03   D at   71  1
       a = -3.500      CL = -0.3582
      Cm = -0.0089     CD =  0.00720   =>   CDf =  0.00495    CDp =  0.00226
 plradd ia,ip,cpol            2           0  1.41274836E-02

 Point added to stored polar  1
 Point written to save file  raf30_Re600k.base.pol                           
 Dump file unspecified or not available
 Calculating wake trajectory ...
 Calculating source influence matrix ...

 Solving BL system ...

 Side 1  free  transition at x/c =  0.9028   69
 Side 2  free  transition at x/c =  0.4342   49

   1   rms: 0.1142E+00   max: -.1381E+01   C at   49  2   RLX: 0.362
       a = -3.000      CL = -0.3361
      Cm = -0.0092     CD =  0.00711   =>   CDf =  0.00495    CDp =  0.00216

 Side 1  free  transition at x/c =  0.8928   68
 Side 2  free  transition at x/c =  0.4635   51

   2   rms: 0.5661E-01   max: 0.1836E+00   D at   52  2
       a = -3.000      CL = -0.3039
      Cm = -0.0083     CD =  0.00703   =>   CDf =  0.00496    CDp =  0.00207

 Side 1  free  transition at x/c =  0.8695   68
 Side 2  free  transition at x/c =  0.5182   54

   3   rms: 0.2168E-01   max: 0.2870E+00   C at   54  2
       a = -3.000      CL = -0.3061
      Cm = -0.0079     CD =  0.00686   =>   CDf =  0.00479    CDp =  0.00207

 Side 1  free  transition at x/c =  0.8725   68
 Side 2  free  transition at x/c =  0.5025   53

   4   rms: 0.3597E-02   max: -.4197E-01   D at   53  2
       a = -3.000      CL = -0.3060
      Cm = -0.0080     CD =  0.00688   =>   CDf =  0.00481    CDp =  0.00207

 Side 1  free  transition at x/c =  0.8718   68
 Side 2  free  transition at x/c =  0.5000   53

   5   rms: 0.2293E-03   max: -.3528E-02   C at   53  2
       a = -3.000      CL = -0.3060
      Cm = -0.0080     CD =  0.00688   =>   CDf =  0.00483    CDp =  0.00205

 Side 1  free  transition at x/c =  0.8718   68
 Side 2  free  transition at x/c =  0.5001   53

   6   rms: 0.2011E-04   max: 0.2456E-03   D at    4  1
       a = -3.000      CL = -0.3060
      Cm = -0.0080     CD =  0.00688   =>   CDf =  0.00483    CDp =  0.00206
 plradd ia,ip,cpol            3           0  1.41274836E-02

 Point added to stored polar  1
 Point written to save file  raf30_Re600k.base.pol                           
 Dump file unspecified or not available
 Calculating wake trajectory ...
 Calculating source influence matrix ...

 Solving BL system ...

 Side 1  free  transition at x/c =  0.8718   68
 Side 2  free  transition at x/c =  0.5001   53

   1   rms: 0.1852E+00   max: -.2225E+01   T at    2  1   RLX: 0.225
       a = -2.500      CL = -0.2948
      Cm = -0.0076     CD =  0.00682   =>   CDf =  0.00483    CDp =  0.00199

 Side 1  free  transition at x/c =  0.8652   67
 Side 2  free  transition at x/c =  0.5095   53

   2   rms: 0.7060E-01   max: -.5905E+00   C at   53  2   RLX: 0.847
       a = -2.500      CL = -0.2616
      Cm = -0.0067     CD =  0.00676   =>   CDf =  0.00484    CDp =  0.00192

 Side 1  free  transition at x/c =  0.8392   66
 Side 2  free  transition at x/c =  0.5410   55

   3   rms: 0.1676E-01   max: -.1960E+00   D at   66  1
       a = -2.500      CL = -0.2556
      Cm = -0.0065     CD =  0.00672   =>   CDf =  0.00485    CDp =  0.00187

 Side 1  free  transition at x/c =  0.8419   66
 Side 2  free  transition at x/c =  0.5458   56

   4   rms: 0.5365E-02   max: -.7271E-01   C at   56  2
       a = -2.500      CL = -0.2555
      Cm = -0.0065     CD =  0.00673   =>   CDf =  0.00482    CDp =  0.00191

 Side 1  free  transition at x/c =  0.8406   66
 Side 2  free  transition at x/c =  0.5471   56

   5   rms: 0.2251E-03   max: -.3379E-02   D at   57  2
       a = -2.500      CL = -0.2555
      Cm = -0.0065     CD =  0.00673   =>   CDf =  0.00481    CDp =  0.00192

 Side 1  free  transition at x/c =  0.8405   66
 Side 2  free  transition at x/c =  0.5470   56

   6   rms: 0.9235E-06   max: -.8348E-05   C at   56  2
       a = -2.500      CL = -0.2555
      Cm = -0.0065     CD =  0.00673   =>   CDf =  0.00481    CDp =  0.00192
 plradd ia,ip,cpol            4           0  1.78786702E-02

 Point added to stored polar  1
 Point written to save file  raf30_Re600k.base.pol                           
 Dump file unspecified or not available
 Calculating wake trajectory ...
 Calculating source influence matrix ...

 Solving BL system ...

 Side 1  free  transition at x/c =  0.8405   66
 Side 2  free  transition at x/c =  0.5470   56

   1   rms: 0.1043E+00   max: -.9109E+00   C at   56  2   RLX: 0.549
       a = -2.000      CL = -0.2292
      Cm = -0.0055     CD =  0.00662   =>   CDf =  0.00486    CDp =  0.00176

 Side 1  free  transition at x/c =  0.8209   66
 Side 2  free  transition at x/c =  0.5612   55

   2   rms: 0.4785E-01   max: -.2784E+00   D at   66  1
       a = -2.000      CL = -0.2026
      Cm = -0.0055     CD =  0.00685   =>   CDf =  0.00496    CDp =  0.00189

 Side 1  free  transition at x/c =  0.8091   65
 Side 2  free  transition at x/c =  0.5956   58

   3   rms: 0.1222E-01   max: 0.1739E+00   C at   58  2
       a = -2.000      CL = -0.2054
      Cm = -0.0050     CD =  0.00666   =>   CDf =  0.00480    CDp =  0.00186

 Side 1  free  transition at x/c =  0.8081   65
 Side 2  free  transition at x/c =  0.5890   57

   4   rms: 0.1635E-02   max: -.2920E-01   D at   59  2
       a = -2.000      CL = -0.2059
      Cm = -0.0049     CD =  0.00663   =>   CDf =  0.00481    CDp =  0.00182

 Side 1  free  transition at x/c =  0.8081   65
 Side 2  free  transition at x/c =  0.5880   57

   5   rms: 0.3733E-04   max: -.6652E-03   C at   57  2
       a = -2.000      CL = -0.2059
      Cm = -0.0049     CD =  0.00663   =>   CDf =  0.00482    CDp =  0.00182
 plradd ia,ip,cpol            5           0  6.17109649E-02

 Point added to stored polar  1
 Point written to save file  raf30_Re600k.base.pol                           
 Dump file unspecified or not available
 Calculating wake trajectory ...
 Calculating source influence matrix ...

 Solving BL system ...

 Side 1  free  transition at x/c =  0.8081   65
 Side 2  free  transition at x/c =  0.5880   57

   1   rms: 0.9326E-01   max: -.5264E+00   C at   57  2   RLX: 0.950
       a = -1.500      CL = -0.1576
      Cm = -0.0036     CD =  0.00661   =>   CDf =  0.00486    CDp =  0.00175

 Side 1  free  transition at x/c =  0.7835   64
 Side 2  free  transition at x/c =  0.6172   58

   2   rms: 0.2249E-01   max: -.2696E+00   D at   65  1
       a = -1.500      CL = -0.1556
      Cm = -0.0034     CD =  0.00653   =>   CDf =  0.00485    CDp =  0.00168

 Side 1  free  transition at x/c =  0.7829   64
 Side 2  free  transition at x/c =  0.6246   58

   3   rms: 0.5446E-02   max: -.7818E-01   C at   58  2
       a = -1.500      CL = -0.1551
      Cm = -0.0035     CD =  0.00658   =>   CDf =  0.00484    CDp =  0.00174

 Side 1  free  transition at x/c =  0.7818   64
 Side 2  free  transition at x/c =  0.6265   59

   4   rms: 0.3831E-02   max: -.5455E-01   C at   59  2
       a = -1.500      CL = -0.1554
      Cm = -0.0035     CD =  0.00656   =>   CDf =  0.00483    CDp =  0.00173

 Side 1  free  transition at x/c =  0.7818   64
 Side 2  free  transition at x/c =  0.6269   59

   5   rms: 0.1841E-03   max: 0.2590E-02   C at   59  2
       a = -1.500      CL = -0.1554
      Cm = -0.0035     CD =  0.00656   =>   CDf =  0.00481    CDp =  0.00175

 Side 1  free  transition at x/c =  0.7818   64
 Side 2  free  transition at x/c =  0.6268   59

   6   rms: 0.5326E-06   max: -.3185E-05   D at   60  2
       a = -1.500      CL = -0.1554
      Cm = -0.0035     CD =  0.00656   =>   CDf =  0.00481    CDp =  0.00175
 plradd ia,ip,cpol            6           0  7.33276829E-02

 Point added to stored polar  1
 Point written to save file  raf30_Re600k.base.pol                           
 Dump file unspecified or not available
 Calculating wake trajectory ...
 Calculating source influence matrix ...

 Solving BL system ...

 Side 1  free  transition at x/c =  0.7818   64
 Side 2  free  transition at x/c =  0.6268   59

   1   rms: 0.9472E-01   max: -.6148E+00   C at   59  2   RLX: 0.813
       a = -1.000      CL = -0.1152
      Cm = -0.0021     CD =  0.00640   =>   CDf =  0.00481    CDp =  0.00159

 Side 1  free  transition at x/c =  0.7582   63
 Side 2  free  transition at x/c =  0.6411   60

   2   rms: 0.5403E-01   max: -.5507E+00   C at   60  2   RLX: 0.908
       a = -1.000      CL = -0.1006
      Cm = -0.0033     CD =  0.00625   =>   CDf =  0.00508    CDp =  0.00117

 Side 1  free  transition at x/c =  0.7570   64
 Side 2  free  transition at x/c =  0.6690   60

   3   rms: 0.2753E-01   max: 0.5257E+00   C at   60  2
       a = -1.000      CL = -0.1041
      Cm = -0.0022     CD =  0.00650   =>   CDf =  0.00472    CDp =  0.00179

 Side 1  free  transition at x/c =  0.7563   64
 Side 2  free  transition at x/c =  0.6596   60

   4   rms: 0.2933E-02   max: -.5096E-01   D at   62  2
       a = -1.000      CL = -0.1043
      Cm = -0.0021     CD =  0.00651   =>   CDf =  0.00480    CDp =  0.00172

 Side 1  free  transition at x/c =  0.7563   64
 Side 2  free  transition at x/c =  0.6588   60

   5   rms: 0.6264E-04   max: -.1287E-02   D at   62  2
       a = -1.000      CL = -0.1043
      Cm = -0.0021     CD =  0.00652   =>   CDf =  0.00481    CDp =  0.00171
 plradd ia,ip,cpol            7           0  7.33276829E-02

 Point added to stored polar  1
 Point written to save file  raf30_Re600k.base.pol                           
 Dump file unspecified or not available
 Calculating wake trajectory ...
 Calculating source influence matrix ...

 Solving BL system ...

 Side 1  free  transition at x/c =  0.7563   64
 Side 2  free  transition at x/c =  0.6588   60

   1   rms: 0.9268E-01   max: -.4702E+00   C at   60  2
       a = -0.500      CL = -0.0535
      Cm = -0.0007     CD =  0.00645   =>   CDf =  0.00481    CDp =  0.00164

 Side 1  free  transition at x/c =  0.7322   62
 Side 2  free  transition at x/c =  0.6717   60

   2   rms: 0.2313E-01   max: -.3050E+00   D at   60  2
       a = -0.500      CL = -0.0517
      Cm = -0.0012     CD =  0.00662   =>   CDf =  0.00503    CDp =  0.00159

 Side 1  free  transition at x/c =  0.7321   62
 Side 2  free  transition at x/c =  0.6893   62

   3   rms: 0.6699E-02   max: -.8360E-01   D at   61  2
       a = -0.500      CL = -0.0521
      Cm = -0.0011     CD =  0.00652   =>   CDf =  0.00482    CDp =  0.00170

 Side 1  free  transition at x/c =  0.7317   62
 Side 2  free  transition at x/c =  0.6848   61

   4   rms: 0.1687E-02   max: -.2522E-01   D at   63  2
       a = -0.500      CL = -0.0523
      Cm = -0.0010     CD =  0.00648   =>   CDf =  0.00481    CDp =  0.00168

 Side 1  free  transition at x/c =  0.7317   62
 Side 2  free  transition at x/c =  0.6837   61

   5   rms: 0.7069E-04   max: -.1183E-02   C at   61  2
       a = -0.500      CL = -0.0523
      Cm = -0.0010     CD =  0.00649   =>   CDf =  0.00481    CDp =  0.00168
 plradd ia,ip,cpol            8           0  0.18684922    

 Point added to stored polar  1
 Point written to save file  raf30_Re600k.base.pol                           
 Dump file unspecified or not available
 Calculating wake trajectory ...
 Calculating source influence matrix ...

 Solving BL system ...

 Side 1  free  transition at x/c =  0.7317   62
 Side 2  free  transition at x/c =  0.6838   61

   1   rms: 0.8327E-01   max: -.2761E+00   C at   61  2
       a =  0.000      CL =  0.0003
      Cm = -0.0001     CD =  0.00648   =>   CDf =  0.00482    CDp =  0.00166

 Side 1  free  transition at x/c =  0.7043   61
 Side 2  free  transition at x/c =  0.7041   61

   2   rms: 0.1846E-01   max: -.3584E+00   D at   62  1
       a =  0.000      CL = -0.0002
      Cm =  0.0001     CD =  0.00651   =>   CDf =  0.00489    CDp =  0.00162

 Side 1  free  transition at x/c =  0.7091   62
 Side 2  free  transition at x/c =  0.7069   62

   3   rms: 0.5272E-02   max: -.6370E-01   C at   62  2
       a =  0.000      CL = -0.0000
      Cm =  0.0000     CD =  0.00649   =>   CDf =  0.00485    CDp =  0.00164

 Side 1  free  transition at x/c =  0.7074   62
 Side 2  free  transition at x/c =  0.7075   62

   4   rms: 0.3118E-03   max: 0.3444E-02   C at   62  1
       a =  0.000      CL = -0.0000
      Cm =  0.0000     CD =  0.00649   =>   CDf =  0.00483    CDp =  0.00166

 Side 1  free  transition at x/c =  0.7073   62
 Side 2  free  transition at x/c =  0.7074   62

   5   rms: 0.2202E-05   max: -.2751E-04   D at   63  2
       a =  0.000      CL = -0.0000
      Cm =  0.0000     CD =  0.00649   =>   CDf =  0.00483    CDp =  0.00166
 plradd ia,ip,cpol            9           0  0.20180291    

 Point added to stored polar  1
 Point written to save file  raf30_Re600k.base.pol                           
 Dump file unspecified or not available
 Calculating wake trajectory ...
 Calculating source influence matrix ...

 Solving BL system ...

 Side 1  free  transition at x/c =  0.7073   62
 Side 2  free  transition at x/c =  0.7074   62

   1   rms: 0.8917E-01   max: -.4269E+00   C at   62  2
       a =  0.500      CL =  0.0514
      Cm =  0.0013     CD =  0.00649   =>   CDf =  0.00482    CDp =  0.00167

 Side 1  free  transition at x/c =  0.6847   61
 Side 2  free  transition at x/c =  0.7220   62

   2   rms: 0.4027E-01   max: -.3744E+00   T at   62  2
       a =  0.500      CL =  0.0539
      Cm =  0.0006     CD =  0.00636   =>   CDf =  0.00498    CDp =  0.00138

 Side 1  free  transition at x/c =  0.6842   61
 Side 2  free  transition at x/c =  0.7339   62

   3   rms: 0.1175E-01   max: -.1899E+00   C at   62  2
       a =  0.500      CL =  0.0523
      Cm =  0.0010     CD =  0.00647   =>   CDf =  0.00484    CDp =  0.00163

 Side 1  free  transition at x/c =  0.6838   61
 Side 2  free  transition at x/c =  0.7318   62

   4   rms: 0.2419E-03   max: -.3342E-02   D at   63  2
       a =  0.500      CL =  0.0522
      Cm =  0.0010     CD =  0.00648   =>   CDf =  0.00481    CDp =  0.00168

 Side 1  free  transition at x/c =  0.6838   61
 Side 2  free  transition at x/c =  0.7318   62

   5   rms: 0.8424E-06   max: -.7522E-05   C at   61  1
       a =  0.500      CL =  0.0522
      Cm =  0.0010     CD =  0.00648   =>   CDf =  0.00481    CDp =  0.00168
 plradd ia,ip,cpol           10           0  0.18684942    

 Point added to stored polar  1
 Point written to save file  raf30_Re600k.base.pol                           
 Dump file unspecified or not available
 Calculating wake trajectory ...
 Calculating source influence matrix ...

 Solving BL system ...

 Side 1  free  transition at x/c =  0.6838   61
 Side 2  free  transition at x/c =  0.7318   62

   1   rms: 0.8311E-01   max: -.2741E+00   C at   62  2
       a =  1.000      CL =  0.1048
      Cm =  0.0020     CD =  0.00650   =>   CDf =  0.00479    CDp =  0.00171

 Side 1  free  transition at x/c =  0.6556   60
 Side 2  free  transition at x/c =  0.7525   62

   2   rms: 0.2250E-01   max: -.3840E+00   D at   61  1
       a =  1.000      CL =  0.1041
      Cm =  0.0022     CD =  0.00655   =>   CDf =  0.00492    CDp =  0.00163

 Side 1  free  transition at x/c =  0.6606   61
 Side 2  free  transition at x/c =  0.7581   63

   3   rms: 0.4193E-02   max: -.4259E-01   D at   60  1
       a =  1.000      CL =  0.1043
      Cm =  0.0021     CD =  0.00652   =>   CDf =  0.00480    CDp =  0.00172

 Side 1  free  transition at x/c =  0.6590   61
 Side 2  free  transition at x/c =  0.7565   63

   4   rms: 0.3329E-03   max: 0.3890E-02   C at   63  2
       a =  1.000      CL =  0.1043
      Cm =  0.0021     CD =  0.00652   =>   CDf =  0.00480    CDp =  0.00171

 Side 1  free  transition at x/c =  0.6589   61
 Side 2  free  transition at x/c =  0.7564   63

   5   rms: 0.1073E-05   max: -.9496E-05   D at   65  2
       a =  1.000      CL =  0.1043
      Cm =  0.0021     CD =  0.00652   =>   CDf =  0.00480    CDp =  0.00171
 plradd ia,ip,cpol           11           0  7.33279213E-02

 Point added to stored polar  1
 Point written to save file  raf30_Re600k.base.pol                           
 Dump file unspecified or not available
 Calculating wake trajectory ...
 Calculating source influence matrix ...

 Solving BL system ...

 Side 1  free  transition at x/c =  0.6589   61
 Side 2  free  transition at x/c =  0.7564   63

   1   rms: 0.9125E-01   max: 0.4666E+00   C at   61  1
       a =  1.500      CL =  0.1551
      Cm =  0.0035     CD =  0.00658   =>   CDf =  0.00480    CDp =  0.00178

 Side 1  free  transition at x/c =  0.6227   58
 Side 2  free  transition at x/c =  0.7746   64

   2   rms: 0.2884E-01   max: -.4056E+00   D at   59  1
       a =  1.500      CL =  0.1551
      Cm =  0.0035     CD =  0.00660   =>   CDf =  0.00493    CDp =  0.00166

 Side 1  free  transition at x/c =  0.6274   59
 Side 2  free  transition at x/c =  0.7819   64

   3   rms: 0.3779E-02   max: 0.4821E-01   D at   61  1
       a =  1.500      CL =  0.1553
      Cm =  0.0035     CD =  0.00656   =>   CDf =  0.00483    CDp =  0.00174

 Side 1  free  transition at x/c =  0.6269   59
 Side 2  free  transition at x/c =  0.7819   64

   4   rms: 0.2037E-03   max: 0.3020E-02   C at   59  1
       a =  1.500      CL =  0.1553
      Cm =  0.0035     CD =  0.00656   =>   CDf =  0.00481    CDp =  0.00175

 Side 1  free  transition at x/c =  0.6268   59
 Side 2  free  transition at x/c =  0.7819   64

   5   rms: 0.7509E-06   max: -.4707E-05   D at   61  1
       a =  1.500      CL =  0.1553
      Cm =  0.0035     CD =  0.00656   =>   CDf =  0.00481    CDp =  0.00175
 plradd ia,ip,cpol           12           0  7.33279213E-02

 Point added to stored polar  1
 Point written to save file  raf30_Re600k.base.pol                           
 Dump file unspecified or not available
 Calculating wake trajectory ...
 Calculating source influence matrix ...

 Solving BL system ...

 Side 1  free  transition at x/c =  0.6268   59
 Side 2  free  transition at x/c =  0.7819   64

   1   rms: 0.9453E-01   max: 0.6138E+00   C at   59  1   RLX: 0.948
       a =  2.000      CL =  0.2023
      Cm =  0.0050     CD =  0.00676   =>   CDf =  0.00477    CDp =  0.00199

 Side 1  free  transition at x/c =  0.5886   57
 Side 2  free  transition at x/c =  0.8045   65

   2   rms: 0.2292E-01   max: 0.2721E+00   D at   59  1
       a =  2.000      CL =  0.2060
      Cm =  0.0049     CD =  0.00661   =>   CDf =  0.00489    CDp =  0.00172

 Side 1  free  transition at x/c =  0.5903   57
 Side 2  free  transition at x/c =  0.8079   65

   3   rms: 0.2870E-02   max: -.4578E-01   D at   59  1
       a =  2.000      CL =  0.2059
      Cm =  0.0049     CD =  0.00663   =>   CDf =  0.00481    CDp =  0.00182

 Side 1  free  transition at x/c =  0.5890   57
 Side 2  free  transition at x/c =  0.8080   65

   4   rms: 0.6513E-04   max: -.1358E-02   D at   59  1
       a =  2.000      CL =  0.2059
      Cm =  0.0049     CD =  0.00663   =>   CDf =  0.00481    CDp =  0.00182
 plradd ia,ip,cpol           13           0  6.17111884E-02

 Point added to stored polar  1
 Point written to save file  raf30_Re600k.base.pol                           
 Dump file unspecified or not available
 Calculating wake trajectory ...
 Calculating source influence matrix ...

 Solving BL system ...

 Side 1  free  transition at x/c =  0.5890   57
 Side 2  free  transition at x/c =  0.8080   65

   1   rms: 0.9077E-01   max: -.4520E+00   C at   65  2
       a =  2.500      CL =  0.2572
      Cm =  0.0062     CD =  0.00663   =>   CDf =  0.00476    CDp =  0.00187

 Side 1  free  transition at x/c =  0.5405   55
 Side 2  free  transition at x/c =  0.8346   66

   2   rms: 0.2387E-01   max: 0.2422E+00   D at   57  1
       a =  2.500      CL =  0.2556
      Cm =  0.0065     CD =  0.00671   =>   CDf =  0.00494    CDp =  0.00176

 Side 1  free  transition at x/c =  0.5483   56
 Side 2  free  transition at x/c =  0.8413   66

   3   rms: 0.2609E-02   max: -.4596E-01   D at   57  1
       a =  2.500      CL =  0.2555
      Cm =  0.0065     CD =  0.00673   =>   CDf =  0.00480    CDp =  0.00193

 Side 1  free  transition at x/c =  0.5474   56
 Side 2  free  transition at x/c =  0.8406   66

   4   rms: 0.8729E-04   max: -.1572E-02   D at   57  1
       a =  2.500      CL =  0.2555
      Cm =  0.0065     CD =  0.00673   =>   CDf =  0.00481    CDp =  0.00192
 plradd ia,ip,cpol           14           0  1.78788286E-02

 Point added to stored polar  1
 Point written to save file  raf30_Re600k.base.pol                           
 Dump file unspecified or not available
 Calculating wake trajectory ...
 Calculating source influence matrix ...

 Solving BL system ...

 Side 1  free  transition at x/c =  0.5474   56
 Side 2  free  transition at x/c =  0.8406   66

   1   rms: 0.1052E+00   max: 0.9365E+00   C at   56  1   RLX: 0.864
       a =  3.000      CL =  0.2970
      Cm =  0.0083     CD =  0.00691   =>   CDf =  0.00481    CDp =  0.00210

 Side 1  free  transition at x/c =  0.5049   53
 Side 2  free  transition at x/c =  0.8582   67

   2   rms: 0.2691E-01   max: -.2583E+00   C at   67  2
       a =  3.000      CL =  0.3050
      Cm =  0.0081     CD =  0.00686   =>   CDf =  0.00491    CDp =  0.00195

 Side 1  free  transition at x/c =  0.5002   53
 Side 2  free  transition at x/c =  0.8730   68

   3   rms: 0.2997E-02   max: -.4881E-01   D at   67  2
       a =  3.000      CL =  0.3059
      Cm =  0.0080     CD =  0.00688   =>   CDf =  0.00482    CDp =  0.00206

 Side 1  free  transition at x/c =  0.4999   53
 Side 2  free  transition at x/c =  0.8720   68

   4   rms: 0.3171E-03   max: 0.5492E-02   C at   68  2
       a =  3.000      CL =  0.3059
      Cm =  0.0080     CD =  0.00688   =>   CDf =  0.00483    CDp =  0.00206

 Side 1  free  transition at x/c =  0.4999   53
 Side 2  free  transition at x/c =  0.8719   68

   5   rms: 0.7831E-05   max: -.9330E-04   D at    4  2
       a =  3.000      CL =  0.3059
      Cm =  0.0080     CD =  0.00688   =>   CDf =  0.00483    CDp =  0.00206
 plradd ia,ip,cpol           15           0  1.41276391E-02

 Point added to stored polar  1
 Point written to save file  raf30_Re600k.base.pol                           
 Dump file unspecified or not available
 Calculating wake trajectory ...
 Calculating source influence matrix ...

 Solving BL system ...

 Side 1  free  transition at x/c =  0.4999   53
 Side 2  free  transition at x/c =  0.8719   68

   1   rms: 0.1140E+00   max: 0.1252E+01   C at   53  1   RLX: 0.783
       a =  3.500      CL =  0.3451
      Cm =  0.0091     CD =  0.00712   =>   CDf =  0.00476    CDp =  0.00236

 Side 1  free  transition at x/c =  0.4438   50
 Side 2  free  transition at x/c =  0.8906   68

   2   rms: 0.2921E-01   max: -.2698E+00   C at   68  2
       a =  3.500      CL =  0.3565
      Cm =  0.0093     CD =  0.00715   =>   CDf =  0.00499    CDp =  0.00217

 Side 1  free  transition at x/c =  0.4345   49
 Side 2  free  transition at x/c =  0.9018   69

   3   rms: 0.6150E-02   max: -.9653E-01   C at   69  2
       a =  3.500      CL =  0.3581
      Cm =  0.0089     CD =  0.00720   =>   CDf =  0.00496    CDp =  0.00224

 Side 1  free  transition at x/c =  0.4344   49
 Side 2  free  transition at x/c =  0.9030   69

   4   rms: 0.3989E-03   max: 0.5572E-02   C at   69  2
       a =  3.500      CL =  0.3582
      Cm =  0.0089     CD =  0.00720   =>   CDf =  0.00495    CDp =  0.00226

 Side 1  free  transition at x/c =  0.4343   49
 Side 2  free  transition at x/c =  0.9028   69

   5   rms: 0.1529E-05   max: -.2109E-04   C at   69  2
       a =  3.500      CL =  0.3582
      Cm =  0.0089     CD =  0.00720   =>   CDf =  0.00495    CDp =  0.00226
 plradd ia,ip,cpol           16           0  1.41276391E-02

 Point added to stored polar  1
 Point written to save file  raf30_Re600k.base.pol                           
 Dump file unspecified or not available
 Calculating wake trajectory ...
 Calculating source influence matrix ...

 Solving BL system ...

 Side 1  free  transition at x/c =  0.4343   49
 Side 2  free  transition at x/c =  0.9028   69

   1   rms: 0.1145E+00   max: 0.1394E+01   C at   49  1   RLX: 0.943
       a =  4.000      CL =  0.4159
      Cm =  0.0079     CD =  0.00745   =>   CDf =  0.00488    CDp =  0.00256

 Side 1  free  transition at x/c =  0.3642   46
 Side 2  free  transition at x/c =  0.9237   69

   2   rms: 0.2390E-01   max: -.2587E+00   C at   46  1
       a =  4.000      CL =  0.4147
      Cm =  0.0088     CD =  0.00764   =>   CDf =  0.00517    CDp =  0.00247

 Side 1  free  transition at x/c =  0.3709   46
 Side 2  free  transition at x/c =  0.9338   70

   3   rms: 0.6603E-02   max: 0.8747E-01   C at   46  1
       a =  4.000      CL =  0.4199
      Cm =  0.0076     CD =  0.00770   =>   CDf =  0.00509    CDp =  0.00261

 Side 1  free  transition at x/c =  0.3678   46
 Side 2  free  transition at x/c =  0.9314   70

   4   rms: 0.3106E-03   max: -.4243E-02   C at   46  1
       a =  4.000      CL =  0.4200
      Cm =  0.0076     CD =  0.00770   =>   CDf =  0.00511    CDp =  0.00259

 Side 1  free  transition at x/c =  0.3679   46
 Side 2  free  transition at x/c =  0.9313   70

   5   rms: 0.2147E-05   max: 0.1186E-04   C at   46  1
       a =  4.000      CL =  0.4200
      Cm =  0.0076     CD =  0.00770   =>   CDf =  0.00511    CDp =  0.00259
 plradd ia,ip,cpol           17           0  1.41276391E-02

 Point added to stored polar  1
 Point written to save file  raf30_Re600k.base.pol                           
 Dump file unspecified or not available
 Calculating wake trajectory ...
 Calculating source influence matrix ...

 Solving BL system ...

 Side 1  free  transition at x/c =  0.3679   46
 Side 2  free  transition at x/c =  0.9313   70

   1   rms: 0.1367E+00   max: 0.1912E+01   C at   46  1   RLX: 0.785
       a =  4.500      CL =  0.4792
      Cm =  0.0041     CD =  0.00813   =>   CDf =  0.00505    CDp =  0.00308

 Side 1  free  transition at x/c =  0.3008   43
 Side 2  free  transition at x/c =  0.9430   69

   2   rms: 0.2733E-01   max: -.2157E+00   D at   74  2
       a =  4.500      CL =  0.4712
      Cm =  0.0085     CD =  0.00827   =>   CDf =  0.00537    CDp =  0.00290

 MRCHDU: Convergence failed at  74  side 2    Res =  0.1345E+01
 Side 1  free  transition at x/c =  0.3041   43
 Side 2  free  transition at x/c =  0.9683   71

   3   rms: 0.5242E-01   max: 0.6672E+00   C at   71  2
       a =  4.500      CL =  0.4794
      Cm =  0.0067     CD =  0.00824   =>   CDf =  0.00532    CDp =  0.00293

 Side 1  free  transition at x/c =  0.2983   43
 Side 2  free  transition at x/c =  0.9566   70

   4   rms: 0.1928E-01   max: 0.2045E+00   C at   43  1
       a =  4.500      CL =  0.4939
      Cm =  0.0033     CD =  0.00845   =>   CDf =  0.00534    CDp =  0.00311

 Side 1  free  transition at x/c =  0.2916   42
 Side 2  free  transition at x/c =  0.9457   70

   5   rms: 0.1524E-01   max: -.1729E+00   D at   74  2
       a =  4.500      CL =  0.4885
      Cm =  0.0046     CD =  0.00841   =>   CDf =  0.00539    CDp =  0.00303

 Side 1  free  transition at x/c =  0.2935   42
 Side 2  free  transition at x/c =  0.9504   70

   6   rms: 0.3068E-02   max: -.5389E-01   C at   42  1
       a =  4.500      CL =  0.4900
      Cm =  0.0042     CD =  0.00843   =>   CDf =  0.00538    CDp =  0.00305

 Side 1  free  transition at x/c =  0.2935   42
 Side 2  free  transition at x/c =  0.9501   70

   7   rms: 0.4592E-04   max: 0.4085E-03   C at   42  1
       a =  4.500      CL =  0.4899
      Cm =  0.0042     CD =  0.00843   =>   CDf =  0.00538    CDp =  0.00305
 plradd ia,ip,cpol           18           0  1.41276391E-02

 Point added to stored polar  1
 Point written to save file  raf30_Re600k.base.pol                           
 Dump file unspecified or not available
 Calculating wake trajectory ...
 Calculating source influence matrix ...

 Solving BL system ...

 Side 1  free  transition at x/c =  0.2934   42
 Side 2  free  transition at x/c =  0.9501   70

   1   rms: 0.1223E+00   max: 0.1481E+01   C at   42  1
       a =  5.000      CL =  0.5650
      Cm = -0.0000     CD =  0.00893   =>   CDf =  0.00532    CDp =  0.00360

 Side 1  free  transition at x/c =  0.1949   37
 Side 2  free  transition at x/c =  0.9607   70

   2   rms: 0.2189E-01   max: -.2870E+00   C at   37  1
       a =  5.000      CL =  0.5574
      Cm =  0.0012     CD =  0.00934   =>   CDf =  0.00580    CDp =  0.00354

 Side 1  free  transition at x/c =  0.2009   37
 Side 2  free  transition at x/c =  0.9641   70

   3   rms: 0.1380E-02   max: 0.1711E-01   C at   37  1
       a =  5.000      CL =  0.5571
      Cm =  0.0013     CD =  0.00935   =>   CDf =  0.00577    CDp =  0.00358

 Side 1  free  transition at x/c =  0.2006   37
 Side 2  free  transition at x/c =  0.9644   70

   4   rms: 0.6431E-05   max: 0.1305E-03   C at   37  1
       a =  5.000      CL =  0.5571
      Cm =  0.0013     CD =  0.00935   =>   CDf =  0.00577    CDp =  0.00358
 plradd ia,ip,cpol           19           0  1.10342130E-02

 Point added to stored polar  1
 Point written to save file  raf30_Re600k.base.pol                           
 Dump file unspecified or not available
 Calculating wake trajectory ...
 Calculating source influence matrix ...

 Solving BL system ...

 Side 1  free  transition at x/c =  0.2006   37
 Side 2  free  transition at x/c =  0.9644   70

   1   rms: 0.1985E+00   max: 0.3997E+01   C at   37  1   RLX: 0.375
       a =  5.500      CL =  0.5825
      Cm =  0.0002     CD =  0.00969   =>   CDf =  0.00577    CDp =  0.00392

 Side 1  free  transition at x/c =  0.1627   35
 Side 2  free  transition at x/c =  0.9683   70

   2   rms: 0.9029E-01   max: 0.1396E+01   C at   35  1   RLX: 0.928
       a =  5.500      CL =  0.6134
      Cm =  0.0001     CD =  0.01039   =>   CDf =  0.00595    CDp =  0.00444

 Side 1  free  transition at x/c =  0.1295   33
 Side 2  free  transition at x/c =  0.9801   71

   3   rms: 0.2166E-01   max: -.1635E+00   D at   35  1
       a =  5.500      CL =  0.6221
      Cm = -0.0013     CD =  0.01042   =>   CDf =  0.00612    CDp =  0.00430

 Side 1  free  transition at x/c =  0.1244   32
 Side 2  free  transition at x/c =  0.9756   71

   4   rms: 0.2227E-02   max: -.2253E-01   D at   33  1
       a =  5.500      CL =  0.6217
      Cm = -0.0012     CD =  0.01040   =>   CDf =  0.00614    CDp =  0.00426

 Side 1  free  transition at x/c =  0.1240   32
 Side 2  free  transition at x/c =  0.9762   71

   5   rms: 0.1956E-04   max: 0.2707E-03   C at   32  1
       a =  5.500      CL =  0.6217
      Cm = -0.0012     CD =  0.01040   =>   CDf =  0.00614    CDp =  0.00426
 plradd ia,ip,cpol           20           0  1.10342130E-02

 Point added to stored polar  1
 Point written to save file  raf30_Re600k.base.pol                           
 Dump file unspecified or not available
 Calculating wake trajectory ...
 Calculating source influence matrix ...

 Solving BL system ...

 Side 1  free  transition at x/c =  0.1240   32
 Side 2  free  transition at x/c =  0.9762   71

   1   rms: 0.1508E+00   max: 0.2457E+01   C at   32  1   RLX: 0.610
       a =  6.000      CL =  0.6645
      Cm = -0.0034     CD =  0.01095   =>   CDf =  0.00608    CDp =  0.00487

 Side 1  free  transition at x/c =  0.0846   30
 Side 2  free  transition at x/c =  0.9811   70

   2   rms: 0.5210E-01   max: -.5520E+00   D at   30  1   RLX: 0.906
       a =  6.000      CL =  0.6824
      Cm = -0.0031     CD =  0.01139   =>   CDf =  0.00636    CDp =  0.00504

 Side 1  free  transition at x/c =  0.0566   28
 Side 2  free  transition at x/c =  0.9889   71

   3   rms: 0.1736E-01   max: -.1599E+00   D at   28  1
       a =  6.000      CL =  0.6869
      Cm = -0.0040     CD =  0.01165   =>   CDf =  0.00653    CDp =  0.00512

 Side 1  free  transition at x/c =  0.0555   28
 Side 2  free  transition at x/c =  0.9861   71

   4   rms: 0.7764E-03   max: -.9340E-02   D at   72  2
       a =  6.000      CL =  0.6868
      Cm = -0.0039     CD =  0.01167   =>   CDf =  0.00656    CDp =  0.00511

 Side 1  free  transition at x/c =  0.0554   28
 Side 2  free  transition at x/c =  0.9863   71

   5   rms: 0.3027E-05   max: 0.1890E-04   C at   28  1
       a =  6.000      CL =  0.6868
      Cm = -0.0039     CD =  0.01167   =>   CDf =  0.00656    CDp =  0.00511
 plradd ia,ip,cpol           21           0  8.49372428E-03

 Point added to stored polar  1
 Point written to save file  raf30_Re600k.base.pol                           
 Dump file unspecified or not available
 Calculating wake trajectory ...
 Calculating source influence matrix ...

 Solving BL system ...

 Side 1  free  transition at x/c =  0.0554   28
 Side 2  free  transition at x/c =  0.9863   71

   1   rms: 0.1244E+00   max: 0.9978E+00   C at   28  1   RLX: 0.677
       a =  6.500      CL =  0.7349
      Cm = -0.0066     CD =  0.01242   =>   CDf =  0.00656    CDp =  0.00586

 Side 1  free  transition at x/c =  0.0479   27
 Side 2  free  transition at x/c =  0.9907   71

   2   rms: 0.3945E-01   max: -.4034E+00   D at   27  1
       a =  6.500      CL =  0.7576
      Cm = -0.0075     CD =  0.01239   =>   CDf =  0.00640    CDp =  0.00599

 Side 1  free  transition at x/c =  0.0470   28
 Side 2  free  transition at x/c =  0.9940   71

   3   rms: 0.7863E-02   max: 0.1144E+00   D at   70  2
       a =  6.500      CL =  0.7566
      Cm = -0.0074     CD =  0.01250   =>   CDf =  0.00657    CDp =  0.00594

 Side 1  free  transition at x/c =  0.0467   28
 Side 2  free  transition at x/c =  0.9942   71

   4   rms: 0.7440E-03   max: -.7726E-02   D at    4  1
       a =  6.500      CL =  0.7567
      Cm = -0.0074     CD =  0.01250   =>   CDf =  0.00656    CDp =  0.00594

 Side 1  free  transition at x/c =  0.0467   28
 Side 2  free  transition at x/c =  0.9941   71

   5   rms: 0.1755E-05   max: -.2126E-04   D at   71  2
       a =  6.500      CL =  0.7567
      Cm = -0.0074     CD =  0.01250   =>   CDf =  0.00656    CDp =  0.00594
 plradd ia,ip,cpol           22           0  4.71619749E-03

 Point added to stored polar  1
 Point written to save file  raf30_Re600k.base.pol                           
 Dump file unspecified or not available
 Calculating wake trajectory ...
 Calculating source influence matrix ...

 Solving BL system ...

 Side 1  free  transition at x/c =  0.0467   28
 Side 2  free  transition at x/c =  0.9941   71

   1   rms: 0.1011E+00   max: 0.3183E+00   T at   28  1
       a =  7.000      CL =  0.8306
      Cm = -0.0118     CD =  0.01338   =>   CDf =  0.00656    CDp =  0.00681

 Side 1  free  transition at x/c =  0.0424   28
 Side 2  free  transition at x/c =  0.9988   71

   2   rms: 0.9420E-02   max: 0.7169E-01   D at   27  1
       a =  7.000      CL =  0.8267
      Cm = -0.0112     CD =  0.01375   =>   CDf =  0.00651    CDp =  0.00724

 Side 1  free  transition at x/c =  0.0418   27
 Side 2 forced transition at x/c =  1.0000   71

   3   rms: 0.1059E-01   max: -.1207E+00   D at   27  1
       a =  7.000      CL =  0.8287
      Cm = -0.0115     CD =  0.01357   =>   CDf =  0.00651    CDp =  0.00707

 Side 1  free  transition at x/c =  0.0420   27
 Side 2  free  transition at x/c =  0.9992   71

   4   rms: 0.2739E-02   max: -.4413E-01   D at   71  2
       a =  7.000      CL =  0.8279
      Cm = -0.0114     CD =  0.01357   =>   CDf =  0.00652    CDp =  0.00705

 Side 1  free  transition at x/c =  0.0420   27
 Side 2  free  transition at x/c =  0.9999   71

   5   rms: 0.7112E-04   max: 0.1029E-02   T at   71  2
       a =  7.000      CL =  0.8279
      Cm = -0.0114     CD =  0.01357   =>   CDf =  0.00652    CDp =  0.00705
 plradd ia,ip,cpol           23           0  4.71619749E-03

 Point added to stored polar  1
 Point written to save file  raf30_Re600k.base.pol                           
 Dump file unspecified or not available
 Calculating wake trajectory ...
 Calculating source influence matrix ...

 Solving BL system ...

 Side 1  free  transition at x/c =  0.0420   27
 Side 2  free  transition at x/c =  0.9999   71

   1   rms: 0.9537E-01   max: 0.3552E+00   T at   27  1
       a =  7.500      CL =  0.9015
      Cm = -0.0157     CD =  0.01429   =>   CDf =  0.00638    CDp =  0.00791

 Side 1  free  transition at x/c =  0.0397   28
 Side 2 forced transition at x/c =  1.0000   70

   2   rms: 0.5114E-01   max: -.3783E+00   D at   70  2
       a =  7.500      CL =  0.8601
      Cm = -0.0072     CD =  0.01418   =>   CDf =  0.00644    CDp =  0.00774

 Side 1  free  transition at x/c =  0.0403   28
 Side 2 forced transition at x/c =  1.0000   70

   3   rms: 0.6841E-02   max: 0.5234E-01   D at   63  2
       a =  7.500      CL =  0.8595
      Cm = -0.0070     CD =  0.01422   =>   CDf =  0.00645    CDp =  0.00777

 Side 1  free  transition at x/c =  0.0403   28
 Side 2 forced transition at x/c =  1.0000   70

   4   rms: 0.7992E-03   max: 0.6585E-02   D at   64  2
       a =  7.500      CL =  0.8597
      Cm = -0.0070     CD =  0.01422   =>   CDf =  0.00644    CDp =  0.00778

 Side 1  free  transition at x/c =  0.0403   28
 Side 2 forced transition at x/c =  1.0000   70

   5   rms: 0.1070E-04   max: 0.9029E-04   D at   64  2
       a =  7.500      CL =  0.8597
      Cm = -0.0070     CD =  0.01422   =>   CDf =  0.00644    CDp =  0.00778
 plradd ia,ip,cpol           24           0  3.32938950E-03

 Point added to stored polar  1
 Point written to save file  raf30_Re600k.base.pol                           
 Dump file unspecified or not available
 Calculating wake trajectory ...
 Calculating source influence matrix ...

 Solving BL system ...

 Side 1  free  transition at x/c =  0.0403   28
 Side 2 forced transition at x/c =  1.0000   70

   1   rms: 0.7428E-01   max: -.2312E+00   D at   66  2
       a =  8.000      CL =  0.8912
      Cm = -0.0026     CD =  0.01502   =>   CDf =  0.00644    CDp =  0.00858

 Side 1  free  transition at x/c =  0.0383   28
 Side 2 forced transition at x/c =  1.0000   70

   2   rms: 0.1019E-01   max: -.8495E-01   D at   28  1
       a =  8.000      CL =  0.8915
      Cm = -0.0027     CD =  0.01502   =>   CDf =  0.00638    CDp =  0.00865

 Side 1  free  transition at x/c =  0.0383   28
 Side 2 forced transition at x/c =  1.0000   70

   3   rms: 0.5697E-03   max: 0.5726E-02   D at   65  2
       a =  8.000      CL =  0.8916
      Cm = -0.0027     CD =  0.01504   =>   CDf =  0.00638    CDp =  0.00865

 Side 1  free  transition at x/c =  0.0383   28
 Side 2 forced transition at x/c =  1.0000   70

   4   rms: 0.5319E-05   max: 0.5255E-04   D at   65  2
       a =  8.000      CL =  0.8916
      Cm = -0.0027     CD =  0.01504   =>   CDf =  0.00638    CDp =  0.00865
 plradd ia,ip,cpol           25           0  2.21269811E-03

 Point added to stored polar  1
 Point written to save file  raf30_Re600k.base.pol                           
 Dump file unspecified or not available
 Calculating wake trajectory ...
 Calculating source influence matrix ...

 Solving BL system ...

 Side 1  free  transition at x/c =  0.0383   28
 Side 2 forced transition at x/c =  1.0000   70

   1   rms: 0.7326E-01   max: 0.2550E+00   T at   28  1
       a =  8.500      CL =  0.9239
      Cm =  0.0015     CD =  0.01593   =>   CDf =  0.00638    CDp =  0.00954

 Side 1  free  transition at x/c =  0.0362   28
 Side 2 forced transition at x/c =  1.0000   70

   2   rms: 0.4574E-02   max: 0.3183E-01   D at   66  2
       a =  8.500      CL =  0.9215
      Cm =  0.0018     CD =  0.01608   =>   CDf =  0.00634    CDp =  0.00974

 Side 1  free  transition at x/c =  0.0361   28
 Side 2 forced transition at x/c =  1.0000   70

   3   rms: 0.1630E-03   max: 0.1250E-02   D at   28  1
       a =  8.500      CL =  0.9215
      Cm =  0.0018     CD =  0.01608   =>   CDf =  0.00634    CDp =  0.00974

 Side 1  free  transition at x/c =  0.0361   28
 Side 2 forced transition at x/c =  1.0000   70

   4   rms: 0.1513E-05   max: 0.4118E-05   C at   59  1
       a =  8.500      CL =  0.9215
      Cm =  0.0018     CD =  0.01608   =>   CDf =  0.00634    CDp =  0.00974
 plradd ia,ip,cpol           26           0  2.21269811E-03

 Point added to stored polar  1
 Point written to save file  raf30_Re600k.base.pol                           
 Dump file unspecified or not available
 Calculating wake trajectory ...
 Calculating source influence matrix ...

 Solving BL system ...

 Side 1  free  transition at x/c =  0.0361   28
 Side 2 forced transition at x/c =  1.0000   70

   1   rms: 0.7966E-01   max: 0.2450E+00   T at   28  1
       a =  9.000      CL =  0.9465
      Cm =  0.0071     CD =  0.01755   =>   CDf =  0.00616    CDp =  0.01139

 Side 1  free  transition at x/c =  0.0342   28
 Side 2 forced transition at x/c =  1.0000   69

   2   rms: 0.2611E-01   max: -.1521E+00   D at   29  1
       a =  9.000      CL =  0.9454
      Cm =  0.0073     CD =  0.01752   =>   CDf =  0.00623    CDp =  0.01130

 Side 1  free  transition at x/c =  0.0340   28
 Side 2 forced transition at x/c =  1.0000   69

   3   rms: 0.9571E-03   max: 0.6556E-02   D at   28  1
       a =  9.000      CL =  0.9460
      Cm =  0.0071     CD =  0.01758   =>   CDf =  0.00624    CDp =  0.01134

 Side 1  free  transition at x/c =  0.0340   28
 Side 2 forced transition at x/c =  1.0000   69

   4   rms: 0.4503E-05   max: 0.1456E-04   D at   80  2
       a =  9.000      CL =  0.9460
      Cm =  0.0071     CD =  0.01758   =>   CDf =  0.00624    CDp =  0.01134
 plradd ia,ip,cpol           27           0  2.21269811E-03

 Point added to stored polar  1
 Point written to save file  raf30_Re600k.base.pol                           
 Dump file unspecified or not available
 Calculating wake trajectory ...
 Calculating source influence matrix ...

 Solving BL system ...

 Side 1  free  transition at x/c =  0.0340   28
 Side 2 forced transition at x/c =  1.0000   69

   1   rms: 0.6882E-01   max: 0.2679E+00   T at   28  1
       a =  9.500      CL =  0.9804
      Cm =  0.0108     CD =  0.01844   =>   CDf =  0.00624    CDp =  0.01220

 Side 1  free  transition at x/c =  0.0328   28
 Side 2 forced transition at x/c =  1.0000   69

   2   rms: 0.3335E-02   max: 0.1410E-01   D at   67  2
       a =  9.500      CL =  0.9780
      Cm =  0.0111     CD =  0.01856   =>   CDf =  0.00614    CDp =  0.01242

 Side 1  free  transition at x/c =  0.0327   28
 Side 2 forced transition at x/c =  1.0000   69

   3   rms: 0.2265E-04   max: 0.1930E-03   T at   28  1
       a =  9.500      CL =  0.9780
      Cm =  0.0111     CD =  0.01856   =>   CDf =  0.00614    CDp =  0.01243
 plradd ia,ip,cpol           28           0  1.33749750E-03

 Point added to stored polar  1
 Point written to save file  raf30_Re600k.base.pol                           
 Dump file unspecified or not available
 Calculating wake trajectory ...
 Calculating source influence matrix ...

 Solving BL system ...

 Side 1  free  transition at x/c =  0.0327   28
 Side 2 forced transition at x/c =  1.0000   69

   1   rms: 0.6878E-01   max: 0.2568E+00   T at   28  1
       a = 10.000      CL =  1.0097
      Cm =  0.0151     CD =  0.01963   =>   CDf =  0.00593    CDp =  0.01369

 Side 1  free  transition at x/c =  0.0307   29
 Side 2 forced transition at x/c =  1.0000   68

   2   rms: 0.1158E-01   max: -.8390E-01   D at   29  1
       a = 10.000      CL =  1.0077
      Cm =  0.0153     CD =  0.01961   =>   CDf =  0.00603    CDp =  0.01358

 Side 1  free  transition at x/c =  0.0308   29
 Side 2 forced transition at x/c =  1.0000   68

   3   rms: 0.9683E-03   max: -.9485E-02   D at    4  1
       a = 10.000      CL =  1.0082
      Cm =  0.0153     CD =  0.01962   =>   CDf =  0.00605    CDp =  0.01357

 Side 1  free  transition at x/c =  0.0308   29
 Side 2 forced transition at x/c =  1.0000   68

   4   rms: 0.4653E-05   max: -.1603E-04   T at   29  1
       a = 10.000      CL =  1.0082
      Cm =  0.0153     CD =  0.01962   =>   CDf =  0.00605    CDp =  0.01357
 plradd ia,ip,cpol           29           0  1.33749750E-03

 Point added to stored polar  1
 Point written to save file  raf30_Re600k.base.pol                           
 Dump file unspecified or not available

.OPERva   c>  
 Solving BL system ...

 Side 1  free  transition at x/c =  0.0308   29
 Side 2 forced transition at x/c =  1.0000   68

   1   rms: 0.9021E-06   max: -.5019E-05   T at   29  1
       a = 10.000      CL =  1.0082
      Cm =  0.0153     CD =  0.01962   =>   CDf =  0.00605    CDp =  0.01357
 plradd ia,ip,cpol           30         182  1.33749750E-03

 Point added to stored polar  1
 Point written to save file  raf30_Re600k.base.pol                           
 Dump file unspecified or not available
 Calculating wake trajectory ...
 Calculating source influence matrix ...

 Solving BL system ...

 Side 1  free  transition at x/c =  0.0308   29
 Side 2 forced transition at x/c =  1.0000   68

   1   rms: 0.3451E-01   max: 0.1450E+00   T at   29  1
       a = 10.250      CL =  1.0231
      Cm =  0.0173     CD =  0.02017   =>   CDf =  0.00605    CDp =  0.01412

 Side 1  free  transition at x/c =  0.0298   29
 Side 2 forced transition at x/c =  1.0000   68

   2   rms: 0.5104E-02   max: -.4091E-01   D at   29  1
       a = 10.250      CL =  1.0220
      Cm =  0.0174     CD =  0.02018   =>   CDf =  0.00603    CDp =  0.01415

 Side 1  free  transition at x/c =  0.0298   29
 Side 2 forced transition at x/c =  1.0000   68

   3   rms: 0.2106E-03   max: -.8020E-03   D at   94  1
       a = 10.250      CL =  1.0222
      Cm =  0.0174     CD =  0.02018   =>   CDf =  0.00603    CDp =  0.01415

 Side 1  free  transition at x/c =  0.0298   29
 Side 2 forced transition at x/c =  1.0000   68

   4   rms: 0.8567E-06   max: -.4074E-05   D at   90  2
       a = 10.250      CL =  1.0222
      Cm =  0.0174     CD =  0.02018   =>   CDf =  0.00603    CDp =  0.01415
 plradd ia,ip,cpol           31           0  1.33749750E-03

 Point added to stored polar  1
 Point written to save file  raf30_Re600k.base.pol                           
 Dump file unspecified or not available
 Calculating wake trajectory ...
 Calculating source influence matrix ...

 Solving BL system ...

 Side 1  free  transition at x/c =  0.0298   29
 Side 2 forced transition at x/c =  1.0000   68

   1   rms: 0.3525E-01   max: 0.1460E+00   T at   29  1
       a = 10.500      CL =  1.0349
      Cm =  0.0197     CD =  0.02092   =>   CDf =  0.00604    CDp =  0.01488

 Side 1  free  transition at x/c =  0.0290   29
 Side 2 forced transition at x/c =  1.0000   68

   2   rms: 0.2833E-02   max: -.1151E-01   D at   30  1
       a = 10.500      CL =  1.0327
      Cm =  0.0200     CD =  0.02106   =>   CDf =  0.00601    CDp =  0.01505

 Side 1  free  transition at x/c =  0.0289   29
 Side 2 forced transition at x/c =  1.0000   68

   3   rms: 0.9472E-04   max: 0.3903E-03   D at   94  1
       a = 10.500      CL =  1.0326
      Cm =  0.0200     CD =  0.02106   =>   CDf =  0.00602    CDp =  0.01505
 plradd ia,ip,cpol           32           0  1.33749750E-03

 Point added to stored polar  1
 Point written to save file  raf30_Re600k.base.pol                           
 Dump file unspecified or not available
 Calculating wake trajectory ...
 Calculating source influence matrix ...

 Solving BL system ...

 Side 1  free  transition at x/c =  0.0289   29
 Side 2 forced transition at x/c =  1.0000   68

   1   rms: 0.3975E-01   max: 0.1629E+00   T at   29  1
       a = 10.750      CL =  1.0409
      Cm =  0.0228     CD =  0.02218   =>   CDf =  0.00602    CDp =  0.01616

 Side 1  free  transition at x/c =  0.0280   29
 Side 2 forced transition at x/c =  1.0000   68

   2   rms: 0.3175E-01   max: 0.1123E+00   D at   31  1
       a = 10.750      CL =  1.0330
      Cm =  0.0235     CD =  0.02368   =>   CDf =  0.00596    CDp =  0.01772

 Side 1  free  transition at x/c =  0.0276   28
 Side 2 forced transition at x/c =  1.0000   68

   3   rms: 0.9187E-02   max: -.1342E+00   D at   28  1
       a = 10.750      CL =  1.0354
      Cm =  0.0235     CD =  0.02270   =>   CDf =  0.00593    CDp =  0.01677

 Side 1  free  transition at x/c =  0.0278   28
 Side 2 forced transition at x/c =  1.0000   68

   4   rms: 0.8383E-03   max: 0.3970E-02   D at   29  1
       a = 10.750      CL =  1.0359
      Cm =  0.0235     CD =  0.02266   =>   CDf =  0.00596    CDp =  0.01670

 Side 1  free  transition at x/c =  0.0278   28
 Side 2 forced transition at x/c =  1.0000   68

   5   rms: 0.2994E-04   max: -.1047E-03   D at   67  2
       a = 10.750      CL =  1.0359
      Cm =  0.0235     CD =  0.02265   =>   CDf =  0.00596    CDp =  0.01670
 plradd ia,ip,cpol           33           0  1.33749750E-03

 Point added to stored polar  1
 Point written to save file  raf30_Re600k.base.pol                           
 Dump file unspecified or not available
 Calculating wake trajectory ...
 Calculating source influence matrix ...

 Solving BL system ...

 Side 1  free  transition at x/c =  0.0278   28
 Side 2 forced transition at x/c =  1.0000   68

   1   rms: 0.3144E-01   max: 0.1720E+00   T at   28  1
       a = 11.000      CL =  1.0477
      Cm =  0.0261     CD =  0.02290   =>   CDf =  0.00596    CDp =  0.01694

 Side 1  free  transition at x/c =  0.0272   28
 Side 2 forced transition at x/c =  1.0000   68

   2   rms: 0.7842E-02   max: -.4895E-01   D at   28  1
       a = 11.000      CL =  1.0472
      Cm =  0.0262     CD =  0.02285   =>   CDf =  0.00587    CDp =  0.01698

 Side 1  free  transition at x/c =  0.0273   28
 Side 2 forced transition at x/c =  1.0000   68

   3   rms: 0.6528E-03   max: -.2792E-02   D at   94  1
       a = 11.000      CL =  1.0478
      Cm =  0.0261     CD =  0.02286   =>   CDf =  0.00588    CDp =  0.01697

 Side 1  free  transition at x/c =  0.0273   28
 Side 2 forced transition at x/c =  1.0000   68

   4   rms: 0.3640E-05   max: 0.3770E-04   D at   92  1
       a = 11.000      CL =  1.0478
      Cm =  0.0261     CD =  0.02286   =>   CDf =  0.00588    CDp =  0.01697
 plradd ia,ip,cpol           34           0  1.33749750E-03

 Point added to stored polar  1
 Point written to save file  raf30_Re600k.base.pol                           
 Dump file unspecified or not available
 Calculating wake trajectory ...
 Calculating source influence matrix ...

 Solving BL system ...

 Side 1  free  transition at x/c =  0.0273   28
 Side 2 forced transition at x/c =  1.0000   68

   1   rms: 0.3214E-01   max: 0.9475E-01   T at   28  1
       a = 11.250      CL =  1.0587
      Cm =  0.0286     CD =  0.02356   =>   CDf =  0.00588    CDp =  0.01768

 Side 1  free  transition at x/c =  0.0268   28
 Side 2 forced transition at x/c =  1.0000   68

   2   rms: 0.2176E-02   max: -.1029E-01   D at   30  1
       a = 11.250      CL =  1.0580
      Cm =  0.0286     CD =  0.02355   =>   CDf =  0.00580    CDp =  0.01774

 Side 1  free  transition at x/c =  0.0268   28
 Side 2 forced transition at x/c =  1.0000   68

   3   rms: 0.1316E-03   max: -.5894E-03   D at   93  1
       a = 11.250      CL =  1.0581
      Cm =  0.0286     CD =  0.02355   =>   CDf =  0.00581    CDp =  0.01774

 Side 1  free  transition at x/c =  0.0268   28
 Side 2 forced transition at x/c =  1.0000   68

   4   rms: 0.8412E-06   max: -.4704E-05   T at   28  1
       a = 11.250      CL =  1.0581
      Cm =  0.0286     CD =  0.02355   =>   CDf =  0.00581    CDp =  0.01774
 plradd ia,ip,cpol           35           0  1.33749750E-03

 Point added to stored polar  1
 Point written to save file  raf30_Re600k.base.pol                           
 Dump file unspecified or not available
 Calculating wake trajectory ...
 Calculating source influence matrix ...

 Solving BL system ...

 Side 1  free  transition at x/c =  0.0268   28
 Side 2 forced transition at x/c =  1.0000   68

   1   rms: 0.3174E-01   max: 0.1512E+00   T at   28  1
       a = 11.500      CL =  1.0697
      Cm =  0.0309     CD =  0.02407   =>   CDf =  0.00581    CDp =  0.01826

 Side 1  free  transition at x/c =  0.0259   28
 Side 2 forced transition at x/c =  1.0000   68

   2   rms: 0.3592E-02   max: -.2036E-01   D at   29  1
       a = 11.500      CL =  1.0692
      Cm =  0.0309     CD =  0.02407   =>   CDf =  0.00574    CDp =  0.01834

 Side 1  free  transition at x/c =  0.0260   28
 Side 2 forced transition at x/c =  1.0000   68

   3   rms: 0.2522E-03   max: -.1120E-02   D at   91  1
       a = 11.500      CL =  1.0694
      Cm =  0.0309     CD =  0.02407   =>   CDf =  0.00574    CDp =  0.01833

 Side 1  free  transition at x/c =  0.0260   28
 Side 2 forced transition at x/c =  1.0000   68

   4   rms: 0.2926E-05   max: 0.9803E-05   D at    3  2
       a = 11.500      CL =  1.0694
      Cm =  0.0309     CD =  0.02407   =>   CDf =  0.00574    CDp =  0.01833
 plradd ia,ip,cpol           36           0  6.86111802E-04

 Point added to stored polar  1
 Point written to save file  raf30_Re600k.base.pol                           
 Dump file unspecified or not available
 Calculating wake trajectory ...
 Calculating source influence matrix ...

 Solving BL system ...

 Side 1  free  transition at x/c =  0.0260   28
 Side 2 forced transition at x/c =  1.0000   68

   1   rms: 0.3267E-01   max: 0.1403E+00   T at   28  1
       a = 11.750      CL =  1.0806
      Cm =  0.0330     CD =  0.02474   =>   CDf =  0.00548    CDp =  0.01926

 Side 1  free  transition at x/c =  0.0251   29
 Side 2 forced transition at x/c =  1.0000   67

   2   rms: 0.3018E-02   max: -.2422E-01   D at    3  1
       a = 11.750      CL =  1.0799
      Cm =  0.0330     CD =  0.02475   =>   CDf =  0.00567    CDp =  0.01908

 Side 1  free  transition at x/c =  0.0251   29
 Side 2 forced transition at x/c =  1.0000   67

   3   rms: 0.5650E-03   max: -.6239E-02   D at    4  1
       a = 11.750      CL =  1.0800
      Cm =  0.0330     CD =  0.02475   =>   CDf =  0.00567    CDp =  0.01908

 Side 1  free  transition at x/c =  0.0251   29
 Side 2 forced transition at x/c =  1.0000   67

   4   rms: 0.9102E-06   max: -.6958E-05   D at   81  2
       a = 11.750      CL =  1.0800
      Cm =  0.0330     CD =  0.02475   =>   CDf =  0.00567    CDp =  0.01908
 plradd ia,ip,cpol           37           0  6.86111802E-04

 Point added to stored polar  1
 Point written to save file  raf30_Re600k.base.pol                           
 Dump file unspecified or not available
 Calculating wake trajectory ...
 Calculating source influence matrix ...

 Solving BL system ...

 Side 1  free  transition at x/c =  0.0251   29
 Side 2 forced transition at x/c =  1.0000   67

   1   rms: 0.3269E-01   max: 0.1157E+00   T at   29  1
       a = 12.000      CL =  1.0910
      Cm =  0.0349     CD =  0.02553   =>   CDf =  0.00567    CDp =  0.01986

 Side 1  free  transition at x/c =  0.0244   29
 Side 2 forced transition at x/c =  1.0000   67

   2   rms: 0.2746E-02   max: -.1670E-01   D at   29  1
       a = 12.000      CL =  1.0901
      Cm =  0.0350     CD =  0.02552   =>   CDf =  0.00562    CDp =  0.01991

 Side 1  free  transition at x/c =  0.0245   29
 Side 2 forced transition at x/c =  1.0000   67

   3   rms: 0.1929E-03   max: -.8795E-03   D at   90  1
       a = 12.000      CL =  1.0903
      Cm =  0.0349     CD =  0.02552   =>   CDf =  0.00562    CDp =  0.01990

 Side 1  free  transition at x/c =  0.0244   29
 Side 2 forced transition at x/c =  1.0000   67

   4   rms: 0.1438E-05   max: 0.1069E-04   C at   67  2
       a = 12.000      CL =  1.0903
      Cm =  0.0349     CD =  0.02552   =>   CDf =  0.00562    CDp =  0.01990
 plradd ia,ip,cpol           38           0  6.86111802E-04

 Point added to stored polar  1
 Point written to save file  raf30_Re600k.base.pol                           
 Dump file unspecified or not available
 Calculating wake trajectory ...
 Calculating source influence matrix ...

 Solving BL system ...

 Side 1  free  transition at x/c =  0.0244   29
 Side 2 forced transition at x/c =  1.0000   67

   1   rms: 0.3289E-01   max: 0.1272E+00   T at   29  1
       a = 12.250      CL =  1.1011
      Cm =  0.0367     CD =  0.02631   =>   CDf =  0.00562    CDp =  0.02069

 Side 1  free  transition at x/c =  0.0239   29
 Side 2 forced transition at x/c =  1.0000   67

   2   rms: 0.3051E-02   max: 0.2207E-01   D at   29  1
       a = 12.250      CL =  1.1000
      Cm =  0.0367     CD =  0.02639   =>   CDf =  0.00559    CDp =  0.02081

 Side 1  free  transition at x/c =  0.0238   29
 Side 2 forced transition at x/c =  1.0000   67

   3   rms: 0.1642E-03   max: 0.9957E-03   D at   87  1
       a = 12.250      CL =  1.0999
      Cm =  0.0367     CD =  0.02639   =>   CDf =  0.00558    CDp =  0.02080

 Side 1  free  transition at x/c =  0.0239   29
 Side 2 forced transition at x/c =  1.0000   67

   4   rms: 0.1164E-05   max: -.7372E-05   C at   67  2
       a = 12.250      CL =  1.0999
      Cm =  0.0367     CD =  0.02639   =>   CDf =  0.00558    CDp =  0.02080
 plradd ia,ip,cpol           39           0  6.86111802E-04

 Point added to stored polar  1
 Point written to save file  raf30_Re600k.base.pol                           
 Dump file unspecified or not available
 Calculating wake trajectory ...
 Calculating source influence matrix ...

 Solving BL system ...

 Side 1  free  transition at x/c =  0.0239   29
 Side 2 forced transition at x/c =  1.0000   67

   1   rms: 0.3359E-01   max: 0.1234E+00   T at   29  1
       a = 12.500      CL =  1.1096
      Cm =  0.0384     CD =  0.02743   =>   CDf =  0.00559    CDp =  0.02184

 Side 1  free  transition at x/c =  0.0233   29
 Side 2 forced transition at x/c =  1.0000   67

   2   rms: 0.3136E-02   max: -.1706E-01   D at   30  1
       a = 12.500      CL =  1.1076
      Cm =  0.0385     CD =  0.02752   =>   CDf =  0.00555    CDp =  0.02197

 Side 1  free  transition at x/c =  0.0233   29
 Side 2 forced transition at x/c =  1.0000   67

   3   rms: 0.2096E-03   max: -.9418E-03   D at   87  1
       a = 12.500      CL =  1.1078
      Cm =  0.0385     CD =  0.02752   =>   CDf =  0.00555    CDp =  0.02197

 Side 1  free  transition at x/c =  0.0233   29
 Side 2 forced transition at x/c =  1.0000   67

   4   rms: 0.2950E-05   max: 0.1560E-04   C at   67  2
       a = 12.500      CL =  1.1078
      Cm =  0.0385     CD =  0.02752   =>   CDf =  0.00555    CDp =  0.02197
 plradd ia,ip,cpol           40           0  6.86111802E-04

 Point added to stored polar  1
 Point written to save file  raf30_Re600k.base.pol                           
 Dump file unspecified or not available
 Calculating wake trajectory ...
 Calculating source influence matrix ...

 Solving BL system ...

 Side 1  free  transition at x/c =  0.0233   29
 Side 2 forced transition at x/c =  1.0000   67

   1   rms: 0.3662E-01   max: 0.1595E+00   T at   29  1
       a = 12.750      CL =  1.1153
      Cm =  0.0401     CD =  0.02894   =>   CDf =  0.00555    CDp =  0.02339

 Side 1  free  transition at x/c =  0.0226   29
 Side 2 forced transition at x/c =  1.0000   67

   2   rms: 0.2881E-01   max: 0.1155E+00   T at   29  1
       a = 12.750      CL =  1.1062
      Cm =  0.0407     CD =  0.03049   =>   CDf =  0.00548    CDp =  0.02500

 Side 1  free  transition at x/c =  0.0223   28
 Side 2 forced transition at x/c =  1.0000   67

   3   rms: 0.7147E-02   max: -.9164E-01   D at   28  1
       a = 12.750      CL =  1.1083
      Cm =  0.0406     CD =  0.02978   =>   CDf =  0.00545    CDp =  0.02434

 Side 1  free  transition at x/c =  0.0224   28
 Side 2 forced transition at x/c =  1.0000   67

   4   rms: 0.6253E-03   max: 0.1718E-02   D at   30  1
       a = 12.750      CL =  1.1088
      Cm =  0.0406     CD =  0.02974   =>   CDf =  0.00547    CDp =  0.02427

 Side 1  free  transition at x/c =  0.0224   28
 Side 2 forced transition at x/c =  1.0000   67

   5   rms: 0.1986E-04   max: 0.5597E-04   D at   83  1
       a = 12.750      CL =  1.1088
      Cm =  0.0406     CD =  0.02974   =>   CDf =  0.00547    CDp =  0.02427
 plradd ia,ip,cpol           41           0  6.86111802E-04

 Point added to stored polar  1
 Point written to save file  raf30_Re600k.base.pol                           
 Dump file unspecified or not available
 Calculating wake trajectory ...
 Calculating source influence matrix ...

 Solving BL system ...

 Side 1  free  transition at x/c =  0.0224   28
 Side 2 forced transition at x/c =  1.0000   67

   1   rms: 0.3213E-01   max: 0.1319E+00   T at   28  1
       a = 13.000      CL =  1.1185
      Cm =  0.0418     CD =  0.03069   =>   CDf =  0.00547    CDp =  0.02522

 Side 1  free  transition at x/c =  0.0220   28
 Side 2 forced transition at x/c =  1.0000   67

   2   rms: 0.2297E-02   max: 0.1367E-01   D at   83  1
       a = 13.000      CL =  1.1177
      Cm =  0.0418     CD =  0.03070   =>   CDf =  0.00536    CDp =  0.02534

 Side 1  free  transition at x/c =  0.0220   28
 Side 2 forced transition at x/c =  1.0000   67

   3   rms: 0.2104E-03   max: -.9090E-03   D at   84  1
       a = 13.000      CL =  1.1179
      Cm =  0.0418     CD =  0.03069   =>   CDf =  0.00536    CDp =  0.02533

 Side 1  free  transition at x/c =  0.0220   28
 Side 2 forced transition at x/c =  1.0000   67

   4   rms: 0.1751E-05   max: 0.1218E-04   C at   67  2
       a = 13.000      CL =  1.1179
      Cm =  0.0418     CD =  0.03070   =>   CDf =  0.00536    CDp =  0.02533
 plradd ia,ip,cpol           42           0  6.86111802E-04

 Point added to stored polar  1
 Point written to save file  raf30_Re600k.base.pol                           
 Dump file unspecified or not available
 Calculating wake trajectory ...
 Calculating source influence matrix ...

 Solving BL system ...

 Side 1  free  transition at x/c =  0.0220   28
 Side 2 forced transition at x/c =  1.0000   67

   1   rms: 0.3234E-01   max: 0.1177E+00   T at   28  1
       a = 13.250      CL =  1.1270
      Cm =  0.0429     CD =  0.03193   =>   CDf =  0.00536    CDp =  0.02657

 Side 1  free  transition at x/c =  0.0216   28
 Side 2 forced transition at x/c =  1.0000   67

   2   rms: 0.2921E-02   max: 0.1737E-01   D at   82  1
       a = 13.250      CL =  1.1254
      Cm =  0.0429     CD =  0.03193   =>   CDf =  0.00524    CDp =  0.02669

 Side 1  free  transition at x/c =  0.0216   28
 Side 2 forced transition at x/c =  1.0000   67

   3   rms: 0.2615E-03   max: -.1231E-02   D at   82  1
       a = 13.250      CL =  1.1256
      Cm =  0.0429     CD =  0.03193   =>   CDf =  0.00525    CDp =  0.02668

 Side 1  free  transition at x/c =  0.0216   28
 Side 2 forced transition at x/c =  1.0000   67

   4   rms: 0.2972E-05   max: 0.1630E-04   C at   67  2
       a = 13.250      CL =  1.1256
      Cm =  0.0429     CD =  0.03193   =>   CDf =  0.00525    CDp =  0.02668
 plradd ia,ip,cpol           43           0  6.86111802E-04

 Point added to stored polar  1
 Point written to save file  raf30_Re600k.base.pol                           
 Dump file unspecified or not available
 Calculating wake trajectory ...
 Calculating source influence matrix ...

 Solving BL system ...

 Side 1  free  transition at x/c =  0.0216   28
 Side 2 forced transition at x/c =  1.0000   67

   1   rms: 0.3308E-01   max: 0.1270E+00   T at   28  1
       a = 13.500      CL =  1.1342
      Cm =  0.0438     CD =  0.03331   =>   CDf =  0.00494    CDp =  0.02837

 Side 1  free  transition at x/c =  0.0210   29
 Side 2 forced transition at x/c =  1.0000   66

   2   rms: 0.3042E-02   max: 0.1994E-01   D at   81  1
       a = 13.500      CL =  1.1326
      Cm =  0.0438     CD =  0.03330   =>   CDf =  0.00513    CDp =  0.02817

 Side 1  free  transition at x/c =  0.0210   29
 Side 2 forced transition at x/c =  1.0000   66

   3   rms: 0.4456E-03   max: -.4580E-02   D at    4  1
       a = 13.500      CL =  1.1327
      Cm =  0.0438     CD =  0.03329   =>   CDf =  0.00513    CDp =  0.02816

 Side 1  free  transition at x/c =  0.0210   29
 Side 2 forced transition at x/c =  1.0000   66

   4   rms: 0.1873E-05   max: 0.1442E-04   C at   66  2
       a = 13.500      CL =  1.1327
      Cm =  0.0438     CD =  0.03329   =>   CDf =  0.00513    CDp =  0.02816
 plradd ia,ip,cpol           44           0  6.86111802E-04

 Point added to stored polar  1
 Point written to save file  raf30_Re600k.base.pol                           
 Dump file unspecified or not available
 Calculating wake trajectory ...
 Calculating source influence matrix ...

 Solving BL system ...

 Side 1  free  transition at x/c =  0.0210   29
 Side 2 forced transition at x/c =  1.0000   66

   1   rms: 0.3309E-01   max: 0.1041E+00   T at   29  1   RLX: 0.990
       a = 13.750      CL =  1.1405
      Cm =  0.0445     CD =  0.03486   =>   CDf =  0.00513    CDp =  0.02972

 Side 1  free  transition at x/c =  0.0204   29
 Side 2 forced transition at x/c =  1.0000   66

   2   rms: 0.5322E-02   max: -.3171E-01   D at   29  1
       a = 13.750      CL =  1.1388
      Cm =  0.0445     CD =  0.03479   =>   CDf =  0.00502    CDp =  0.02977

 Side 1  free  transition at x/c =  0.0205   29
 Side 2 forced transition at x/c =  1.0000   66

   3   rms: 0.7170E-03   max: -.3192E-02   D at   80  1
       a = 13.750      CL =  1.1393
      Cm =  0.0445     CD =  0.03476   =>   CDf =  0.00503    CDp =  0.02973

 Side 1  free  transition at x/c =  0.0204   29
 Side 2 forced transition at x/c =  1.0000   66

   4   rms: 0.1884E-04   max: 0.1153E-03   C at   66  2
       a = 13.750      CL =  1.1393
      Cm =  0.0445     CD =  0.03476   =>   CDf =  0.00503    CDp =  0.02973
 plradd ia,ip,cpol           45           0  6.86111802E-04

 Point added to stored polar  1
 Point written to save file  raf30_Re600k.base.pol                           
 Dump file unspecified or not available
 Calculating wake trajectory ...
 Calculating source influence matrix ...

 Solving BL system ...

 Side 1  free  transition at x/c =  0.0204   29
 Side 2 forced transition at x/c =  1.0000   66

   1   rms: 0.3370E-01   max: 0.9248E-01   D at   76  1   RLX: 0.945
       a = 14.000      CL =  1.1459
      Cm =  0.0450     CD =  0.03650   =>   CDf =  0.00504    CDp =  0.03146

 Side 1  free  transition at x/c =  0.0200   29
 Side 2 forced transition at x/c =  1.0000   66

   2   rms: 0.3956E-02   max: 0.2776E-01   D at   78  1
       a = 14.000      CL =  1.1443
      Cm =  0.0451     CD =  0.03652   =>   CDf =  0.00494    CDp =  0.03159

 Side 1  free  transition at x/c =  0.0200   29
 Side 2 forced transition at x/c =  1.0000   66

   3   rms: 0.2115E-03   max: -.1148E-02   D at   79  1
       a = 14.000      CL =  1.1444
      Cm =  0.0451     CD =  0.03649   =>   CDf =  0.00494    CDp =  0.03155

 Side 1  free  transition at x/c =  0.0200   29
 Side 2 forced transition at x/c =  1.0000   66

   4   rms: 0.5869E-05   max: 0.3603E-04   C at   66  2
       a = 14.000      CL =  1.1445
      Cm =  0.0451     CD =  0.03649   =>   CDf =  0.00494    CDp =  0.03156
 plradd ia,ip,cpol           46           0  6.86111802E-04

 Point added to stored polar  1
 Point written to save file  raf30_Re600k.base.pol                           
 Dump file unspecified or not available
 Calculating wake trajectory ...
 Calculating source influence matrix ...

 Solving BL system ...

 Side 1  free  transition at x/c =  0.0200   29
 Side 2 forced transition at x/c =  1.0000   66

   1   rms: 0.3335E-01   max: 0.9696E-01   T at   29  1   RLX: 0.905
       a = 14.250      CL =  1.1512
      Cm =  0.0452     CD =  0.03812   =>   CDf =  0.00494    CDp =  0.03318

 Side 1  free  transition at x/c =  0.0195   29
 Side 2 forced transition at x/c =  1.0000   66

   2   rms: 0.7038E-02   max: -.5148E-01   D at   29  1
       a = 14.250      CL =  1.1507
      Cm =  0.0452     CD =  0.03810   =>   CDf =  0.00487    CDp =  0.03323

 Side 1  free  transition at x/c =  0.0195   29
 Side 2 forced transition at x/c =  1.0000   66

   3   rms: 0.1055E-02   max: -.4506E-02   D at   77  1
       a = 14.250      CL =  1.1514
      Cm =  0.0452     CD =  0.03804   =>   CDf =  0.00488    CDp =  0.03316

 Side 1  free  transition at x/c =  0.0195   29
 Side 2 forced transition at x/c =  1.0000   66

   4   rms: 0.4524E-04   max: 0.2385E-03   C at   66  2
       a = 14.250      CL =  1.1514
      Cm =  0.0452     CD =  0.03804   =>   CDf =  0.00488    CDp =  0.03316
 plradd ia,ip,cpol           47           0  6.86111802E-04

 Point added to stored polar  1
 Point written to save file  raf30_Re600k.base.pol                           
 Dump file unspecified or not available
 Calculating wake trajectory ...
 Calculating source influence matrix ...

 Solving BL system ...

 Side 1  free  transition at x/c =  0.0195   29
 Side 2 forced transition at x/c =  1.0000   66

   1   rms: 0.3343E-01   max: 0.1035E+00   T at   29  1   RLX: 0.870
       a = 14.500      CL =  1.1583
      Cm =  0.0451     CD =  0.03964   =>   CDf =  0.00488    CDp =  0.03476

 Side 1  free  transition at x/c =  0.0191   29
 Side 2 forced transition at x/c =  1.0000   66

   2   rms: 0.4730E-02   max: 0.2954E-01   D at   75  1
       a = 14.500      CL =  1.1576
      Cm =  0.0451     CD =  0.03984   =>   CDf =  0.00484    CDp =  0.03500

 Side 1  free  transition at x/c =  0.0191   29
 Side 2 forced transition at x/c =  1.0000   66

   3   rms: 0.1723E-03   max: 0.1751E-02   D at   74  1
       a = 14.500      CL =  1.1575
      Cm =  0.0452     CD =  0.03980   =>   CDf =  0.00483    CDp =  0.03497

 Side 1  free  transition at x/c =  0.0191   29
 Side 2 forced transition at x/c =  1.0000   66

   4   rms: 0.8090E-05   max: 0.2452E-04   D at   77  2
       a = 14.500      CL =  1.1575
      Cm =  0.0452     CD =  0.03980   =>   CDf =  0.00483    CDp =  0.03497
 plradd ia,ip,cpol           48           0  6.86111802E-04

 Point added to stored polar  1
 Point written to save file  raf30_Re600k.base.pol                           
 Dump file unspecified or not available
 Calculating wake trajectory ...
 Calculating source influence matrix ...

 Solving BL system ...

 Side 1  free  transition at x/c =  0.0191   29
 Side 2 forced transition at x/c =  1.0000   66

   1   rms: 0.3400E-01   max: 0.9883E-01   D at   71  1   RLX: 0.834
       a = 14.750      CL =  1.1626
      Cm =  0.0450     CD =  0.04167   =>   CDf =  0.00483    CDp =  0.03683

 Side 1  free  transition at x/c =  0.0188   29
 Side 2 forced transition at x/c =  1.0000   66

   2   rms: 0.6510E-02   max: 0.3677E-01   D at   73  1
       a = 14.750      CL =  1.1611
      Cm =  0.0450     CD =  0.04201   =>   CDf =  0.00478    CDp =  0.03723

 Side 1  free  transition at x/c =  0.0187   29
 Side 2 forced transition at x/c =  1.0000   66

   3   rms: 0.5103E-03   max: 0.4086E-02   D at   77  2
       a = 14.750      CL =  1.1608
      Cm =  0.0451     CD =  0.04195   =>   CDf =  0.00477    CDp =  0.03718

 Side 1  free  transition at x/c =  0.0187   29
 Side 2 forced transition at x/c =  1.0000   66

   4   rms: 0.1729E-04   max: 0.1038E-03   D at   77  2
       a = 14.750      CL =  1.1607
      Cm =  0.0451     CD =  0.04195   =>   CDf =  0.00477    CDp =  0.03718
 plradd ia,ip,cpol           49           0  6.86111802E-04

 Point added to stored polar  1
 Point written to save file  raf30_Re600k.base.pol                           
 Dump file unspecified or not available
 Calculating wake trajectory ...
 Calculating source influence matrix ...

 Solving BL system ...

 Side 1  free  transition at x/c =  0.0187   29
 Side 2 forced transition at x/c =  1.0000   66

   1   rms: 0.3403E-01   max: 0.1019E+00   D at   70  1   RLX: 0.799
       a = 15.000      CL =  1.1651
      Cm =  0.0447     CD =  0.04387   =>   CDf =  0.00477    CDp =  0.03910

 Side 1  free  transition at x/c =  0.0184   29
 Side 2 forced transition at x/c =  1.0000   66

   2   rms: 0.9247E-02   max: 0.4107E-01   D at   71  1
       a = 15.000      CL =  1.1626
      Cm =  0.0447     CD =  0.04449   =>   CDf =  0.00473    CDp =  0.03976

 Side 1  free  transition at x/c =  0.0183   29
 Side 2 forced transition at x/c =  1.0000   66

   3   rms: 0.1189E-02   max: 0.5197E-02   D at   71  1
       a = 15.000      CL =  1.1617
      Cm =  0.0448     CD =  0.04444   =>   CDf =  0.00471    CDp =  0.03973

 Side 1  free  transition at x/c =  0.0183   29
 Side 2 forced transition at x/c =  1.0000   66

   4   rms: 0.4070E-04   max: 0.2471E-03   D at   78  2
       a = 15.000      CL =  1.1617
      Cm =  0.0448     CD =  0.04443   =>   CDf =  0.00471    CDp =  0.03972
 plradd ia,ip,cpol           50           0  2.49934994E-04

 Point added to stored polar  1
 Point written to save file  raf30_Re600k.base.pol                           
 Dump file unspecified or not available
 Calculating wake trajectory ...
 Calculating source influence matrix ...

 Solving BL system ...

 Side 1  free  transition at x/c =  0.0183   29
 Side 2 forced transition at x/c =  1.0000   66

   1   rms: 0.3843E-01   max: 0.1247E+00   D at   68  1   RLX: 0.758
       a = 15.250      CL =  1.1620
      Cm =  0.0444     CD =  0.04689   =>   CDf =  0.00472    CDp =  0.04217

 Side 1  free  transition at x/c =  0.0180   29
 Side 2 forced transition at x/c =  1.0000   66

   2   rms: 0.1849E-01   max: 0.7079E-01   D at   70  1
       a = 15.250      CL =  1.1543
      Cm =  0.0445     CD =  0.04829   =>   CDf =  0.00464    CDp =  0.04365

 Side 1  free  transition at x/c =  0.0179   29
 Side 2 forced transition at x/c =  1.0000   66

   3   rms: 0.3337E-02   max: 0.1604E-01   D at   78  2
       a = 15.250      CL =  1.1519
      Cm =  0.0446     CD =  0.04827   =>   CDf =  0.00459    CDp =  0.04368

 Side 1  free  transition at x/c =  0.0179   29
 Side 2 forced transition at x/c =  1.0000   66

   4   rms: 0.1153E-03   max: 0.1139E-02   D at   78  2
       a = 15.250      CL =  1.1518
      Cm =  0.0446     CD =  0.04823   =>   CDf =  0.00459    CDp =  0.04364

 Side 1  free  transition at x/c =  0.0179   29
 Side 2 forced transition at x/c =  1.0000   66

   5   rms: 0.1351E-04   max: 0.4800E-04   C at   66  2
       a = 15.250      CL =  1.1518
      Cm =  0.0446     CD =  0.04824   =>   CDf =  0.00459    CDp =  0.04365
 plradd ia,ip,cpol           51           0  2.49934994E-04

 Point added to stored polar  1
 Point written to save file  raf30_Re600k.base.pol                           
 Dump file unspecified or not available
 Calculating wake trajectory ...
 Calculating source influence matrix ...

 Solving BL system ...

 Side 1  free  transition at x/c =  0.0179   29
 Side 2 forced transition at x/c =  1.0000   66

   1   rms: 0.8116E-01   max: 0.2324E+00   D at   63  1   RLX: 0.694
       a = 15.500      CL =  1.1366
      Cm =  0.0445     CD =  0.05293   =>   CDf =  0.00459    CDp =  0.04833

 Side 1  free  transition at x/c =  0.0176   28
 Side 2 forced transition at x/c =  1.0000   66

   2   rms: 0.2415E-01   max: -.1827E+00   D at   28  1
       a = 15.500      CL =  1.1491
      Cm =  0.0435     CD =  0.05174   =>   CDf =  0.00443    CDp =  0.04731

 Side 1  free  transition at x/c =  0.0177   28
 Side 2 forced transition at x/c =  1.0000   66

   3   rms: 0.3058E-02   max: 0.1239E-01   D at   30  1
       a = 15.500      CL =  1.1510
      Cm =  0.0437     CD =  0.05119   =>   CDf =  0.00446    CDp =  0.04673

 Side 1  free  transition at x/c =  0.0177   28
 Side 2 forced transition at x/c =  1.0000   66

   4   rms: 0.3241E-03   max: 0.1445E-02   D at   67  1
       a = 15.500      CL =  1.1508
      Cm =  0.0437     CD =  0.05122   =>   CDf =  0.00445    CDp =  0.04676

 Side 1  free  transition at x/c =  0.0177   28
 Side 2 forced transition at x/c =  1.0000   66

   5   rms: 0.2971E-04   max: 0.1444E-03   D at   78  2
       a = 15.500      CL =  1.1508
      Cm =  0.0437     CD =  0.05121   =>   CDf =  0.00445    CDp =  0.04676
 plradd ia,ip,cpol           52           0  2.49934994E-04

 Point added to stored polar  1
 Point written to save file  raf30_Re600k.base.pol                           
 Dump file unspecified or not available
 Calculating wake trajectory ...
 Calculating source influence matrix ...

 Solving BL system ...

 Side 1  free  transition at x/c =  0.0177   28
 Side 2 forced transition at x/c =  1.0000   66

   1   rms: 0.3568E-01   max: 0.1256E+00   D at   65  1   RLX: 0.688
       a = 15.750      CL =  1.1518
      Cm =  0.0427     CD =  0.05367   =>   CDf =  0.00446    CDp =  0.04921

 Side 1  free  transition at x/c =  0.0175   28
 Side 2 forced transition at x/c =  1.0000   66

   2   rms: 0.1311E-01   max: 0.5871E-01   D at   66  1
       a = 15.750      CL =  1.1491
      Cm =  0.0424     CD =  0.05474   =>   CDf =  0.00435    CDp =  0.05038

 Side 1  free  transition at x/c =  0.0175   28
 Side 2 forced transition at x/c =  1.0000   66

   3   rms: 0.1857E-02   max: 0.8828E-02   D at   79  2
       a = 15.750      CL =  1.1476
      Cm =  0.0425     CD =  0.05461   =>   CDf =  0.00431    CDp =  0.05030

 Side 1  free  transition at x/c =  0.0175   28
 Side 2 forced transition at x/c =  1.0000   66

   4   rms: 0.8923E-04   max: 0.6123E-03   D at   79  2
       a = 15.750      CL =  1.1476
      Cm =  0.0425     CD =  0.05459   =>   CDf =  0.00431    CDp =  0.05028
 plradd ia,ip,cpol           53           0  6.86111802E-04

 Point added to stored polar  1
 Point written to save file  raf30_Re600k.base.pol                           
 Dump file unspecified or not available
 Calculating wake trajectory ...
 Calculating source influence matrix ...

 Solving BL system ...

 Side 1  free  transition at x/c =  0.0175   28
 Side 2 forced transition at x/c =  1.0000   66

   1   rms: 0.3660E-01   max: 0.1332E+00   D at   63  1   RLX: 0.657
       a = 16.000      CL =  1.1474
      Cm =  0.0415     CD =  0.05726   =>   CDf =  0.00431    CDp =  0.05294

 Side 1  free  transition at x/c =  0.0173   28
 Side 2 forced transition at x/c =  1.0000   66

   2   rms: 0.1491E-01   max: 0.6826E-01   D at   65  1
       a = 16.000      CL =  1.1439
      Cm =  0.0410     CD =  0.05858   =>   CDf =  0.00386    CDp =  0.05472

 Side 1  free  transition at x/c =  0.0172   29
 Side 2 forced transition at x/c =  1.0000   65
 idif Ue xi dudx           1  0.11124633      9.68027115E-03   11.492068    
 Uenew xinew           2  5.17845387E-04  4.50611115E-05

   3   rms: 0.1664E-01   max: -.2884E+00   T at    2  1
       a = 16.000      CL =  1.1421
      Cm =  0.0411     CD =  0.05840   =>   CDf =  0.00447    CDp =  0.05393

 Side 1  free  transition at x/c =  0.0173   28
 Side 2 forced transition at x/c =  1.0000   66

   4   rms: 0.5804E-03   max: -.7596E-02   D at    3  1
       a = 16.000      CL =  1.1420
      Cm =  0.0411     CD =  0.05836   =>   CDf =  0.00417    CDp =  0.05420

 Side 1  free  transition at x/c =  0.0173   28
 Side 2 forced transition at x/c =  1.0000   66

   5   rms: 0.2569E-03   max: 0.2888E-02   D at    4  2
       a = 16.000      CL =  1.1420
      Cm =  0.0411     CD =  0.05836   =>   CDf =  0.00417    CDp =  0.05420

 Side 1  free  transition at x/c =  0.0173   28
 Side 2 forced transition at x/c =  1.0000   66

   6   rms: 0.1100E-05   max: 0.3266E-05   D at   84  2
       a = 16.000      CL =  1.1420
      Cm =  0.0411     CD =  0.05836   =>   CDf =  0.00417    CDp =  0.05420
 plradd ia,ip,cpol           54           0  2.49934994E-04

 Point added to stored polar  1
 Point written to save file  raf30_Re600k.base.pol                           
 Dump file unspecified or not available

.OPERva   c>  
 Polar accumulation disabled

.OPERv   c>  
 XFOIL   c>  
 XFOIL   c>  