
 ===================================================
  XFOIL Version 6.99
  Copyright (C) 2000   Mark Drela, Harold Youngren

  This software comes with ABSOLUTELY NO WARRANTY,
    subject to the GNU General Public License.

  Caveat computor
 ===================================================

 File  xfoil.def  not found

   QUIT    Exit program

  .OPER    Direct operating point(s)
  .MDES    Complex mapping design routine
  .QDES    Surface speed design routine
  .GDES    Geometry design routine

   SAVE f  Write airfoil to labeled coordinate file
   PSAV f  Write airfoil to plain coordinate file
   ISAV f  Write airfoil to ISES coordinate file
   MSAV f  Write airfoil to MSES coordinate file
   REVE    Reverse written-airfoil node ordering

   LOAD f  Read buffer airfoil from coordinate file
   NACA i  Set NACA 4,5-digit airfoil and buffer airfoil
   INTE    Set buffer airfoil by interpolating two airfoils
   NORM    Buffer airfoil normalization toggle
   XYCM rr Change CM reference location, currently  0.25000 0.00000

   BEND    Display structural properties of current airfoil

   PCOP    Set current-airfoil panel nodes directly from buffer airfoil points
   PANE    Set current-airfoil panel nodes ( 160 ) based on curvature
  .PPAR    Show/change paneling

  .PLOP    Plotting options

   WDEF f  Write  current-settings file
   RDEF f  Reread current-settings file
   NAME s  Specify new airfoil name
   NINC    Increment name version number

   Z       Zoom    | (available in all menus)
   U       Unzoom  | 

 XFOIL   c>  
 Labeled airfoil file.  Name:  RAF 32 MOD AIRFOIL                              

 Number of input coordinate points:  29
 Counterclockwise ordering
 Max thickness =     0.101609  at x =   0.300
 Max camber    =     0.038935  at x =   0.500

  LE  x,y  =  -0.00011   0.00122  |   Chord =   1.00011
  TE  x,y  =   1.00000   0.00000  |

 Current airfoil nodes set from buffer airfoil nodes (  29 )

 WARNING: Poor input coordinate distribution
          Excessive panel angle   83.4  at i =  15
          Repaneling with PANE and/or PPAR suggested
           (doing GDES,CADD before repaneling _may_
            improve excessively coarse LE spacing

 XFOIL   c>  
 XFOIL   c>  
 Sharp trailing edge

 Paneling parameters used...
   Number of panel nodes       160
   Panel bunching parameter    1.000
   TE/LE panel density ratio   0.150
   Refined-area/LE panel density ratio    0.200
   Top    side refined area x/c limits  1.000 1.000
   Bottom side refined area x/c limits  1.000 1.000

 XFOIL   c>  
.OPERi   c>  
 Xtr/c     =  1.0000    top    side
 Xtr/c     =  1.0000    bottom side
 Ncrit     =    9.00   ( 0.070 % turb. level )
 Vacc      =  0.0100

 Klag  =  5.6000     Uxwt  =    1.00
 A     =  6.7000     B     =  0.7500       KCt = 0.01485
 CtiniK=  1.8000     CtiniX=  3.3000

..VPAR   c>  
..VPAR   c>  
.OPERi   c>  
 M  =    0.0000
 Re =    500000

.OPERv   c>  
.OPERv   c>  
.OPERv   c>  
 Polar  1 newly created for accumulation
 Airfoil archived with polar: RAF 32 MOD AIRFOIL                              

Enter  polar save filename  OR  <return> for no file   s>  
 New polar save file available

Enter  polar dump filename  OR  <return> for no file   s>  
 Polar dump file will NOT be written

 Polar accumulation enabled

.OPERva   c>   Calculating unit vorticity distributions ...
 Calculating wake trajectory ...
 Calculating source influence matrix ...

 Solving BL system ...

 Initializing BL ...
    side            1  ...
 MRCHUE: Inverse mode at  56     Hk =   3.900
 MRCHUE: Inverse mode at  57     Hk =   4.483
 MRCHUE: Inverse mode at  58     Hk =   5.054
 MRCHUE: Inverse mode at  59     Hk =   5.618
 MRCHUE: Inverse mode at  60     Hk =   6.178
 MRCHUE: Inverse mode at  61     Hk =   6.736
 MRCHUE: Inverse mode at  62     Hk =   7.297
 MRCHUE: Inverse mode at  63     Hk =   7.854
 MRCHUE: Inverse mode at  64     Hk =   8.401
 MRCHUE: Inverse mode at  65     Hk =   8.411
 MRCHUE: Inverse mode at  66     Hk =   5.932
 MRCHUE: Inverse mode at  67     Hk =   4.422
 MRCHUE: Inverse mode at  68     Hk =   3.367
    side            2  ...
 MRCHUE: Inverse mode at  17     Hk =   4.682
 MRCHUE: Convergence failed at  18  side 2    Res =  0.2309E+01
 MRCHUE: Inverse mode at  19     Hk =   6.857
 MRCHUE: Inverse mode at  20     Hk =   8.816
 MRCHUE: Inverse mode at  21     Hk =   2.500

 Side 1  free  transition at x/c =  0.8602   65
 Side 2  free  transition at x/c =  0.0587   21

   1   rms: 0.1729E+00   max: -.1938E+01   D at   21  2   RLX: 0.258
       a = -4.000      CL =  0.0661
      Cm = -0.1273     CD =  0.01130   =>   CDf =  0.00631    CDp =  0.00499

 MRCHDU: Convergence failed at  21  side 2    Res =  0.1527E+01
 MRCHDU: Convergence failed at  22  side 2    Res =  0.1109E+01
 MRCHDU: Convergence failed at  23  side 2    Res =  0.1456E+01
 MRCHDU: Convergence failed at  24  side 2    Res =  0.1707E+01
 MRCHDU: Convergence failed at  25  side 2    Res =  0.1980E+01
 MRCHDU: Convergence failed at  26  side 2    Res =  0.2576E+01
 MRCHDU: Convergence failed at  27  side 2    Res =  0.3050E+01
 MRCHDU: Convergence failed at  28  side 2    Res =  0.3583E+01
 MRCHDU: Convergence failed at  29  side 2    Res =  0.4177E+01
 MRCHDU: Convergence failed at  30  side 2    Res =  0.4827E+01
 MRCHDU: Convergence failed at  31  side 2    Res =  0.5788E+01
 MRCHDU: Convergence failed at  32  side 2    Res =  0.6835E+01
 MRCHDU: Convergence failed at  33  side 2    Res =  0.8176E+01
 MRCHDU: Convergence failed at  34  side 2    Res =  0.9919E+01
 MRCHDU: Convergence failed at  35  side 2    Res =  0.1268E+02
 MRCHDU: Convergence failed at  36  side 2    Res =  0.2128E+02
 MRCHDU: Convergence failed at  37  side 2    Res =  0.1491E+02
 MRCHDU: Convergence failed at  38  side 2    Res =  0.1602E+02
 MRCHDU: Convergence failed at  39  side 2    Res =  0.1612E+02
 MRCHDU: Convergence failed at  40  side 2    Res =  0.1754E+02
 MRCHDU: Convergence failed at  41  side 2    Res =  0.2070E+02
 MRCHDU: Convergence failed at  42  side 2    Res =  0.2525E+02
 MRCHDU: Convergence failed at  43  side 2    Res =  0.2292E+02
 MRCHDU: Convergence failed at  44  side 2    Res =  0.2783E+02
 MRCHDU: Convergence failed at  45  side 2    Res =  0.4458E+02
 MRCHDU: Convergence failed at  46  side 2    Res =  0.5233E+03
 MRCHDU: Convergence failed at  47  side 2    Res =  0.4485E+02
 MRCHDU: Convergence failed at  48  side 2    Res =  0.7500E+02
 MRCHDU: Convergence failed at  49  side 2    Res =  0.1485E+03
 MRCHDU: Convergence failed at  50  side 2    Res =  0.2097E+03
 MRCHDU: Convergence failed at  51  side 2    Res =  0.5242E+02
 MRCHDU: Convergence failed at  52  side 2    Res =  0.3299E+02
 MRCHDU: Convergence failed at  53  side 2    Res =  0.1716E+04
 MRCHDU: Convergence failed at  54  side 2    Res =  0.4566E+02
 MRCHDU: Convergence failed at  55  side 2    Res =  0.1707E+02
 MRCHDU: Convergence failed at  56  side 2    Res =  0.1854E+02
 MRCHDU: Convergence failed at  57  side 2    Res =  0.1924E+02
 MRCHDU: Convergence failed at  58  side 2    Res =  0.1907E+02
 MRCHDU: Convergence failed at  59  side 2    Res =  0.1858E+02
 MRCHDU: Convergence failed at  60  side 2    Res =  0.1797E+02
 MRCHDU: Convergence failed at  61  side 2    Res =  0.1738E+02
 MRCHDU: Convergence failed at  62  side 2    Res =  0.1697E+02
 MRCHDU: Convergence failed at  63  side 2    Res =  0.1998E+02
 MRCHDU: Convergence failed at  64  side 2    Res =  0.2016E+02
 MRCHDU: Convergence failed at  65  side 2    Res =  0.2004E+02
 MRCHDU: Convergence failed at  66  side 2    Res =  0.1760E+02
 MRCHDU: Convergence failed at  67  side 2    Res =  0.2130E+02
 MRCHDU: Convergence failed at  68  side 2    Res =  0.6905E+02
 MRCHDU: Convergence failed at  69  side 2    Res =  0.4072E+03
 MRCHDU: Convergence failed at  70  side 2    Res =  0.3151E+02
 MRCHDU: Convergence failed at  71  side 2    Res =  0.5635E+03
 MRCHDU: Convergence failed at  72  side 2    Res =  0.2282E+02
 MRCHDU: Convergence failed at  73  side 2    Res =  0.9565E+02
 MRCHDU: Convergence failed at  74  side 2    Res =  0.2799E+02
 MRCHDU: Convergence failed at  75  side 2    Res =  0.2474E+02
 MRCHDU: Convergence failed at  76  side 2    Res =  0.2418E+02
 MRCHDU: Convergence failed at  77  side 2    Res =  0.2482E+02
 MRCHDU: Convergence failed at  78  side 2    Res =  0.2587E+02
 MRCHDU: Convergence failed at  79  side 2    Res =  0.2722E+02
 MRCHDU: Convergence failed at  80  side 2    Res =  0.2431E+02
 MRCHDU: Convergence failed at  81  side 2    Res =  0.2803E+02
 MRCHDU: Convergence failed at  82  side 2    Res =  0.3579E+02
 MRCHDU: Convergence failed at  83  side 2    Res =  0.6034E+02
 MRCHDU: Convergence failed at  84  side 2    Res =  0.9226E+02
 MRCHDU: Convergence failed at  85  side 2    Res =  0.2482E+02
 Side 1  free  transition at x/c =  0.8685   66
 Side 2  free  transition at x/c =  0.0532   20

   2   rms: 0.8703E+00   max: 0.2369E+01   D at   68  2   RLX: 0.557
       a = -4.000      CL = -0.2578
      Cm =  0.0045     CD =  0.00530   =>   CDf =  0.00257    CDp =  0.00273

 MRCHDU: Convergence failed at  29  side 2    Res =  0.6137E-01
 MRCHDU: Convergence failed at  47  side 2    Res =  0.8897E-01
 MRCHDU: Convergence failed at  87  side 2    Res =  0.5141E+01
 MRCHDU: Convergence failed at  88  side 2    Res =  0.1655E+02
 Side 1  free  transition at x/c =  0.8885   67
 Side 2  free  transition at x/c =  0.0506   20

   3   rms: 0.3507E+00   max: -.1543E+01   D at   29  2   RLX: 0.324
       a = -4.000      CL =  0.0502
      Cm = -0.0970     CD =  0.02668   =>   CDf =  0.00390    CDp =  0.02278

 MRCHDU: Convergence failed at  29  side 2    Res =  0.4752E-01
 MRCHDU: Convergence failed at  47  side 2    Res =  0.1088E+00
 Side 1  free  transition at x/c =  0.8963   68
 Side 2  free  transition at x/c =  0.0498   20

   4   rms: 0.7370E+00   max: -.6575E+01   D at   26  2   RLX: 0.076
       a = -4.000      CL =  0.1289
      Cm = -0.1327     CD =  0.02875   =>   CDf =  0.00387    CDp =  0.02489

 Side 1  free  transition at x/c =  0.8947   68
 Side 2  free  transition at x/c =  0.0494   20

   5   rms: 0.3897E+00   max: -.2594E+01   D at   26  2   RLX: 0.193
       a = -4.000      CL =  0.1167
      Cm = -0.1311     CD =  0.02675   =>   CDf =  0.00391    CDp =  0.02284

 Side 1  free  transition at x/c =  0.8943   68
 Side 2  free  transition at x/c =  0.0488   20

   6   rms: 0.3959E+00   max: -.1725E+01   D at   27  2   RLX: 0.290
       a = -4.000      CL =  0.1273
      Cm = -0.1303     CD =  0.02423   =>   CDf =  0.00389    CDp =  0.02034

 Side 1  free  transition at x/c =  0.8969   68
 Side 2  free  transition at x/c =  0.0487   20

   7   rms: 0.8831E+00   max: -.4828E+01   D at   37  2   RLX: 0.104
       a = -4.000      CL =  0.1474
      Cm = -0.1313     CD =  0.02374   =>   CDf =  0.00391    CDp =  0.01983

 Side 1  free  transition at x/c =  0.9004   68
 Side 2  free  transition at x/c =  0.0489   20

   8   rms: 0.6783E+00   max: -.3630E+01   D at   35  2   RLX: 0.138
       a = -4.000      CL =  0.1292
      Cm = -0.1274     CD =  0.02455   =>   CDf =  0.00403    CDp =  0.02052

 Side 1  free  transition at x/c =  0.8988   68
 Side 2  free  transition at x/c =  0.0485   20

   9   rms: 0.7224E+00   max: -.4272E+01   D at   32  2   RLX: 0.117
       a = -4.000      CL =  0.1080
      Cm = -0.1233     CD =  0.02447   =>   CDf =  0.00420    CDp =  0.02027

 MRCHDU: Convergence failed at  31  side 2    Res =  0.6639E+00
 Side 1  free  transition at x/c =  0.8961   68
 Side 2  free  transition at x/c =  0.0479   20

  10   rms: 0.4056E+00   max: -.1924E+01   D at   42  2   RLX: 0.260
       a = -4.000      CL =  0.0675
      Cm = -0.1187     CD =  0.02242   =>   CDf =  0.00446    CDp =  0.01796

 Side 1  free  transition at x/c =  0.8920   67
 Side 2  free  transition at x/c =  0.0469   20
 idif Ue xi dudx           1  0.17729323      2.61449814E-03   67.811569    
 Uenew xinew           2  2.07348671E-02  3.05771828E-04

  11   rms: 0.4174E+00   max: -.1408E+01   D at   44  2   RLX: 0.355
       a = -4.000      CL =  0.0091
      Cm = -0.1122     CD =  0.01992   =>   CDf =  0.00436    CDp =  0.01556

 Side 1  free  transition at x/c =  0.8773   66
 Side 2  free  transition at x/c =  0.0452   21

  12   rms: 0.4651E+00   max: -.1888E+01   D at   81  2   RLX: 0.265
       a = -4.000      CL =  0.0132
      Cm = -0.1213     CD =  0.01654   =>   CDf =  0.00464    CDp =  0.01190

 Side 1  free  transition at x/c =  0.8756   65
 Side 2  free  transition at x/c =  0.0447   21

  13   rms: 0.5322E+00   max: -.2251E+01   D at   70  2   RLX: 0.222
       a = -4.000      CL =  0.0330
      Cm = -0.1289     CD =  0.01374   =>   CDf =  0.00483    CDp =  0.00890

 Side 1  free  transition at x/c =  0.8763   65
 Side 2  free  transition at x/c =  0.0449   21

  14   rms: 0.5159E+00   max: -.2104E+01   D at   63  2   RLX: 0.238
       a = -4.000      CL =  0.0498
      Cm = -0.1323     CD =  0.01163   =>   CDf =  0.00507    CDp =  0.00656

 Side 1  free  transition at x/c =  0.8792   66
 Side 2  free  transition at x/c =  0.0451   21

  15   rms: 0.7040E+00   max: -.2996E+01   D at   58  2   RLX: 0.167
       a = -4.000      CL =  0.0557
      Cm = -0.1331     CD =  0.01013   =>   CDf =  0.00531    CDp =  0.00482

 Side 1  free  transition at x/c =  0.8802   66
 Side 2  free  transition at x/c =  0.0452   21

  16   rms: 0.4297E+00   max: -.2196E+01   D at   54  2   RLX: 0.228
       a = -4.000      CL =  0.0606
      Cm = -0.1322     CD =  0.00977   =>   CDf =  0.00567    CDp =  0.00410

 MRCHDU: Convergence failed at  50  side 2    Res =  0.4860E+00
 MRCHDU: Convergence failed at  51  side 2    Res =  0.2387E+00
 MRCHDU: Convergence failed at  52  side 2    Res =  0.1724E+00
 Side 1  free  transition at x/c =  0.8815   66
 Side 2  free  transition at x/c =  0.0453   21

  17   rms: 0.1819E+00   max: -.8670E+00   D at   56  2   RLX: 0.577
       a = -4.000      CL =  0.0564
      Cm = -0.1248     CD =  0.00986   =>   CDf =  0.00636    CDp =  0.00351

 Side 1  free  transition at x/c =  0.8845   67
 Side 2  free  transition at x/c =  0.0457   20

  18   rms: 0.8799E-01   max: -.5796E+00   D at   55  2   RLX: 0.863
       a = -4.000      CL =  0.0742
      Cm = -0.1245     CD =  0.00990   =>   CDf =  0.00617    CDp =  0.00373

 Side 1  free  transition at x/c =  0.8876   67
 Side 2  free  transition at x/c =  0.0459   20

  19   rms: 0.1947E-01   max: -.2117E+00   D at   55  2
       a = -4.000      CL =  0.0767
      Cm = -0.1241     CD =  0.00996   =>   CDf =  0.00624    CDp =  0.00372

 Side 1  free  transition at x/c =  0.8884   67
 Side 2  free  transition at x/c =  0.0460   20

  20   rms: 0.1154E-02   max: -.1916E-01   D at   55  2
       a = -4.000      CL =  0.0767
      Cm = -0.1241     CD =  0.00996   =>   CDf =  0.00625    CDp =  0.00371

 Side 1  free  transition at x/c =  0.8884   67
 Side 2  free  transition at x/c =  0.0460   20

  21   rms: 0.8471E-05   max: -.1534E-03   D at   55  2
       a = -4.000      CL =  0.0767
      Cm = -0.1241     CD =  0.00996   =>   CDf =  0.00625    CDp =  0.00371
 plradd ia,ip,cpol            1           0  6.36262307E-03

 Point added to stored polar  1
 Point written to save file  raf32md_Re500k.base.pol                         
 Dump file unspecified or not available
 Calculating wake trajectory ...
 Calculating source influence matrix ...

 Solving BL system ...

 Side 1  free  transition at x/c =  0.8884   67
 Side 2  free  transition at x/c =  0.0460   20

   1   rms: 0.9575E-01   max: -.2232E+00   T at   20  2
       a = -3.500      CL =  0.1265
      Cm = -0.1229     CD =  0.00933   =>   CDf =  0.00625    CDp =  0.00308

 Side 1  free  transition at x/c =  0.8736   66
 Side 2  free  transition at x/c =  0.0493   20

   2   rms: 0.1462E-01   max: -.1755E+00   D at   67  1
       a = -3.500      CL =  0.1328
      Cm = -0.1241     CD =  0.00942   =>   CDf =  0.00639    CDp =  0.00303

 Side 1  free  transition at x/c =  0.8772   67
 Side 2  free  transition at x/c =  0.0491   20

   3   rms: 0.3328E-02   max: -.5342E-01   D at   66  1
       a = -3.500      CL =  0.1324
      Cm = -0.1240     CD =  0.00942   =>   CDf =  0.00638    CDp =  0.00304

 Side 1  free  transition at x/c =  0.8772   67
 Side 2  free  transition at x/c =  0.0491   20

   4   rms: 0.3333E-03   max: 0.3332E-02   T at   67  1
       a = -3.500      CL =  0.1323
      Cm = -0.1240     CD =  0.00942   =>   CDf =  0.00637    CDp =  0.00305

 Side 1  free  transition at x/c =  0.8771   67
 Side 2  free  transition at x/c =  0.0491   20

   5   rms: 0.2981E-05   max: -.3082E-04   D at   68  1
       a = -3.500      CL =  0.1323
      Cm = -0.1240     CD =  0.00942   =>   CDf =  0.00637    CDp =  0.00305
 plradd ia,ip,cpol            2           0  8.89858976E-03

 Point added to stored polar  1
 Point written to save file  raf32md_Re500k.base.pol                         
 Dump file unspecified or not available
 Calculating wake trajectory ...
 Calculating source influence matrix ...

 Solving BL system ...

 Side 1  free  transition at x/c =  0.8771   67
 Side 2  free  transition at x/c =  0.0491   20

   1   rms: 0.9827E-01   max: -.2662E+00   T at   20  2
       a = -3.000      CL =  0.1925
      Cm = -0.1248     CD =  0.00900   =>   CDf =  0.00644    CDp =  0.00256

 Side 1  free  transition at x/c =  0.8677   67
 Side 2  free  transition at x/c =  0.0540   19

   2   rms: 0.1549E-01   max: -.1557E+00   D at   67  1
       a = -3.000      CL =  0.1853
      Cm = -0.1233     CD =  0.00905   =>   CDf =  0.00644    CDp =  0.00261

 Side 1  free  transition at x/c =  0.8634   67
 Side 2  free  transition at x/c =  0.0540   19

   3   rms: 0.3479E-02   max: -.5064E-01   D at   67  1
       a = -3.000      CL =  0.1859
      Cm = -0.1234     CD =  0.00905   =>   CDf =  0.00648    CDp =  0.00257

 Side 1  free  transition at x/c =  0.8643   67
 Side 2  free  transition at x/c =  0.0541   19

   4   rms: 0.1382E-03   max: -.1458E-02   D at   68  1
       a = -3.000      CL =  0.1859
      Cm = -0.1234     CD =  0.00905   =>   CDf =  0.00647    CDp =  0.00259

 Side 1  free  transition at x/c =  0.8642   67
 Side 2  free  transition at x/c =  0.0541   19

   5   rms: 0.1224E-05   max: -.7600E-05   D at   67  1
       a = -3.000      CL =  0.1859
      Cm = -0.1234     CD =  0.00905   =>   CDf =  0.00647    CDp =  0.00259
 plradd ia,ip,cpol            3           0  1.22335274E-02

 Point added to stored polar  1
 Point written to save file  raf32md_Re500k.base.pol                         
 Dump file unspecified or not available
 Calculating wake trajectory ...
 Calculating source influence matrix ...

 Solving BL system ...

 Side 1  free  transition at x/c =  0.8642   67
 Side 2  free  transition at x/c =  0.0541   19

   1   rms: 0.9733E-01   max: -.4904E+00   C at   19  2
       a = -2.500      CL =  0.2441
      Cm = -0.1237     CD =  0.00872   =>   CDf =  0.00653    CDp =  0.00220

 Side 1  free  transition at x/c =  0.8544   67
 Side 2  free  transition at x/c =  0.0666   19

   2   rms: 0.5209E-01   max: -.6812E+00   D at   18  2   RLX: 0.734
       a = -2.500      CL =  0.2414
      Cm = -0.1230     CD =  0.00869   =>   CDf =  0.00649    CDp =  0.00221

 Side 1  free  transition at x/c =  0.8517   67
 Side 2  free  transition at x/c =  0.1267   24

   3   rms: 0.3683E-01   max: -.4491E+00   C at   24  2
       a = -2.500      CL =  0.2384
      Cm = -0.1228     CD =  0.00838   =>   CDf =  0.00627    CDp =  0.00211

 Side 1  free  transition at x/c =  0.8513   67
 Side 2  free  transition at x/c =  0.1366   24

   4   rms: 0.6791E-02   max: -.1412E+00   C at   24  2
       a = -2.500      CL =  0.2386
      Cm = -0.1228     CD =  0.00843   =>   CDf =  0.00620    CDp =  0.00224

 Side 1  free  transition at x/c =  0.8513   67
 Side 2  free  transition at x/c =  0.1372   24

   5   rms: 0.3729E-03   max: 0.8631E-02   C at   24  2
       a = -2.500      CL =  0.2386
      Cm = -0.1228     CD =  0.00843   =>   CDf =  0.00619    CDp =  0.00224

 Side 1  free  transition at x/c =  0.8513   67
 Side 2  free  transition at x/c =  0.1370   24

   6   rms: 0.1596E-05   max: 0.1157E-04   C at   24  2
       a = -2.500      CL =  0.2386
      Cm = -0.1228     CD =  0.00843   =>   CDf =  0.00619    CDp =  0.00224
 plradd ia,ip,cpol            4           0  1.22335274E-02

 Point added to stored polar  1
 Point written to save file  raf32md_Re500k.base.pol                         
 Dump file unspecified or not available
 Calculating wake trajectory ...
 Calculating source influence matrix ...

 Solving BL system ...

 Side 1  free  transition at x/c =  0.8513   67
 Side 2  free  transition at x/c =  0.1370   24

   1   rms: 0.2004E+00   max: -.4000E+01   C at   24  2   RLX: 0.125
       a = -2.000      CL =  0.2455
      Cm = -0.1228     CD =  0.00837   =>   CDf =  0.00619    CDp =  0.00218

 Side 1  free  transition at x/c =  0.8498   67
 Side 2  free  transition at x/c =  0.1518   25

   2   rms: 0.2509E+00   max: -.5380E+01   C at   25  2   RLX: 0.093
       a = -2.000      CL =  0.2499
      Cm = -0.1228     CD =  0.00830   =>   CDf =  0.00615    CDp =  0.00215

 Side 1  free  transition at x/c =  0.8489   67
 Side 2  free  transition at x/c =  0.1590   26

   3   rms: 0.1972E+00   max: -.3744E+01   C at   26  2   RLX: 0.134
       a = -2.000      CL =  0.2561
      Cm = -0.1228     CD =  0.00824   =>   CDf =  0.00614    CDp =  0.00210

 Side 1  free  transition at x/c =  0.8478   67
 Side 2  free  transition at x/c =  0.1700   27

   4   rms: 0.1904E+00   max: -.3366E+01   C at   27  2   RLX: 0.149
       a = -2.000      CL =  0.2621
      Cm = -0.1229     CD =  0.00817   =>   CDf =  0.00612    CDp =  0.00206

 Side 1  free  transition at x/c =  0.8468   66
 Side 2  free  transition at x/c =  0.1848   28

   5   rms: 0.1927E+00   max: -.3720E+01   C at   28  2   RLX: 0.134
       a = -2.000      CL =  0.2659
      Cm = -0.1228     CD =  0.00811   =>   CDf =  0.00606    CDp =  0.00204

 Side 1  free  transition at x/c =  0.8456   66
 Side 2  free  transition at x/c =  0.1982   28

   6   rms: 0.2122E+00   max: -.4603E+01   C at   28  2   RLX: 0.109
       a = -2.000      CL =  0.2687
      Cm = -0.1227     CD =  0.00809   =>   CDf =  0.00601    CDp =  0.00208

 Side 1  free  transition at x/c =  0.8447   66
 Side 2  free  transition at x/c =  0.2097   29

   7   rms: 0.1682E+00   max: -.3604E+01   C at   29  2   RLX: 0.139
       a = -2.000      CL =  0.2716
      Cm = -0.1226     CD =  0.00804   =>   CDf =  0.00597    CDp =  0.00207

 Side 1  free  transition at x/c =  0.8437   66
 Side 2  free  transition at x/c =  0.2241   30

   8   rms: 0.1194E+00   max: -.2488E+01   C at   30  2   RLX: 0.201
       a = -2.000      CL =  0.2753
      Cm = -0.1225     CD =  0.00799   =>   CDf =  0.00592    CDp =  0.00207

 Side 1  free  transition at x/c =  0.8424   66
 Side 2  free  transition at x/c =  0.2416   31

   9   rms: 0.5557E-01   max: -.1018E+01   C at   31  2   RLX: 0.491
       a = -2.000      CL =  0.2829
      Cm = -0.1225     CD =  0.00794   =>   CDf =  0.00587    CDp =  0.00207

 Side 1  free  transition at x/c =  0.8401   66
 Side 2  free  transition at x/c =  0.2719   33

  10   rms: 0.1705E-01   max: 0.1112E+00   D at   31  2
       a = -2.000      CL =  0.2912
      Cm = -0.1224     CD =  0.00789   =>   CDf =  0.00580    CDp =  0.00209

 Side 1  free  transition at x/c =  0.8380   66
 Side 2  free  transition at x/c =  0.2846   34

  11   rms: 0.7627E-02   max: 0.1524E+00   C at   34  2
       a = -2.000      CL =  0.2911
      Cm = -0.1224     CD =  0.00786   =>   CDf =  0.00575    CDp =  0.00210

 Side 1  free  transition at x/c =  0.8382   66
 Side 2  free  transition at x/c =  0.2798   34

  12   rms: 0.4221E-03   max: -.8345E-02   C at   34  2
       a = -2.000      CL =  0.2911
      Cm = -0.1224     CD =  0.00786   =>   CDf =  0.00577    CDp =  0.00209

 Side 1  free  transition at x/c =  0.8382   66
 Side 2  free  transition at x/c =  0.2800   34

  13   rms: 0.1770E-05   max: -.1457E-04   C at   34  2
       a = -2.000      CL =  0.2911
      Cm = -0.1224     CD =  0.00786   =>   CDf =  0.00577    CDp =  0.00209
 plradd ia,ip,cpol            5           0  1.22335274E-02

 Point added to stored polar  1
 Point written to save file  raf32md_Re500k.base.pol                         
 Dump file unspecified or not available
 Calculating wake trajectory ...
 Calculating source influence matrix ...

 Solving BL system ...

 Side 1  free  transition at x/c =  0.8382   66
 Side 2  free  transition at x/c =  0.2800   34

   1   rms: 0.1580E+00   max: -.2445E+01   C at   34  2   RLX: 0.204
       a = -1.500      CL =  0.3021
      Cm = -0.1224     CD =  0.00779   =>   CDf =  0.00577    CDp =  0.00202

 Side 1  free  transition at x/c =  0.8355   66
 Side 2  free  transition at x/c =  0.2982   35

   2   rms: 0.1180E+00   max: -.1654E+01   C at   35  2   RLX: 0.302
       a = -1.500      CL =  0.3158
      Cm = -0.1224     CD =  0.00775   =>   CDf =  0.00577    CDp =  0.00199

 Side 1  free  transition at x/c =  0.8327   67
 Side 2  free  transition at x/c =  0.3143   35

   3   rms: 0.6932E-01   max: -.6711E+00   C at   35  2   RLX: 0.745
       a = -1.500      CL =  0.3403
      Cm = -0.1226     CD =  0.00774   =>   CDf =  0.00574    CDp =  0.00200

 Side 1  free  transition at x/c =  0.8287   66
 Side 2  free  transition at x/c =  0.3381   37

   4   rms: 0.2473E-01   max: -.3281E+00   C at   37  2
       a = -1.500      CL =  0.3444
      Cm = -0.1219     CD =  0.00763   =>   CDf =  0.00570    CDp =  0.00193

 Side 1  free  transition at x/c =  0.8242   66
 Side 2  free  transition at x/c =  0.3493   37

   5   rms: 0.5096E-02   max: -.9053E-01   C at   37  2
       a = -1.500      CL =  0.3451
      Cm = -0.1221     CD =  0.00765   =>   CDf =  0.00567    CDp =  0.00198

 Side 1  free  transition at x/c =  0.8248   66
 Side 2  free  transition at x/c =  0.3513   37

   6   rms: 0.1057E-03   max: 0.1537E-02   C at   37  2
       a = -1.500      CL =  0.3451
      Cm = -0.1220     CD =  0.00765   =>   CDf =  0.00565    CDp =  0.00200

 Side 1  free  transition at x/c =  0.8248   66
 Side 2  free  transition at x/c =  0.3512   37

   7   rms: 0.7526E-06   max: 0.4868E-05   C at   37  2
       a = -1.500      CL =  0.3451
      Cm = -0.1220     CD =  0.00765   =>   CDf =  0.00565    CDp =  0.00200
 plradd ia,ip,cpol            6           0  1.67135336E-02

 Point added to stored polar  1
 Point written to save file  raf32md_Re500k.base.pol                         
 Dump file unspecified or not available
 Calculating wake trajectory ...
 Calculating source influence matrix ...

 Solving BL system ...

 Side 1  free  transition at x/c =  0.8248   66
 Side 2  free  transition at x/c =  0.3512   37

   1   rms: 0.1004E+00   max: -.9497E+00   C at   37  2   RLX: 0.527
       a = -1.000      CL =  0.3735
      Cm = -0.1218     CD =  0.00760   =>   CDf =  0.00565    CDp =  0.00194

 Side 1  free  transition at x/c =  0.8172   65
 Side 2  free  transition at x/c =  0.3772   39

   2   rms: 0.6574E-01   max: -.9922E+00   C at   39  2   RLX: 0.504
       a = -1.000      CL =  0.3857
      Cm = -0.1215     CD =  0.00753   =>   CDf =  0.00567    CDp =  0.00186

 Side 1  free  transition at x/c =  0.8140   66
 Side 2  free  transition at x/c =  0.3886   39

   3   rms: 0.4634E-01   max: -.6834E+00   C at   39  2   RLX: 0.732
       a = -1.000      CL =  0.3952
      Cm = -0.1216     CD =  0.00747   =>   CDf =  0.00563    CDp =  0.00184

 Side 1  free  transition at x/c =  0.8118   66
 Side 2  free  transition at x/c =  0.4018   40

   4   rms: 0.2601E-01   max: -.4532E+00   C at   40  2
       a = -1.000      CL =  0.3986
      Cm = -0.1216     CD =  0.00742   =>   CDf =  0.00559    CDp =  0.00183

 Side 1  free  transition at x/c =  0.8111   66
 Side 2  free  transition at x/c =  0.4143   40

   5   rms: 0.7054E-02   max: -.1387E+00   C at   40  2
       a = -1.000      CL =  0.3987
      Cm = -0.1216     CD =  0.00744   =>   CDf =  0.00554    CDp =  0.00190

 Side 1  free  transition at x/c =  0.8111   66
 Side 2  free  transition at x/c =  0.4154   41

   6   rms: 0.7334E-02   max: -.1318E+00   C at   41  2
       a = -1.000      CL =  0.3986
      Cm = -0.1216     CD =  0.00743   =>   CDf =  0.00554    CDp =  0.00189

 Side 1  free  transition at x/c =  0.8111   66
 Side 2  free  transition at x/c =  0.4171   41

   7   rms: 0.3350E-03   max: 0.6336E-02   C at   41  2
       a = -1.000      CL =  0.3987
      Cm = -0.1216     CD =  0.00743   =>   CDf =  0.00551    CDp =  0.00192

 Side 1  free  transition at x/c =  0.8111   66
 Side 2  free  transition at x/c =  0.4170   41

   8   rms: 0.9858E-06   max: -.9633E-05   C at   41  2
       a = -1.000      CL =  0.3987
      Cm = -0.1216     CD =  0.00743   =>   CDf =  0.00552    CDp =  0.00192
 plradd ia,ip,cpol            7           0  0.35301232    

 Point added to stored polar  1
 Point written to save file  raf32md_Re500k.base.pol                         
 Dump file unspecified or not available
 Calculating wake trajectory ...
 Calculating source influence matrix ...

 Solving BL system ...

 Side 1  free  transition at x/c =  0.8111   66
 Side 2  free  transition at x/c =  0.4170   41

   1   rms: 0.1611E+00   max: -.2611E+01   C at   41  2   RLX: 0.192
       a = -0.500      CL =  0.4084
      Cm = -0.1214     CD =  0.00736   =>   CDf =  0.00552    CDp =  0.00184

 Side 1  free  transition at x/c =  0.8081   66
 Side 2  free  transition at x/c =  0.4302   42

   2   rms: 0.1432E+00   max: -.2318E+01   C at   42  2   RLX: 0.216
       a = -0.500      CL =  0.4179
      Cm = -0.1213     CD =  0.00733   =>   CDf =  0.00550    CDp =  0.00183

 Side 1  free  transition at x/c =  0.8057   66
 Side 2  free  transition at x/c =  0.4450   43

   3   rms: 0.1438E+00   max: -.2534E+01   C at   43  2   RLX: 0.197
       a = -0.500      CL =  0.4247
      Cm = -0.1213     CD =  0.00729   =>   CDf =  0.00546    CDp =  0.00183

 Side 1  free  transition at x/c =  0.8041   66
 Side 2  free  transition at x/c =  0.4604   44

   4   rms: 0.1546E+00   max: -.2876E+01   C at   44  2   RLX: 0.174
       a = -0.500      CL =  0.4295
      Cm = -0.1213     CD =  0.00726   =>   CDf =  0.00541    CDp =  0.00185

 Side 1  free  transition at x/c =  0.8031   66
 Side 2  free  transition at x/c =  0.4756   45

   5   rms: 0.1519E+00   max: -.2862E+01   C at   45  2   RLX: 0.175
       a = -0.500      CL =  0.4335
      Cm = -0.1213     CD =  0.00723   =>   CDf =  0.00537    CDp =  0.00186

 Side 1  free  transition at x/c =  0.8022   66
 Side 2  free  transition at x/c =  0.4907   46

   6   rms: 0.1355E+00   max: -.2548E+01   C at   46  2   RLX: 0.196
       a = -0.500      CL =  0.4373
      Cm = -0.1213     CD =  0.00720   =>   CDf =  0.00533    CDp =  0.00187

 Side 1  free  transition at x/c =  0.8015   65
 Side 2  free  transition at x/c =  0.5061   47

   7   rms: 0.1048E+00   max: -.1945E+01   C at   47  2   RLX: 0.257
       a = -0.500      CL =  0.4406
      Cm = -0.1212     CD =  0.00716   =>   CDf =  0.00529    CDp =  0.00187

 Side 1  free  transition at x/c =  0.8003   65
 Side 2  free  transition at x/c =  0.5212   48

   8   rms: 0.7595E-01   max: -.1388E+01   C at   48  2   RLX: 0.360
       a = -0.500      CL =  0.4441
      Cm = -0.1211     CD =  0.00713   =>   CDf =  0.00524    CDp =  0.00189

 Side 1  free  transition at x/c =  0.7990   65
 Side 2  free  transition at x/c =  0.5365   49

   9   rms: 0.4972E-01   max: -.8799E+00   C at   49  2   RLX: 0.568
       a = -0.500      CL =  0.4476
      Cm = -0.1209     CD =  0.00710   =>   CDf =  0.00521    CDp =  0.00189

 Side 1  free  transition at x/c =  0.7977   65
 Side 2  free  transition at x/c =  0.5513   49

  10   rms: 0.1366E-01   max: -.2050E+00   C at   49  2
       a = -0.500      CL =  0.4506
      Cm = -0.1208     CD =  0.00714   =>   CDf =  0.00518    CDp =  0.00195

 Side 1  free  transition at x/c =  0.7968   65
 Side 2  free  transition at x/c =  0.5852   52

  11   rms: 0.2012E-01   max: 0.3563E+00   C at   52  2
       a = -0.500      CL =  0.4503
      Cm = -0.1207     CD =  0.00710   =>   CDf =  0.00507    CDp =  0.00203

 Side 1  free  transition at x/c =  0.7968   65
 Side 2  free  transition at x/c =  0.5728   51

  12   rms: 0.1900E-02   max: -.3061E-01   D at   54  2
       a = -0.500      CL =  0.4502
      Cm = -0.1207     CD =  0.00710   =>   CDf =  0.00511    CDp =  0.00199

 Side 1  free  transition at x/c =  0.7968   65
 Side 2  free  transition at x/c =  0.5719   51

  13   rms: 0.2030E-04   max: -.3855E-03   D at   54  2
       a = -0.500      CL =  0.4502
      Cm = -0.1207     CD =  0.00710   =>   CDf =  0.00511    CDp =  0.00199
 plradd ia,ip,cpol            8           0  0.35301232    

 Point added to stored polar  1
 Point written to save file  raf32md_Re500k.base.pol                         
 Dump file unspecified or not available
 Calculating wake trajectory ...
 Calculating source influence matrix ...

 Solving BL system ...

 Side 1  free  transition at x/c =  0.7968   65
 Side 2  free  transition at x/c =  0.5719   51

   1   rms: 0.1644E+00   max: -.2385E+01   C at   51  2   RLX: 0.210
       a =  0.000      CL =  0.4606
      Cm = -0.1204     CD =  0.00705   =>   CDf =  0.00510    CDp =  0.00195

 Side 1  free  transition at x/c =  0.7933   66
 Side 2  free  transition at x/c =  0.5948   51

   2   rms: 0.9290E-01   max: 0.4061E+00   C at   53  2
       a =  0.000      CL =  0.5043
      Cm = -0.1202     CD =  0.00719   =>   CDf =  0.00509    CDp =  0.00210

 Side 1  free  transition at x/c =  0.7818   65
 Side 2  free  transition at x/c =  0.7024   58

   3   rms: 0.4980E-01   max: 0.8282E+00   D at   51  2
       a =  0.000      CL =  0.5004
      Cm = -0.1193     CD =  0.00684   =>   CDf =  0.00494    CDp =  0.00190

 Side 1  free  transition at x/c =  0.7819   65
 Side 2  free  transition at x/c =  0.7028   58

   4   rms: 0.1689E-01   max: 0.1712E+00   D at   51  2
       a =  0.000      CL =  0.5003
      Cm = -0.1193     CD =  0.00681   =>   CDf =  0.00479    CDp =  0.00202

 Side 1  free  transition at x/c =  0.7818   65
 Side 2  free  transition at x/c =  0.6825   57

   5   rms: 0.3218E-02   max: -.4473E-01   D at   58  2
       a =  0.000      CL =  0.5010
      Cm = -0.1195     CD =  0.00687   =>   CDf =  0.00483    CDp =  0.00204

 Side 1  free  transition at x/c =  0.7818   65
 Side 2  free  transition at x/c =  0.6788   57

   6   rms: 0.2994E-03   max: -.4912E-02   C at   57  2
       a =  0.000      CL =  0.5011
      Cm = -0.1195     CD =  0.00687   =>   CDf =  0.00484    CDp =  0.00204

 Side 1  free  transition at x/c =  0.7818   65
 Side 2  free  transition at x/c =  0.6789   57

   7   rms: 0.1343E-05   max: -.1846E-04   C at   57  2
       a =  0.000      CL =  0.5011
      Cm = -0.1195     CD =  0.00687   =>   CDf =  0.00484    CDp =  0.00204
 plradd ia,ip,cpol            9           0  0.33806068    

 Point added to stored polar  1
 Point written to save file  raf32md_Re500k.base.pol                         
 Dump file unspecified or not available
 Calculating wake trajectory ...
 Calculating source influence matrix ...

 Solving BL system ...

 Side 1  free  transition at x/c =  0.7818   65
 Side 2  free  transition at x/c =  0.6789   57

   1   rms: 0.1540E+00   max: -.2303E+01   C at   57  2   RLX: 0.217
       a =  0.500      CL =  0.5115
      Cm = -0.1191     CD =  0.00681   =>   CDf =  0.00484    CDp =  0.00197

 Side 1  free  transition at x/c =  0.7780   65
 Side 2  free  transition at x/c =  0.6955   58

   2   rms: 0.1179E+00   max: -.1750E+01   C at   58  2   RLX: 0.286
       a =  0.500      CL =  0.5231
      Cm = -0.1190     CD =  0.00680   =>   CDf =  0.00481    CDp =  0.00199

 Side 1  free  transition at x/c =  0.7746   65
 Side 2  free  transition at x/c =  0.7112   59

   3   rms: 0.9213E-01   max: -.1447E+01   C at   59  2   RLX: 0.346
       a =  0.500      CL =  0.5335
      Cm = -0.1189     CD =  0.00679   =>   CDf =  0.00476    CDp =  0.00203

 Side 1  free  transition at x/c =  0.7722   65
 Side 2  free  transition at x/c =  0.7253   59

   4   rms: 0.7562E-01   max: -.1281E+01   C at   59  2   RLX: 0.390
       a =  0.500      CL =  0.5403
      Cm = -0.1186     CD =  0.00675   =>   CDf =  0.00478    CDp =  0.00197

 Side 1  free  transition at x/c =  0.7697   65
 Side 2  free  transition at x/c =  0.7391   60

   5   rms: 0.6404E-01   max: -.1134E+01   C at   60  2   RLX: 0.441
       a =  0.500      CL =  0.5448
      Cm = -0.1184     CD =  0.00671   =>   CDf =  0.00472    CDp =  0.00199

 Side 1  free  transition at x/c =  0.7681   65
 Side 2  free  transition at x/c =  0.7525   61

   6   rms: 0.5206E-01   max: -.9452E+00   C at   61  2   RLX: 0.529
       a =  0.500      CL =  0.5477
      Cm = -0.1182     CD =  0.00667   =>   CDf =  0.00468    CDp =  0.00199

 Side 1  free  transition at x/c =  0.7670   65
 Side 2  free  transition at x/c =  0.7670   62

   7   rms: 0.3803E-01   max: -.7013E+00   C at   62  2   RLX: 0.713
       a =  0.500      CL =  0.5491
      Cm = -0.1179     CD =  0.00662   =>   CDf =  0.00462    CDp =  0.00200

 Side 1  free  transition at x/c =  0.7664   65
 Side 2  free  transition at x/c =  0.7827   63

   8   rms: 0.2031E-01   max: -.3809E+00   C at   63  2
       a =  0.500      CL =  0.5495
      Cm = -0.1176     CD =  0.00659   =>   CDf =  0.00456    CDp =  0.00203

 Side 1  free  transition at x/c =  0.7662   65
 Side 2  free  transition at x/c =  0.7957   64

   9   rms: 0.4506E-02   max: -.8498E-01   C at   64  2
       a =  0.500      CL =  0.5495
      Cm = -0.1176     CD =  0.00659   =>   CDf =  0.00451    CDp =  0.00208

 Side 1  free  transition at x/c =  0.7662   65
 Side 2  free  transition at x/c =  0.7981   64

  10   rms: 0.5195E-04   max: -.9669E-03   C at   64  2
       a =  0.500      CL =  0.5495
      Cm = -0.1176     CD =  0.00659   =>   CDf =  0.00450    CDp =  0.00209
 plradd ia,ip,cpol           10           0  0.30822554    

 Point added to stored polar  1
 Point written to save file  raf32md_Re500k.base.pol                         
 Dump file unspecified or not available
 Calculating wake trajectory ...
 Calculating source influence matrix ...

 Solving BL system ...

 Side 1  free  transition at x/c =  0.7662   65
 Side 2  free  transition at x/c =  0.7981   64

   1   rms: 0.2130E+00   max: -.3722E+01   C at   64  2   RLX: 0.134
       a =  1.000      CL =  0.5553
      Cm = -0.1172     CD =  0.00652   =>   CDf =  0.00450    CDp =  0.00202

 Side 1  free  transition at x/c =  0.7638   65
 Side 2  free  transition at x/c =  0.8165   65

   2   rms: 0.2191E+00   max: -.3888E+01   C at   65  2   RLX: 0.129
       a =  1.000      CL =  0.5605
      Cm = -0.1170     CD =  0.00648   =>   CDf =  0.00444    CDp =  0.00204

 Side 1  free  transition at x/c =  0.7620   65
 Side 2  free  transition at x/c =  0.8359   66

   3   rms: 0.2682E+00   max: -.4731E+01   C at   66  2   RLX: 0.106
       a =  1.000      CL =  0.5642
      Cm = -0.1168     CD =  0.00644   =>   CDf =  0.00439    CDp =  0.00205

 Side 1  free  transition at x/c =  0.7608   65
 Side 2  free  transition at x/c =  0.8545   67

   4   rms: 0.3539E+00   max: -.6074E+01   C at   67  2   RLX: 0.082
       a =  1.000      CL =  0.5671
      Cm = -0.1167     CD =  0.00639   =>   CDf =  0.00434    CDp =  0.00206

 Side 1  free  transition at x/c =  0.7600   65
 Side 2  free  transition at x/c =  0.8717   69

   5   rms: 0.4057E+00   max: -.7152E+01   C at   69  2   RLX: 0.070
       a =  1.000      CL =  0.5703
      Cm = -0.1169     CD =  0.00635   =>   CDf =  0.00429    CDp =  0.00206

 Side 1  free  transition at x/c =  0.7595   65
 Side 2  free  transition at x/c =  0.8914   70

   6   rms: 0.6329E+00   max: -.1037E+02   C at   70  2   RLX: 0.048
       a =  1.000      CL =  0.5746
      Cm = -0.1174     CD =  0.00632   =>   CDf =  0.00425    CDp =  0.00207

 Side 1  free  transition at x/c =  0.7592   65
 Side 2  free  transition at x/c =  0.9111   71

   7   rms: 0.7214E+00   max: -.1081E+02   C at   71  2   RLX: 0.046
       a =  1.000      CL =  0.5815
      Cm = -0.1187     CD =  0.00630   =>   CDf =  0.00422    CDp =  0.00207

 Side 1  free  transition at x/c =  0.7590   65
 Side 2  free  transition at x/c =  0.9710   76

   8   rms: 0.2724E+01   max: -.4103E+02   C at   76  2   RLX: 0.012
       a =  1.000      CL =  0.5867
      Cm = -0.1196     CD =  0.00614   =>   CDf =  0.00419    CDp =  0.00194

 Side 1  free  transition at x/c =  0.7590   65
 Side 2  free  transition at x/c =  0.9648   75

   9   rms: 0.4225E+00   max: -.5914E+01   C at   75  2   RLX: 0.085
       a =  1.000      CL =  0.5974
      Cm = -0.1215     CD =  0.00620   =>   CDf =  0.00419    CDp =  0.00201

 Side 1  free  transition at x/c =  0.7586   65
 Side 2  free  transition at x/c =  0.9937   78

  10   rms: 0.1714E+00   max: 0.2821E+01   C at   78  2   RLX: 0.532
       a =  1.000      CL =  0.6333
      Cm = -0.1264     CD =  0.00628   =>   CDf =  0.00419    CDp =  0.00209

 Side 1  free  transition at x/c =  0.7559   65
 Side 2 forced transition at x/c =  1.0000   78

  11   rms: 0.3291E-01   max: -.4855E+00   C at   78  2
       a =  1.000      CL =  0.6252
      Cm = -0.1217     CD =  0.00631   =>   CDf =  0.00422    CDp =  0.00209

 Side 1  free  transition at x/c =  0.7495   65
 Side 2 forced transition at x/c =  1.0000   78

  12   rms: 0.7477E-02   max: 0.1051E+00   C at   78  2
       a =  1.000      CL =  0.6298
      Cm = -0.1227     CD =  0.00632   =>   CDf =  0.00424    CDp =  0.00207

 Side 1  free  transition at x/c =  0.7506   65
 Side 2 forced transition at x/c =  1.0000   78

  13   rms: 0.2888E-03   max: 0.4658E-02   C at   78  2
       a =  1.000      CL =  0.6300
      Cm = -0.1228     CD =  0.00632   =>   CDf =  0.00423    CDp =  0.00209

 Side 1  free  transition at x/c =  0.7505   65
 Side 2 forced transition at x/c =  1.0000   78

  14   rms: 0.1060E-05   max: 0.1026E-04   C at   78  2
       a =  1.000      CL =  0.6300
      Cm = -0.1228     CD =  0.00632   =>   CDf =  0.00423    CDp =  0.00209
 plradd ia,ip,cpol           11           0  0.29338062    

 Point added to stored polar  1
 Point written to save file  raf32md_Re500k.base.pol                         
 Dump file unspecified or not available
 Calculating wake trajectory ...
 Calculating source influence matrix ...

 Solving BL system ...

 Side 1  free  transition at x/c =  0.7505   65
 Side 2 forced transition at x/c =  1.0000   78

   1   rms: 0.8968E-01   max: -.2065E+00   n at   77  2
       a =  1.500      CL =  0.6810
      Cm = -0.1217     CD =  0.00644   =>   CDf =  0.00423    CDp =  0.00221

 Side 1  free  transition at x/c =  0.7320   64
 Side 2 forced transition at x/c =  1.0000   78

   2   rms: 0.1383E-01   max: -.2023E+00   D at   64  1
       a =  1.500      CL =  0.6817
      Cm = -0.1218     CD =  0.00645   =>   CDf =  0.00437    CDp =  0.00208

 Side 1  free  transition at x/c =  0.7335   64
 Side 2 forced transition at x/c =  1.0000   78

   3   rms: 0.1982E-02   max: 0.2575E-01   C at   64  1
       a =  1.500      CL =  0.6817
      Cm = -0.1218     CD =  0.00646   =>   CDf =  0.00432    CDp =  0.00215

 Side 1  free  transition at x/c =  0.7328   64
 Side 2 forced transition at x/c =  1.0000   78

   4   rms: 0.3941E-04   max: -.7151E-03   D at   66  1
       a =  1.500      CL =  0.6817
      Cm = -0.1218     CD =  0.00646   =>   CDf =  0.00433    CDp =  0.00214
 plradd ia,ip,cpol           12           0  0.27861401    

 Point added to stored polar  1
 Point written to save file  raf32md_Re500k.base.pol                         
 Dump file unspecified or not available
 Calculating wake trajectory ...
 Calculating source influence matrix ...

 Solving BL system ...

 Side 1  free  transition at x/c =  0.7328   64
 Side 2 forced transition at x/c =  1.0000   78

   1   rms: 0.8690E-01   max: -.1270E+00   n at   77  2
       a =  2.000      CL =  0.7338
      Cm = -0.1210     CD =  0.00663   =>   CDf =  0.00430    CDp =  0.00233

 Side 1  free  transition at x/c =  0.7153   64
 Side 2 forced transition at x/c =  1.0000   77

   2   rms: 0.1621E-01   max: -.2404E+00   D at   64  1
       a =  2.000      CL =  0.7334
      Cm = -0.1209     CD =  0.00661   =>   CDf =  0.00443    CDp =  0.00218

 Side 1  free  transition at x/c =  0.7152   64
 Side 2 forced transition at x/c =  1.0000   77

   3   rms: 0.1997E-02   max: 0.2439E-01   C at   64  1
       a =  2.000      CL =  0.7335
      Cm = -0.1209     CD =  0.00664   =>   CDf =  0.00441    CDp =  0.00223

 Side 1  free  transition at x/c =  0.7147   64
 Side 2 forced transition at x/c =  1.0000   77

   4   rms: 0.3648E-04   max: -.5474E-03   D at   66  1
       a =  2.000      CL =  0.7335
      Cm = -0.1209     CD =  0.00664   =>   CDf =  0.00442    CDp =  0.00222
 plradd ia,ip,cpol           13           0  0.24934632    

 Point added to stored polar  1
 Point written to save file  raf32md_Re500k.base.pol                         
 Dump file unspecified or not available
 Calculating wake trajectory ...
 Calculating source influence matrix ...

 Solving BL system ...

 Side 1  free  transition at x/c =  0.7147   64
 Side 2 forced transition at x/c =  1.0000   77

   1   rms: 0.8857E-01   max: -.1046E+00   n at   76  2
       a =  2.500      CL =  0.7861
      Cm = -0.1201     CD =  0.00688   =>   CDf =  0.00437    CDp =  0.00251

 Side 1  free  transition at x/c =  0.6922   63
 Side 2 forced transition at x/c =  1.0000   76

   2   rms: 0.1676E-01   max: 0.3057E+00   D at   64  1
       a =  2.500      CL =  0.7838
      Cm = -0.1197     CD =  0.00684   =>   CDf =  0.00451    CDp =  0.00233

 Side 1  free  transition at x/c =  0.6933   63
 Side 2 forced transition at x/c =  1.0000   76

   3   rms: 0.2477E-02   max: 0.3091E-01   C at   63  1
       a =  2.500      CL =  0.7841
      Cm = -0.1197     CD =  0.00682   =>   CDf =  0.00447    CDp =  0.00235

 Side 1  free  transition at x/c =  0.6924   63
 Side 2 forced transition at x/c =  1.0000   76

   4   rms: 0.3168E-04   max: -.4055E-03   C at   63  1
       a =  2.500      CL =  0.7841
      Cm = -0.1197     CD =  0.00682   =>   CDf =  0.00447    CDp =  0.00234
 plradd ia,ip,cpol           14           0  2.33107153E-02

 Point added to stored polar  1
 Point written to save file  raf32md_Re500k.base.pol                         
 Dump file unspecified or not available
 Calculating wake trajectory ...
 Calculating source influence matrix ...

 Solving BL system ...

 Side 1  free  transition at x/c =  0.6924   63
 Side 2 forced transition at x/c =  1.0000   76

   1   rms: 0.8475E-01   max: -.1070E+00   C at   76  2
       a =  3.000      CL =  0.8340
      Cm = -0.1184     CD =  0.00699   =>   CDf =  0.00448    CDp =  0.00251

 Side 1  free  transition at x/c =  0.6545   61
 Side 2 forced transition at x/c =  1.0000   76

   2   rms: 0.2648E-01   max: 0.3913E+00   D at   62  1
       a =  3.000      CL =  0.8308
      Cm = -0.1177     CD =  0.00703   =>   CDf =  0.00475    CDp =  0.00228

 Side 1  free  transition at x/c =  0.6661   61
 Side 2 forced transition at x/c =  1.0000   76

   3   rms: 0.6472E-02   max: 0.9965E-01   C at   61  1
       a =  3.000      CL =  0.8329
      Cm = -0.1181     CD =  0.00704   =>   CDf =  0.00456    CDp =  0.00248

 Side 1  free  transition at x/c =  0.6625   61
 Side 2 forced transition at x/c =  1.0000   76

   4   rms: 0.4250E-03   max: -.6299E-02   C at   61  1
       a =  3.000      CL =  0.8329
      Cm = -0.1181     CD =  0.00704   =>   CDf =  0.00458    CDp =  0.00246

 Side 1  free  transition at x/c =  0.6626   61
 Side 2 forced transition at x/c =  1.0000   76

   5   rms: 0.2691E-05   max: -.1367E-04   D at   85  1
       a =  3.000      CL =  0.8329
      Cm = -0.1181     CD =  0.00704   =>   CDf =  0.00458    CDp =  0.00246
 plradd ia,ip,cpol           15           0  2.33107153E-02

 Point added to stored polar  1
 Point written to save file  raf32md_Re500k.base.pol                         
 Dump file unspecified or not available
 Calculating wake trajectory ...
 Calculating source influence matrix ...

 Solving BL system ...

 Side 1  free  transition at x/c =  0.6626   61
 Side 2 forced transition at x/c =  1.0000   76

   1   rms: 0.8828E-01   max: -.1112E+00   C at   76  2
       a =  3.500      CL =  0.8809
      Cm = -0.1164     CD =  0.00726   =>   CDf =  0.00450    CDp =  0.00275

 Side 1  free  transition at x/c =  0.6264   60
 Side 2 forced transition at x/c =  1.0000   75

   2   rms: 0.2050E-01   max: 0.3279E+00   D at   61  1
       a =  3.500      CL =  0.8805
      Cm = -0.1163     CD =  0.00734   =>   CDf =  0.00476    CDp =  0.00258

 Side 1  free  transition at x/c =  0.6325   60
 Side 2 forced transition at x/c =  1.0000   75

   3   rms: 0.4665E-02   max: 0.7963E-01   C at   60  1
       a =  3.500      CL =  0.8811
      Cm = -0.1164     CD =  0.00732   =>   CDf =  0.00465    CDp =  0.00267

 Side 1  free  transition at x/c =  0.6305   60
 Side 2 forced transition at x/c =  1.0000   75

   4   rms: 0.7610E-04   max: -.1084E-02   D at   60  1
       a =  3.500      CL =  0.8811
      Cm = -0.1164     CD =  0.00733   =>   CDf =  0.00468    CDp =  0.00265
 plradd ia,ip,cpol           16           0  2.33107153E-02

 Point added to stored polar  1
 Point written to save file  raf32md_Re500k.base.pol                         
 Dump file unspecified or not available
 Calculating wake trajectory ...
 Calculating source influence matrix ...

 Solving BL system ...

 Side 1  free  transition at x/c =  0.6305   60
 Side 2 forced transition at x/c =  1.0000   75

   1   rms: 0.8628E-01   max: 0.4040E+00   C at   60  1
       a =  4.000      CL =  0.9298
      Cm = -0.1149     CD =  0.00761   =>   CDf =  0.00458    CDp =  0.00304

 Side 1  free  transition at x/c =  0.5963   59
 Side 2 forced transition at x/c =  1.0000   74

   2   rms: 0.1833E-01   max: 0.2954E+00   D at   60  1
       a =  4.000      CL =  0.9290
      Cm = -0.1148     CD =  0.00765   =>   CDf =  0.00481    CDp =  0.00284

 Side 1  free  transition at x/c =  0.6024   59
 Side 2 forced transition at x/c =  1.0000   74

   3   rms: 0.3447E-02   max: 0.5631E-01   C at   59  1
       a =  4.000      CL =  0.9294
      Cm = -0.1149     CD =  0.00764   =>   CDf =  0.00472    CDp =  0.00292

 Side 1  free  transition at x/c =  0.6006   59
 Side 2 forced transition at x/c =  1.0000   74

   4   rms: 0.6996E-04   max: -.1054E-02   C at   59  1
       a =  4.000      CL =  0.9294
      Cm = -0.1149     CD =  0.00764   =>   CDf =  0.00474    CDp =  0.00291
 plradd ia,ip,cpol           17           0  2.33107153E-02

 Point added to stored polar  1
 Point written to save file  raf32md_Re500k.base.pol                         
 Dump file unspecified or not available
 Calculating wake trajectory ...
 Calculating source influence matrix ...

 Solving BL system ...

 Side 1  free  transition at x/c =  0.6006   59
 Side 2 forced transition at x/c =  1.0000   74

   1   rms: 0.8897E-01   max: 0.5021E+00   C at   59  1
       a =  4.500      CL =  0.9767
      Cm = -0.1131     CD =  0.00798   =>   CDf =  0.00474    CDp =  0.00324

 Side 1  free  transition at x/c =  0.5586   56
 Side 2 forced transition at x/c =  1.0000   74

   2   rms: 0.2174E-01   max: -.3341E+00   D at   57  1
       a =  4.500      CL =  0.9752
      Cm = -0.1128     CD =  0.00809   =>   CDf =  0.00490    CDp =  0.00319

 Side 1  free  transition at x/c =  0.5652   57
 Side 2 forced transition at x/c =  1.0000   74

   3   rms: 0.1771E-02   max: -.2156E-01   D at   56  1
       a =  4.500      CL =  0.9758
      Cm = -0.1129     CD =  0.00803   =>   CDf =  0.00483    CDp =  0.00320

 Side 1  free  transition at x/c =  0.5643   57
 Side 2 forced transition at x/c =  1.0000   74

   4   rms: 0.6205E-04   max: 0.9408E-03   C at   57  1
       a =  4.500      CL =  0.9758
      Cm = -0.1129     CD =  0.00803   =>   CDf =  0.00483    CDp =  0.00320
 plradd ia,ip,cpol           18           0  2.57133762E-03

 Point added to stored polar  1
 Point written to save file  raf32md_Re500k.base.pol                         
 Dump file unspecified or not available
 Calculating wake trajectory ...
 Calculating source influence matrix ...

 Solving BL system ...

 Side 1  free  transition at x/c =  0.5643   57
 Side 2 forced transition at x/c =  1.0000   74

   1   rms: 0.9897E-01   max: 0.8037E+00   C at   57  1   RLX: 0.923
       a =  5.000      CL =  1.0157
      Cm = -0.1106     CD =  0.00857   =>   CDf =  0.00470    CDp =  0.00387

 Side 1  free  transition at x/c =  0.5239   55
 Side 2 forced transition at x/c =  1.0000   73

   2   rms: 0.2028E-01   max: 0.2402E+00   D at   57  1
       a =  5.000      CL =  1.0212
      Cm = -0.1108     CD =  0.00845   =>   CDf =  0.00492    CDp =  0.00353

 Side 1  free  transition at x/c =  0.5233   55
 Side 2 forced transition at x/c =  1.0000   73

   3   rms: 0.2040E-02   max: -.3065E-01   D at   57  1
       a =  5.000      CL =  1.0211
      Cm = -0.1108     CD =  0.00847   =>   CDf =  0.00490    CDp =  0.00358

 Side 1  free  transition at x/c =  0.5225   55
 Side 2 forced transition at x/c =  1.0000   73

   4   rms: 0.2964E-04   max: -.6037E-03   D at   57  1
       a =  5.000      CL =  1.0211
      Cm = -0.1108     CD =  0.00848   =>   CDf =  0.00490    CDp =  0.00357
 plradd ia,ip,cpol           19           0  1.48251222E-03

 Point added to stored polar  1
 Point written to save file  raf32md_Re500k.base.pol                         
 Dump file unspecified or not available
 Calculating wake trajectory ...
 Calculating source influence matrix ...

 Solving BL system ...

 Side 1  free  transition at x/c =  0.5225   55
 Side 2 forced transition at x/c =  1.0000   73

   1   rms: 0.9884E-01   max: 0.9718E+00   C at   55  1
       a =  5.500      CL =  1.0640
      Cm = -0.1083     CD =  0.00904   =>   CDf =  0.00491    CDp =  0.00414

 Side 1  free  transition at x/c =  0.4481   50
 Side 2 forced transition at x/c =  1.0000   73

   2   rms: 0.2678E-01   max: -.3457E+00   C at   50  1
       a =  5.500      CL =  1.0611
      Cm = -0.1077     CD =  0.00911   =>   CDf =  0.00521    CDp =  0.00391

 Side 1  free  transition at x/c =  0.4608   51
 Side 2 forced transition at x/c =  1.0000   73

   3   rms: 0.3871E-02   max: 0.6593E-01   C at   51  1
       a =  5.500      CL =  1.0612
      Cm = -0.1077     CD =  0.00915   =>   CDf =  0.00510    CDp =  0.00405

 Side 1  free  transition at x/c =  0.4594   51
 Side 2 forced transition at x/c =  1.0000   73

   4   rms: 0.6336E-04   max: -.8561E-03   D at   53  1
       a =  5.500      CL =  1.0611
      Cm = -0.1077     CD =  0.00916   =>   CDf =  0.00512    CDp =  0.00404
 plradd ia,ip,cpol           20           0  1.48251222E-03

 Point added to stored polar  1
 Point written to save file  raf32md_Re500k.base.pol                         
 Dump file unspecified or not available
 Calculating wake trajectory ...
 Calculating source influence matrix ...

 Solving BL system ...

 Side 1  free  transition at x/c =  0.4594   51
 Side 2 forced transition at x/c =  1.0000   73

   1   rms: 0.1602E+00   max: 0.2403E+01   C at   51  1   RLX: 0.472
       a =  6.000      CL =  1.0744
      Cm = -0.1053     CD =  0.00975   =>   CDf =  0.00512    CDp =  0.00463

 Side 1  free  transition at x/c =  0.4000   47
 Side 2 forced transition at x/c =  1.0000   73

   2   rms: 0.8936E-01   max: 0.1359E+01   C at   47  1   RLX: 0.968
       a =  6.000      CL =  1.0869
      Cm = -0.1024     CD =  0.01061   =>   CDf =  0.00541    CDp =  0.00520

 Side 1  free  transition at x/c =  0.3234   42
 Side 2 forced transition at x/c =  1.0000   73

   3   rms: 0.1839E-01   max: -.1965E+00   C at   42  1
       a =  6.000      CL =  1.0873
      Cm = -0.1024     CD =  0.01061   =>   CDf =  0.00581    CDp =  0.00480

 Side 1  free  transition at x/c =  0.3273   42
 Side 2 forced transition at x/c =  1.0000   73

   4   rms: 0.6740E-03   max: 0.1034E-01   C at   42  1
       a =  6.000      CL =  1.0871
      Cm = -0.1023     CD =  0.01063   =>   CDf =  0.00577    CDp =  0.00486

 Side 1  free  transition at x/c =  0.3271   42
 Side 2 forced transition at x/c =  1.0000   73

   5   rms: 0.3373E-05   max: -.3244E-04   C at   42  1
       a =  6.000      CL =  1.0871
      Cm = -0.1023     CD =  0.01063   =>   CDf =  0.00577    CDp =  0.00486
 plradd ia,ip,cpol           21           0  6.93773327E-04

 Point added to stored polar  1
 Point written to save file  raf32md_Re500k.base.pol                         
 Dump file unspecified or not available
 Calculating wake trajectory ...
 Calculating source influence matrix ...

 Solving BL system ...

 Side 1  free  transition at x/c =  0.3271   42
 Side 2 forced transition at x/c =  1.0000   73

   1   rms: 0.2716E+00   max: 0.5303E+01   C at   42  1   RLX: 0.283
       a =  6.500      CL =  1.0925
      Cm = -0.1006     CD =  0.01123   =>   CDf =  0.00560    CDp =  0.00563

 Side 1  free  transition at x/c =  0.2788   40
 Side 2 forced transition at x/c =  1.0000   72

   2   rms: 0.1765E+00   max: 0.3206E+01   C at   40  1   RLX: 0.468
       a =  6.500      CL =  1.0973
      Cm = -0.0983     CD =  0.01205   =>   CDf =  0.00603    CDp =  0.00602

 Side 1  free  transition at x/c =  0.2228   36
 Side 2 forced transition at x/c =  1.0000   72

   3   rms: 0.9474E-01   max: 0.1784E+01   C at   36  1   RLX: 0.841
       a =  6.500      CL =  1.1030
      Cm = -0.0963     CD =  0.01278   =>   CDf =  0.00633    CDp =  0.00644

 Side 1  free  transition at x/c =  0.1784   33
 Side 2 forced transition at x/c =  1.0000   72

   4   rms: 0.1397E-01   max: 0.1324E+00   C at   33  1
       a =  6.500      CL =  1.1051
      Cm = -0.0960     CD =  0.01282   =>   CDf =  0.00659    CDp =  0.00622

 Side 1  free  transition at x/c =  0.1732   32
 Side 2 forced transition at x/c =  1.0000   72

   5   rms: 0.1014E-02   max: 0.2133E-01   C at   32  1
       a =  6.500      CL =  1.1052
      Cm = -0.0960     CD =  0.01280   =>   CDf =  0.00662    CDp =  0.00618

 Side 1  free  transition at x/c =  0.1729   32
 Side 2 forced transition at x/c =  1.0000   72

   6   rms: 0.4668E-05   max: -.4173E-04   D at   33  1
       a =  6.500      CL =  1.1052
      Cm = -0.0960     CD =  0.01280   =>   CDf =  0.00662    CDp =  0.00618
 plradd ia,ip,cpol           22           0  6.93773327E-04

 Point added to stored polar  1
 Point written to save file  raf32md_Re500k.base.pol                         
 Dump file unspecified or not available
 Calculating wake trajectory ...
 Calculating source influence matrix ...

 Solving BL system ...

 Side 1  free  transition at x/c =  0.1729   32
 Side 2 forced transition at x/c =  1.0000   72

   1   rms: 0.2421E+00   max: 0.5163E+01   C at   32  1   RLX: 0.291
       a =  7.000      CL =  1.1127
      Cm = -0.0946     CD =  0.01333   =>   CDf =  0.00662    CDp =  0.00671

 Side 1  free  transition at x/c =  0.1401   30
 Side 2 forced transition at x/c =  1.0000   72

   2   rms: 0.1350E+00   max: 0.2651E+01   C at   30  1   RLX: 0.566
       a =  7.000      CL =  1.1227
      Cm = -0.0927     CD =  0.01404   =>   CDf =  0.00680    CDp =  0.00723

 Side 1  free  transition at x/c =  0.0990   27
 Side 2 forced transition at x/c =  1.0000   72

   3   rms: 0.5053E-01   max: 0.9203E+00   C at   27  1
       a =  7.000      CL =  1.1286
      Cm = -0.0907     CD =  0.01463   =>   CDf =  0.00705    CDp =  0.00758

 Side 1  free  transition at x/c =  0.0826   26
 Side 2 forced transition at x/c =  1.0000   72

   4   rms: 0.4394E-02   max: 0.7750E-01   D at   26  1
       a =  7.000      CL =  1.1280
      Cm = -0.0906     CD =  0.01455   =>   CDf =  0.00716    CDp =  0.00740

 Side 1  free  transition at x/c =  0.0836   26
 Side 2 forced transition at x/c =  1.0000   72

   5   rms: 0.2654E-03   max: 0.4464E-02   C at   26  1
       a =  7.000      CL =  1.1280
      Cm = -0.0906     CD =  0.01455   =>   CDf =  0.00714    CDp =  0.00741

 Side 1  free  transition at x/c =  0.0835   26
 Side 2 forced transition at x/c =  1.0000   72

   6   rms: 0.2874E-05   max: -.1551E-04   C at   26  1
       a =  7.000      CL =  1.1280
      Cm = -0.0906     CD =  0.01455   =>   CDf =  0.00714    CDp =  0.00741
 plradd ia,ip,cpol           23           0  6.93773327E-04

 Point added to stored polar  1
 Point written to save file  raf32md_Re500k.base.pol                         
 Dump file unspecified or not available
 Calculating wake trajectory ...
 Calculating source influence matrix ...

 Solving BL system ...

 Side 1  free  transition at x/c =  0.0835   26
 Side 2 forced transition at x/c =  1.0000   72

   1   rms: 0.1253E+00   max: 0.1714E+01   C at   26  1   RLX: 0.543
       a =  7.500      CL =  1.1415
      Cm = -0.0877     CD =  0.01540   =>   CDf =  0.00714    CDp =  0.00826

 Side 1  free  transition at x/c =  0.0698   25
 Side 2 forced transition at x/c =  1.0000   72

   2   rms: 0.4500E-01   max: 0.3051E+00   C at   25  1
       a =  7.500      CL =  1.1572
      Cm = -0.0860     CD =  0.01577   =>   CDf =  0.00702    CDp =  0.00875

 Side 1  free  transition at x/c =  0.0620   25
 Side 2 forced transition at x/c =  1.0000   71

   3   rms: 0.1038E-01   max: -.1310E+00   D at   25  1
       a =  7.500      CL =  1.1586
      Cm = -0.0862     CD =  0.01563   =>   CDf =  0.00718    CDp =  0.00846

 Side 1  free  transition at x/c =  0.0620   25
 Side 2 forced transition at x/c =  1.0000   71

   4   rms: 0.1031E-02   max: 0.1373E-01   C at   25  1
       a =  7.500      CL =  1.1584
      Cm = -0.0862     CD =  0.01566   =>   CDf =  0.00718    CDp =  0.00847

 Side 1  free  transition at x/c =  0.0619   25
 Side 2 forced transition at x/c =  1.0000   71

   5   rms: 0.7274E-05   max: 0.3758E-04   D at   90  1
       a =  7.500      CL =  1.1584
      Cm = -0.0862     CD =  0.01566   =>   CDf =  0.00718    CDp =  0.00847
 plradd ia,ip,cpol           24           0  6.93773327E-04

 Point added to stored polar  1
 Point written to save file  raf32md_Re500k.base.pol                         
 Dump file unspecified or not available
 Calculating wake trajectory ...
 Calculating source influence matrix ...

 Solving BL system ...

 Side 1  free  transition at x/c =  0.0619   25
 Side 2 forced transition at x/c =  1.0000   71

   1   rms: 0.7778E-01   max: -.3539E+00   D at   25  1
       a =  8.000      CL =  1.1940
      Cm = -0.0828     CD =  0.01653   =>   CDf =  0.00719    CDp =  0.00934

 Side 1  free  transition at x/c =  0.0494   24
 Side 2 forced transition at x/c =  1.0000   71

   2   rms: 0.2227E-01   max: -.2681E+00   C at   24  1
       a =  8.000      CL =  1.1912
      Cm = -0.0824     CD =  0.01661   =>   CDf =  0.00715    CDp =  0.00946

 Side 1  free  transition at x/c =  0.0478   24
 Side 2 forced transition at x/c =  1.0000   71

   3   rms: 0.3100E-02   max: -.1936E-01   D at   25  1
       a =  8.000      CL =  1.1897
      Cm = -0.0821     CD =  0.01672   =>   CDf =  0.00717    CDp =  0.00956

 Side 1  free  transition at x/c =  0.0473   24
 Side 2 forced transition at x/c =  1.0000   71

   4   rms: 0.6025E-04   max: -.9121E-03   D at   24  1
       a =  8.000      CL =  1.1897
      Cm = -0.0821     CD =  0.01672   =>   CDf =  0.00717    CDp =  0.00955
 plradd ia,ip,cpol           25           0  6.93773327E-04

 Point added to stored polar  1
 Point written to save file  raf32md_Re500k.base.pol                         
 Dump file unspecified or not available
 Calculating wake trajectory ...
 Calculating source influence matrix ...

 Solving BL system ...

 Side 1  free  transition at x/c =  0.0473   24
 Side 2 forced transition at x/c =  1.0000   71

   1   rms: 0.8723E-01   max: -.7106E+00   D at   24  1   RLX: 0.704
       a =  8.500      CL =  1.2144
      Cm = -0.0798     CD =  0.01737   =>   CDf =  0.00717    CDp =  0.01020

 Side 1  free  transition at x/c =  0.0363   23
 Side 2 forced transition at x/c =  1.0000   71

   2   rms: 0.5257E-01   max: -.6445E+00   D at   23  1   RLX: 0.776
       a =  8.500      CL =  1.2236
      Cm = -0.0794     CD =  0.01753   =>   CDf =  0.00715    CDp =  0.01038

 Side 1  free  transition at x/c =  0.0301   22
 Side 2 forced transition at x/c =  1.0000   71

   3   rms: 0.1517E-01   max: -.1545E+00   D at   23  1
       a =  8.500      CL =  1.2169
      Cm = -0.0776     CD =  0.01806   =>   CDf =  0.00724    CDp =  0.01082

 Side 1  free  transition at x/c =  0.0285   22
 Side 2 forced transition at x/c =  1.0000   71

   4   rms: 0.1169E-02   max: 0.9123E-02   D at   22  1
       a =  8.500      CL =  1.2160
      Cm = -0.0775     CD =  0.01813   =>   CDf =  0.00726    CDp =  0.01087

 Side 1  free  transition at x/c =  0.0285   22
 Side 2 forced transition at x/c =  1.0000   71

   5   rms: 0.5711E-05   max: 0.6305E-04   D at   86  1
       a =  8.500      CL =  1.2160
      Cm = -0.0775     CD =  0.01813   =>   CDf =  0.00726    CDp =  0.01087
 plradd ia,ip,cpol           26           0  1.76971764E-04

 Point added to stored polar  1
 Point written to save file  raf32md_Re500k.base.pol                         
 Dump file unspecified or not available
 Calculating wake trajectory ...
 Calculating source influence matrix ...

 Solving BL system ...

 Side 1  free  transition at x/c =  0.0285   22
 Side 2 forced transition at x/c =  1.0000   71

   1   rms: 0.8836E-01   max: 0.5760E+00   T at   22  1
       a =  9.000      CL =  1.2453
      Cm = -0.0733     CD =  0.01950   =>   CDf =  0.00726    CDp =  0.01224

 MRCHDU: Convergence failed at  22  side 1    Res =  0.1202E+01
 MRCHDU: Convergence failed at  23  side 1    Res =  0.9326E+00
 MRCHDU: Convergence failed at  24  side 1    Res =  0.2195E+01
 MRCHDU: Convergence failed at  25  side 1    Res =  0.1062E+01
 MRCHDU: Convergence failed at  26  side 1    Res =  0.1201E+01
 MRCHDU: Convergence failed at  27  side 1    Res =  0.1542E+01
 MRCHDU: Convergence failed at  28  side 1    Res =  0.2429E+01
 MRCHDU: Convergence failed at  29  side 1    Res =  0.3035E+01
 MRCHDU: Convergence failed at  30  side 1    Res =  0.3545E+01
 MRCHDU: Convergence failed at  31  side 1    Res =  0.3840E+01
 MRCHDU: Convergence failed at  32  side 1    Res =  0.4127E+01
 MRCHDU: Convergence failed at  33  side 1    Res =  0.4676E+01
 MRCHDU: Convergence failed at  34  side 1    Res =  0.5396E+01
 MRCHDU: Convergence failed at  35  side 1    Res =  0.6381E+01
 MRCHDU: Convergence failed at  36  side 1    Res =  0.7705E+01
 MRCHDU: Convergence failed at  37  side 1    Res =  0.9032E+01
 MRCHDU: Convergence failed at  38  side 1    Res =  0.1334E+02
 MRCHDU: Convergence failed at  39  side 1    Res =  0.1629E+02
 MRCHDU: Convergence failed at  40  side 1    Res =  0.2000E+02
 MRCHDU: Convergence failed at  41  side 1    Res =  0.2984E+02
 MRCHDU: Convergence failed at  42  side 1    Res =  0.9361E+02
 MRCHDU: Convergence failed at  43  side 1    Res =  0.5279E+02
 MRCHDU: Convergence failed at  44  side 1    Res =  0.3653E+02
 MRCHDU: Convergence failed at  45  side 1    Res =  0.2812E+02
 MRCHDU: Convergence failed at  46  side 1    Res =  0.1476E+02
 MRCHDU: Convergence failed at  47  side 1    Res =  0.1572E+02
 MRCHDU: Convergence failed at  48  side 1    Res =  0.1675E+02
 MRCHDU: Convergence failed at  49  side 1    Res =  0.3161E+02
 MRCHDU: Convergence failed at  50  side 1    Res =  0.2788E+02
 MRCHDU: Convergence failed at  51  side 1    Res =  0.8551E+02
 MRCHDU: Convergence failed at  52  side 1    Res =  0.5343E+02
 MRCHDU: Convergence failed at  53  side 1    Res =  0.4028E+02
 MRCHDU: Convergence failed at  54  side 1    Res =  0.3212E+02
 MRCHDU: Convergence failed at  55  side 1    Res =  0.2672E+02
 MRCHDU: Convergence failed at  56  side 1    Res =  0.2307E+02
 MRCHDU: Convergence failed at  57  side 1    Res =  0.1422E+02
 MRCHDU: Convergence failed at  58  side 1    Res =  0.3825E+02
 MRCHDU: Convergence failed at  59  side 1    Res =  0.4114E+02
 MRCHDU: Convergence failed at  60  side 1    Res =  0.4568E+02
 MRCHDU: Convergence failed at  61  side 1    Res =  0.5158E+02
 MRCHDU: Convergence failed at  62  side 1    Res =  0.5935E+02
 MRCHDU: Convergence failed at  63  side 1    Res =  0.4891E+02
 MRCHDU: Convergence failed at  64  side 1    Res =  0.4243E+02
 MRCHDU: Convergence failed at  65  side 1    Res =  0.4885E+02
 MRCHDU: Convergence failed at  66  side 1    Res =  0.1499E+03
 MRCHDU: Convergence failed at  67  side 1    Res =  0.9296E+02
 MRCHDU: Convergence failed at  68  side 1    Res =  0.2580E+03
 MRCHDU: Convergence failed at  69  side 1    Res =  0.1176E+03
 MRCHDU: Convergence failed at  70  side 1    Res =  0.7189E+02
 MRCHDU: Convergence failed at  71  side 1    Res =  0.1140E+03
 MRCHDU: Convergence failed at  72  side 1    Res =  0.2867E+03
 MRCHDU: Convergence failed at  73  side 1    Res =  0.5201E+02
 MRCHDU: Convergence failed at  74  side 1    Res =  0.2803E+02
 MRCHDU: Convergence failed at  75  side 1    Res =  0.2890E+02
 MRCHDU: Convergence failed at  76  side 1    Res =  0.2538E+02
 MRCHDU: Convergence failed at  77  side 1    Res =  0.1838E+02
 MRCHDU: Convergence failed at  78  side 1    Res =  0.9422E+04
 MRCHDU: Convergence failed at  79  side 1    Res =  0.3645E+02
 MRCHDU: Convergence failed at  80  side 1    Res =  0.2484E+02
 MRCHDU: Convergence failed at  81  side 1    Res =  0.1015E+04
 MRCHDU: Convergence failed at  82  side 1    Res =  0.4160E+02
 MRCHDU: Convergence failed at  83  side 1    Res =  0.6187E+02
 MRCHDU: Convergence failed at  84  side 1    Res =  0.4564E+02
 MRCHDU: Convergence failed at  85  side 1    Res =  0.5391E+02
 MRCHDU: Convergence failed at  86  side 1    Res =  0.4063E+02
 MRCHDU: Convergence failed at  87  side 1    Res =  0.5000E+02
 MRCHDU: Convergence failed at  88  side 1    Res =  0.8212E+02
 MRCHDU: Convergence failed at  89  side 1    Res =  0.7782E+02
 MRCHDU: Convergence failed at  90  side 1    Res =  0.1307E+03
 MRCHDU: Convergence failed at  91  side 1    Res =  0.8602E+02
 Side 1  free  transition at x/c =  0.0212   21
 Side 2 forced transition at x/c =  1.0000   71

   2   rms: 0.1530E+01   max: 0.5483E+01   D at   91  1   RLX: 0.274
       a =  9.000      CL =  2.6642
      Cm = -0.5677     CD =  0.00544   =>   CDf =  0.00134    CDp =  0.00410

 MRCHDU: Convergence failed at  75  side 2    Res =  0.2076E+01
 MRCHDU: Convergence failed at  76  side 2    Res =  0.1253E+02
 MRCHDU: Convergence failed at  77  side 2    Res =  0.2628E+01
 MRCHDU: Convergence failed at  78  side 2    Res =  0.1782E+01
 Side 1  free  transition at x/c =  0.0218   21
 Side 2 forced transition at x/c =  1.0000   71

   3   rms: 0.6043E+00   max: 0.8894E+00   D at   79  2   RLX: 0.305
       a =  9.000      CL =  1.8847
      Cm = -0.3037     CD =  0.03224   =>   CDf =  0.00683    CDp =  0.02541

 MRCHDU: Convergence failed at  48  side 1    Res =  0.6207E-01
 Side 1  free  transition at x/c =  0.0258   22
 Side 2 forced transition at x/c =  1.0000   71

   4   rms: 0.4618E+00   max: -.1646E+01   D at   44  1   RLX: 0.304
       a =  9.000      CL =  1.6104
      Cm = -0.2146     CD =  0.03373   =>   CDf =  0.00649    CDp =  0.02724

 Side 1  free  transition at x/c =  0.0297   22
 Side 2 forced transition at x/c =  1.0000   71

   5   rms: 0.1128E+01   max: -.6460E+01   D at   42  1   RLX: 0.077
       a =  9.000      CL =  1.6063
      Cm = -0.2023     CD =  0.03404   =>   CDf =  0.00638    CDp =  0.02766

 MRCHDU: Convergence failed at  41  side 1    Res =  0.8495E+00
 Side 1  free  transition at x/c =  0.0258   22
 Side 2 forced transition at x/c =  1.0000   71

   6   rms: 0.3392E+00   max: -.1463E+01   D at   45  1   RLX: 0.342
       a =  9.000      CL =  1.4715
      Cm = -0.1541     CD =  0.03114   =>   CDf =  0.00664    CDp =  0.02450

 Side 1  free  transition at x/c =  0.0260   22
 Side 2 forced transition at x/c =  1.0000   71

   7   rms: 0.3391E+00   max: -.1316E+01   D at   61  1   RLX: 0.380
       a =  9.000      CL =  1.3524
      Cm = -0.1109     CD =  0.02666   =>   CDf =  0.00636    CDp =  0.02029

 Side 1  free  transition at x/c =  0.0250   22
 Side 2 forced transition at x/c =  1.0000   71

   8   rms: 0.4695E+00   max: -.2601E+01   D at   54  1   RLX: 0.192
       a =  9.000      CL =  1.3050
      Cm = -0.0984     CD =  0.02414   =>   CDf =  0.00646    CDp =  0.01768

 Side 1  free  transition at x/c =  0.0266   22
 Side 2 forced transition at x/c =  1.0000   71

   9   rms: 0.8956E+00   max: -.3855E+01   D at   68  1   RLX: 0.130
       a =  9.000      CL =  1.3297
      Cm = -0.0924     CD =  0.01996   =>   CDf =  0.00677    CDp =  0.01319

 MRCHDU: Convergence failed at  63  side 1    Res =  0.7481E+00
 Side 1  free  transition at x/c =  0.0227   21
 Side 2 forced transition at x/c =  1.0000   71

  10   rms: 0.3446E+00   max: -.1428E+01   D at   74  1   RLX: 0.350
       a =  9.000      CL =  1.3441
      Cm = -0.0887     CD =  0.01828   =>   CDf =  0.00697    CDp =  0.01132

 Side 1  free  transition at x/c =  0.0203   22
 Side 2 forced transition at x/c =  1.0000   70

  11   rms: 0.1646E+00   max: -.6373E+00   D at   77  1   RLX: 0.785
       a =  9.000      CL =  1.2988
      Cm = -0.0802     CD =  0.01778   =>   CDf =  0.00733    CDp =  0.01045

 Side 1  free  transition at x/c =  0.0193   22
 Side 2 forced transition at x/c =  1.0000   70
 idif Ue xi dudx           1  0.16245361      6.68954849E-03   24.284689    
 Uenew xinew           2  6.16916083E-03  2.54034996E-04

  12   rms: 0.5651E-01   max: -.2074E+00   D at   77  1
       a =  9.000      CL =  1.2424
      Cm = -0.0728     CD =  0.01957   =>   CDf =  0.00758    CDp =  0.01199

 Side 1  free  transition at x/c =  0.0210   21
 Side 2 forced transition at x/c =  1.0000   71

  13   rms: 0.1377E-01   max: -.2052E+00   D at    2  2
       a =  9.000      CL =  1.2397
      Cm = -0.0726     CD =  0.01975   =>   CDf =  0.00721    CDp =  0.01253

 Side 1  free  transition at x/c =  0.0212   21
 Side 2 forced transition at x/c =  1.0000   71

  14   rms: 0.2730E-03   max: 0.2564E-02   D at    4  2
       a =  9.000      CL =  1.2397
      Cm = -0.0726     CD =  0.01975   =>   CDf =  0.00721    CDp =  0.01254

 Side 1  free  transition at x/c =  0.0212   21
 Side 2 forced transition at x/c =  1.0000   71

  15   rms: 0.1197E-05   max: 0.1094E-04   D at   77  2
       a =  9.000      CL =  1.2397
      Cm = -0.0726     CD =  0.01975   =>   CDf =  0.00721    CDp =  0.01254
 plradd ia,ip,cpol           27           0  1.76971764E-04

 Point added to stored polar  1
 Point written to save file  raf32md_Re500k.base.pol                         
 Dump file unspecified or not available
 Calculating wake trajectory ...
 Calculating source influence matrix ...

 Solving BL system ...

 Side 1  free  transition at x/c =  0.0212   21
 Side 2 forced transition at x/c =  1.0000   71

   1   rms: 0.7832E-01   max: 0.4174E+00   T at   21  1
       a =  9.500      CL =  1.2670
      Cm = -0.0684     CD =  0.02129   =>   CDf =  0.00690    CDp =  0.01439

 Side 1  free  transition at x/c =  0.0172   22
 Side 2 forced transition at x/c =  1.0000   70

   2   rms: 0.1610E-01   max: -.8868E-01   D at   22  1
       a =  9.500      CL =  1.2565
      Cm = -0.0671     CD =  0.02187   =>   CDf =  0.00709    CDp =  0.01477

 Side 1  free  transition at x/c =  0.0172   22
 Side 2 forced transition at x/c =  1.0000   70

   3   rms: 0.1243E-02   max: -.1299E-01   D at    4  1
       a =  9.500      CL =  1.2565
      Cm = -0.0671     CD =  0.02188   =>   CDf =  0.00710    CDp =  0.01478

 Side 1  free  transition at x/c =  0.0172   22
 Side 2 forced transition at x/c =  1.0000   70

   4   rms: 0.7546E-05   max: -.6967E-04   C at   70  2
       a =  9.500      CL =  1.2565
      Cm = -0.0671     CD =  0.02188   =>   CDf =  0.00710    CDp =  0.01478
 plradd ia,ip,cpol           28           0  1.76971764E-04

 Point added to stored polar  1
 Point written to save file  raf32md_Re500k.base.pol                         
 Dump file unspecified or not available
 Calculating wake trajectory ...
 Calculating source influence matrix ...

 Solving BL system ...

 Side 1  free  transition at x/c =  0.0172   22
 Side 2 forced transition at x/c =  1.0000   70

   1   rms: 0.1155E+00   max: 0.3532E+00   T at   23  1
       a = 10.000      CL =  1.2542
      Cm = -0.0592     CD =  0.02570   =>   CDf =  0.00710    CDp =  0.01860

 Side 1  free  transition at x/c =  0.0155   21
 Side 2 forced transition at x/c =  1.0000   70

   2   rms: 0.5938E-01   max: -.4918E+00   D at   21  1
       a = 10.000      CL =  1.2662
      Cm = -0.0612     CD =  0.02416   =>   CDf =  0.00678    CDp =  0.01737

 Side 1  free  transition at x/c =  0.0158   21
 Side 2 forced transition at x/c =  1.0000   70

   3   rms: 0.1672E-01   max: 0.8463E-01   D at   22  1
       a = 10.000      CL =  1.2771
      Cm = -0.0625     CD =  0.02388   =>   CDf =  0.00694    CDp =  0.01694

 Side 1  free  transition at x/c =  0.0156   21
 Side 2 forced transition at x/c =  1.0000   70

   4   rms: 0.6702E-03   max: 0.8181E-02   D at   81  1
       a = 10.000      CL =  1.2767
      Cm = -0.0625     CD =  0.02390   =>   CDf =  0.00692    CDp =  0.01698

 Side 1  free  transition at x/c =  0.0156   21
 Side 2 forced transition at x/c =  1.0000   70

   5   rms: 0.8607E-05   max: -.1927E-03   C at   70  2
       a = 10.000      CL =  1.2767
      Cm = -0.0625     CD =  0.02390   =>   CDf =  0.00692    CDp =  0.01698
 plradd ia,ip,cpol           29           0  1.76971764E-04

 Point added to stored polar  1
 Point written to save file  raf32md_Re500k.base.pol                         
 Dump file unspecified or not available

.OPERva   c>  
 Solving BL system ...

 Side 1  free  transition at x/c =  0.0156   21
 Side 2 forced transition at x/c =  1.0000   70

   1   rms: 0.3331E-06   max: 0.1533E-05   D at   69  2
       a = 10.000      CL =  1.2767
      Cm = -0.0625     CD =  0.02390   =>   CDf =  0.00692    CDp =  0.01698
 plradd ia,ip,cpol           30         182  1.76971764E-04

 Point added to stored polar  1
 Point written to save file  raf32md_Re500k.base.pol                         
 Dump file unspecified or not available
 Calculating wake trajectory ...
 Calculating source influence matrix ...

 Solving BL system ...

 Side 1  free  transition at x/c =  0.0156   21
 Side 2 forced transition at x/c =  1.0000   70

   1   rms: 0.3730E-01   max: 0.1278E+00   T at   21  1
       a = 10.250      CL =  1.2870
      Cm = -0.0604     CD =  0.02504   =>   CDf =  0.00692    CDp =  0.01811

 Side 1  free  transition at x/c =  0.0148   21
 Side 2 forced transition at x/c =  1.0000   70

   2   rms: 0.2028E-02   max: 0.1055E-01   D at   79  2
       a = 10.250      CL =  1.2857
      Cm = -0.0602     CD =  0.02504   =>   CDf =  0.00684    CDp =  0.01820

 Side 1  free  transition at x/c =  0.0149   21
 Side 2 forced transition at x/c =  1.0000   70

   3   rms: 0.3564E-04   max: 0.5999E-03   D at   79  2
       a = 10.250      CL =  1.2857
      Cm = -0.0602     CD =  0.02504   =>   CDf =  0.00684    CDp =  0.01820
 plradd ia,ip,cpol           31           0  1.76971764E-04

 Point added to stored polar  1
 Point written to save file  raf32md_Re500k.base.pol                         
 Dump file unspecified or not available
 Calculating wake trajectory ...
 Calculating source influence matrix ...

 Solving BL system ...

 Side 1  free  transition at x/c =  0.0149   21
 Side 2 forced transition at x/c =  1.0000   70

   1   rms: 0.3728E-01   max: 0.1271E+00   T at   21  1
       a = 10.500      CL =  1.2955
      Cm = -0.0582     CD =  0.02627   =>   CDf =  0.00684    CDp =  0.01943

[...]
 plradd ia,ip,cpol           41           0 -7.86785458E-05

 Point added to stored polar  1
 Point written to save file  raf32md_Re500k.base.pol                         
 Dump file unspecified or not available
 Calculating wake trajectory ...
 Calculating source influence matrix ...

 Solving BL system ...

 Side 1  free  transition at x/c =  0.0104   21
 Side 2 forced transition at x/c =  1.0000   69

   1   rms: 0.3467E-01   max: 0.9392E-01   T at   21  1   RLX: 0.707
       a = 13.000      CL =  1.3558
      Cm = -0.0405     CD =  0.04343   =>   CDf =  0.00576    CDp =  0.03767

 Side 1  free  transition at x/c =  0.0102   21
 Side 2 forced transition at x/c =  1.0000   69

   2   rms: 0.9750E-02   max: 0.3256E-01   D at   82  2
       a = 13.000      CL =  1.3561
      Cm = -0.0400     CD =  0.04403   =>   CDf =  0.00567    CDp =  0.03836

 Side 1  free  transition at x/c =  0.0101   21
 Side 2 forced transition at x/c =  1.0000   69

   3   rms: 0.9367E-03   max: 0.4747E-02   D at   82  2
       a = 13.000      CL =  1.3554
      Cm = -0.0400     CD =  0.04399   =>   CDf =  0.00563    CDp =  0.03836

 Side 1  free  transition at x/c =  0.0101   21
 Side 2 forced transition at x/c =  1.0000   69

   4   rms: 0.1940E-04   max: 0.2208E-03   D at   82  2
       a = 13.000      CL =  1.3554
      Cm = -0.0400     CD =  0.04398   =>   CDf =  0.00563    CDp =  0.03835
 plradd ia,ip,cpol           42           0 -7.86785458E-05

 Point added to stored polar  1
 Point written to save file  raf32md_Re500k.base.pol                         
 Dump file unspecified or not available
 Calculating wake trajectory ...
 Calculating source influence matrix ...

 Solving BL system ...

 Side 1  free  transition at x/c =  0.0101   21
 Side 2 forced transition at x/c =  1.0000   69

   1   rms: 0.3519E-01   max: 0.8905E-01   D at   68  1   RLX: 0.684
       a = 13.250      CL =  1.3600
      Cm = -0.0392     CD =  0.04560   =>   CDf =  0.00563    CDp =  0.03997

 Side 1  free  transition at x/c =  0.0099   21
 Side 2 forced transition at x/c =  1.0000   69

   2   rms: 0.1129E-01   max: 0.3720E-01   D at   73  1
       a = 13.250      CL =  1.3599
      Cm = -0.0388     CD =  0.04637   =>   CDf =  0.00554    CDp =  0.04084

 Side 1  free  transition at x/c =  0.0099   21
 Side 2 forced transition at x/c =  1.0000   69

   3   rms: 0.1157E-02   max: 0.6317E-02   D at   83  2
       a = 13.250      CL =  1.3590
      Cm = -0.0387     CD =  0.04632   =>   CDf =  0.00549    CDp =  0.04083

 Side 1  free  transition at x/c =  0.0099   21
 Side 2 forced transition at x/c =  1.0000   69

   4   rms: 0.2694E-04   max: 0.3356E-03   D at   83  2
       a = 13.250      CL =  1.3590
      Cm = -0.0387     CD =  0.04631   =>   CDf =  0.00549    CDp =  0.04082
 plradd ia,ip,cpol           43           0 -7.86785458E-05

 Point added to stored polar  1
 Point written to save file  raf32md_Re500k.base.pol                         
 Dump file unspecified or not available
 Calculating wake trajectory ...
 Calculating source influence matrix ...

 Solving BL system ...

 Side 1  free  transition at x/c =  0.0099   21
 Side 2 forced transition at x/c =  1.0000   69

   1   rms: 0.3411E-01   max: 0.9600E-01   T at   21  1   RLX: 0.660
       a = 13.500      CL =  1.3628
      Cm = -0.0381     CD =  0.04796   =>   CDf =  0.00549    CDp =  0.04247

 Side 1  free  transition at x/c =  0.0097   21
 Side 2 forced transition at x/c =  1.0000   69

   2   rms: 0.1138E-01   max: 0.4158E-01   D at   72  1
       a = 13.500      CL =  1.3623
      Cm = -0.0377     CD =  0.04880   =>   CDf =  0.00540    CDp =  0.04340

 Side 1  free  transition at x/c =  0.0096   21
 Side 2 forced transition at x/c =  1.0000   69

   3   rms: 0.1091E-02   max: 0.7071E-02   D at   83  2
       a = 13.500      CL =  1.3615
      Cm = -0.0376     CD =  0.04872   =>   CDf =  0.00536    CDp =  0.04337

 Side 1  free  transition at x/c =  0.0096   21
 Side 2 forced transition at x/c =  1.0000   69

   4   rms: 0.3933E-04   max: 0.5403E-03   D at   83  2
       a = 13.500      CL =  1.3615
      Cm = -0.0376     CD =  0.04871   =>   CDf =  0.00536    CDp =  0.04336
 plradd ia,ip,cpol           44           0 -7.86785458E-05

 Point added to stored polar  1
 Point written to save file  raf32md_Re500k.base.pol                         
 Dump file unspecified or not available
 Calculating wake trajectory ...
 Calculating source influence matrix ...

 Solving BL system ...

 Side 1  free  transition at x/c =  0.0096   21
 Side 2 forced transition at x/c =  1.0000   69

   1   rms: 0.3486E-01   max: 0.9515E-01   D at   66  1   RLX: 0.638
       a = 13.750      CL =  1.3645
      Cm = -0.0370     CD =  0.05049   =>   CDf =  0.00536    CDp =  0.04513

 Side 1  free  transition at x/c =  0.0096   21
 Side 2 forced transition at x/c =  1.0000   69

   2   rms: 0.1322E-01   max: 0.4567E-01   D at   71  1
       a = 13.750      CL =  1.3637
      Cm = -0.0366     CD =  0.05152   =>   CDf =  0.00526    CDp =  0.04626

 Side 1  free  transition at x/c =  0.0096   21
 Side 2 forced transition at x/c =  1.0000   69

   3   rms: 0.1640E-02   max: 0.8774E-02   D at   83  2
       a = 13.750      CL =  1.3625
      Cm = -0.0365     CD =  0.05144   =>   CDf =  0.00520    CDp =  0.04624

 Side 1  free  transition at x/c =  0.0096   21
 Side 2 forced transition at x/c =  1.0000   69

   4   rms: 0.4250E-04   max: 0.4849E-03   D at   83  2
       a = 13.750      CL =  1.3625
      Cm = -0.0365     CD =  0.05142   =>   CDf =  0.00519    CDp =  0.04623
 plradd ia,ip,cpol           45           0 -7.86785458E-05

 Point added to stored polar  1
 Point written to save file  raf32md_Re500k.base.pol                         
 Dump file unspecified or not available
 Calculating wake trajectory ...
 Calculating source influence matrix ...

 Solving BL system ...

 Side 1  free  transition at x/c =  0.0096   21
 Side 2 forced transition at x/c =  1.0000   69

   1   rms: 0.3360E-01   max: 0.9814E-01   D at   66  1   RLX: 0.615
       a = 14.000      CL =  1.3644
      Cm = -0.0361     CD =  0.05322   =>   CDf =  0.00520    CDp =  0.04802

 Side 1  free  transition at x/c =  0.0094   21
 Side 2 forced transition at x/c =  1.0000   69

   2   rms: 0.1306E-01   max: 0.4695E-01   D at   70  1
       a = 14.000      CL =  1.3633
      Cm = -0.0358     CD =  0.05433   =>   CDf =  0.00511    CDp =  0.04922

 Side 1  free  transition at x/c =  0.0094   21
 Side 2 forced transition at x/c =  1.0000   69

   3   rms: 0.1499E-02   max: 0.8589E-02   D at   84  2
       a = 14.000      CL =  1.3622
      Cm = -0.0357     CD =  0.05423   =>   CDf =  0.00506    CDp =  0.04917

 Side 1  free  transition at x/c =  0.0094   21
 Side 2 forced transition at x/c =  1.0000   69

   4   rms: 0.4017E-04   max: 0.4086E-03   D at   84  2
       a = 14.000      CL =  1.3622
      Cm = -0.0357     CD =  0.05421   =>   CDf =  0.00506    CDp =  0.04915
 plradd ia,ip,cpol           46           0 -7.86785458E-05

 Point added to stored polar  1
 Point written to save file  raf32md_Re500k.base.pol                         
 Dump file unspecified or not available
 Calculating wake trajectory ...
 Calculating source influence matrix ...

 Solving BL system ...

 Side 1  free  transition at x/c =  0.0094   21
 Side 2 forced transition at x/c =  1.0000   69

   1   rms: 0.3363E-01   max: 0.1017E+00   D at   65  1   RLX: 0.594
       a = 14.250      CL =  1.3634
      Cm = -0.0354     CD =  0.05610   =>   CDf =  0.00507    CDp =  0.05103

 Side 1  free  transition at x/c =  0.0093   21
 Side 2 forced transition at x/c =  1.0000   69

   2   rms: 0.1422E-01   max: 0.5240E-01   D at   69  1
       a = 14.250      CL =  1.3618
      Cm = -0.0352     CD =  0.05741   =>   CDf =  0.00453    CDp =  0.05288

 Side 1  free  transition at x/c =  0.0092   22
 Side 2 forced transition at x/c =  1.0000   68

   3   rms: 0.9924E-02   max: -.1694E+00   D at    2  1
       a = 14.250      CL =  1.3605
      Cm = -0.0351     CD =  0.05728   =>   CDf =  0.00491    CDp =  0.05238

 Side 1  free  transition at x/c =  0.0092   22
 Side 2 forced transition at x/c =  1.0000   68

   4   rms: 0.7718E-03   max: -.9191E-02   D at    4  1
       a = 14.250      CL =  1.3605
      Cm = -0.0351     CD =  0.05727   =>   CDf =  0.00490    CDp =  0.05236

 Side 1  free  transition at x/c =  0.0092   22
 Side 2 forced transition at x/c =  1.0000   68

   5   rms: 0.2782E-05   max: 0.2006E-04   C at   68  2
       a = 14.250      CL =  1.3605
      Cm = -0.0351     CD =  0.05727   =>   CDf =  0.00490    CDp =  0.05236
 plradd ia,ip,cpol           47           0 -7.86785458E-05

 Point added to stored polar  1
 Point written to save file  raf32md_Re500k.base.pol                         
 Dump file unspecified or not available
 Calculating wake trajectory ...
 Calculating source influence matrix ...

 Solving BL system ...

 Side 1  free  transition at x/c =  0.0092   22
 Side 2 forced transition at x/c =  1.0000   68

   1   rms: 0.3546E-01   max: 0.1109E+00   D at   64  1   RLX: 0.572
       a = 14.500      CL =  1.3606
      Cm = -0.0349     CD =  0.05936   =>   CDf =  0.00491    CDp =  0.05446

 Side 1  free  transition at x/c =  0.0092   22
 Side 2 forced transition at x/c =  1.0000   68

   2   rms: 0.1622E-01   max: 0.5897E-01   D at   69  1
       a = 14.500      CL =  1.3579
      Cm = -0.0347     CD =  0.06096   =>   CDf =  0.00481    CDp =  0.05615

 Side 1  free  transition at x/c =  0.0091   22
 Side 2 forced transition at x/c =  1.0000   68

   3   rms: 0.2286E-02   max: 0.1433E-01   D at   83  2
       a = 14.500      CL =  1.3563
      Cm = -0.0346     CD =  0.06080   =>   CDf =  0.00474    CDp =  0.05606

 Side 1  free  transition at x/c =  0.0091   22
 Side 2 forced transition at x/c =  1.0000   68

   4   rms: 0.6526E-04   max: 0.5684E-03   D at   83  2
       a = 14.500      CL =  1.3563
      Cm = -0.0346     CD =  0.06078   =>   CDf =  0.00474    CDp =  0.05603
 plradd ia,ip,cpol           48           0 -7.86785458E-05

 Point added to stored polar  1
 Point written to save file  raf32md_Re500k.base.pol                         
 Dump file unspecified or not available
 Calculating wake trajectory ...
 Calculating source influence matrix ...

 Solving BL system ...

 Side 1  free  transition at x/c =  0.0091   22
 Side 2 forced transition at x/c =  1.0000   68

   1   rms: 0.3575E-01   max: 0.1185E+00   D at   63  1   RLX: 0.551
       a = 14.750      CL =  1.3553
      Cm = -0.0345     CD =  0.06302   =>   CDf =  0.00474    CDp =  0.05828

 Side 1  free  transition at x/c =  0.0091   22
 Side 2 forced transition at x/c =  1.0000   68

   2   rms: 0.1704E-01   max: 0.5976E-01   D at   67  1
       a = 14.750      CL =  1.3521
      Cm = -0.0345     CD =  0.06484   =>   CDf =  0.00465    CDp =  0.06020

 Side 1  free  transition at x/c =  0.0090   22
 Side 2 forced transition at x/c =  1.0000   68

   3   rms: 0.2541E-02   max: 0.1310E-01   D at   67  1
       a = 14.750      CL =  1.3504
      Cm = -0.0344     CD =  0.06467   =>   CDf =  0.00457    CDp =  0.06010

 Side 1  free  transition at x/c =  0.0091   22
 Side 2 forced transition at x/c =  1.0000   68

   4   rms: 0.8923E-04   max: 0.1017E-02   D at   84  2
       a = 14.750      CL =  1.3503
      Cm = -0.0344     CD =  0.06463   =>   CDf =  0.00457    CDp =  0.06006
 plradd ia,ip,cpol           49           0 -7.86785458E-05

 Point added to stored polar  1
 Point written to save file  raf32md_Re500k.base.pol                         
 Dump file unspecified or not available
 Calculating wake trajectory ...
 Calculating source influence matrix ...

 Solving BL system ...

 Side 1  free  transition at x/c =  0.0091   22
 Side 2 forced transition at x/c =  1.0000   68

   1   rms: 0.3628E-01   max: 0.1240E+00   D at   62  1   RLX: 0.530
       a = 15.000      CL =  1.3485
      Cm = -0.0345     CD =  0.06704   =>   CDf =  0.00457    CDp =  0.06247

 Side 1  free  transition at x/c =  0.0090   22
 Side 2 forced transition at x/c =  1.0000   68

   2   rms: 0.1799E-01   max: 0.6583E-01   D at   66  1
       a = 15.000      CL =  1.3441
      Cm = -0.0347     CD =  0.06920   =>   CDf =  0.00448    CDp =  0.06472

 Side 1  free  transition at x/c =  0.0089   22
 Side 2 forced transition at x/c =  1.0000   68

   3   rms: 0.3003E-02   max: 0.1597E-01   D at   84  2
       a = 15.000      CL =  1.3421
      Cm = -0.0346     CD =  0.06896   =>   CDf =  0.00440    CDp =  0.06455

 Side 1  free  transition at x/c =  0.0089   22
 Side 2 forced transition at x/c =  1.0000   68

   4   rms: 0.1365E-03   max: 0.9860E-03   D at   84  2
       a = 15.000      CL =  1.3422
      Cm = -0.0346     CD =  0.06892   =>   CDf =  0.00441    CDp =  0.06451

 Side 1  free  transition at x/c =  0.0089   22
 Side 2 forced transition at x/c =  1.0000   68

   5   rms: 0.9253E-05   max: -.9319E-04   D at   84  2
       a = 15.000      CL =  1.3422
      Cm = -0.0346     CD =  0.06892   =>   CDf =  0.00441    CDp =  0.06451
 plradd ia,ip,cpol           50           0 -7.86785458E-05

 Point added to stored polar  1
 Point written to save file  raf32md_Re500k.base.pol                         
 Dump file unspecified or not available
 Calculating wake trajectory ...
 Calculating source influence matrix ...

 Solving BL system ...

 Side 1  free  transition at x/c =  0.0089   22
 Side 2 forced transition at x/c =  1.0000   68

   1   rms: 0.3781E-01   max: 0.1342E+00   D at   61  1   RLX: 0.509
       a = 15.250      CL =  1.3395
      Cm = -0.0349     CD =  0.07154   =>   CDf =  0.00441    CDp =  0.06713

 Side 1  free  transition at x/c =  0.0089   22
 Side 2 forced transition at x/c =  1.0000   68

   2   rms: 0.1991E-01   max: 0.7816E-01   D at   65  1
       a = 15.250      CL =  1.3342
      Cm = -0.0352     CD =  0.07399   =>   CDf =  0.00431    CDp =  0.06968

 Side 1  free  transition at x/c =  0.0089   22
 Side 2 forced transition at x/c =  1.0000   68

   3   rms: 0.3118E-02   max: 0.2215E-01   D at   84  2
       a = 15.250      CL =  1.3323
      Cm = -0.0351     CD =  0.07362   =>   CDf =  0.00421    CDp =  0.06941

 Side 1  free  transition at x/c =  0.0089   22
 Side 2 forced transition at x/c =  1.0000   68

   4   rms: 0.1201E-03   max: 0.1356E-02   D at   84  2
       a = 15.250      CL =  1.3323
      Cm = -0.0351     CD =  0.07357   =>   CDf =  0.00421    CDp =  0.06935

 Side 1  free  transition at x/c =  0.0089   22
 Side 2 forced transition at x/c =  1.0000   68

   5   rms: 0.9184E-05   max: 0.1260E-03   C at   68  2
       a = 15.250      CL =  1.3323
      Cm = -0.0351     CD =  0.07357   =>   CDf =  0.00421    CDp =  0.06936
 plradd ia,ip,cpol           51           0 -7.86785458E-05

 Point added to stored polar  1
 Point written to save file  raf32md_Re500k.base.pol                         
 Dump file unspecified or not available
 Calculating wake trajectory ...
 Calculating source influence matrix ...

 Solving BL system ...

 Side 1  free  transition at x/c =  0.0089   22
 Side 2 forced transition at x/c =  1.0000   68

   1   rms: 0.3940E-01   max: 0.1440E+00   D at   59  1   RLX: 0.489
       a = 15.500      CL =  1.3286
      Cm = -0.0356     CD =  0.07642   =>   CDf =  0.00422    CDp =  0.07220

 Side 1  free  transition at x/c =  0.0088   22
 Side 2 forced transition at x/c =  1.0000   68

   2   rms: 0.2120E-01   max: 0.8157E-01   D at   63  1
       a = 15.500      CL =  1.3219
      Cm = -0.0362     CD =  0.07935   =>   CDf =  0.00412    CDp =  0.07523

 Side 1  free  transition at x/c =  0.0088   22
 Side 2 forced transition at x/c =  1.0000   68

   3   rms: 0.3874E-02   max: 0.1693E-01   D at   84  2
       a = 15.500      CL =  1.3198
      Cm = -0.0362     CD =  0.07885   =>   CDf =  0.00402    CDp =  0.07483

 Side 1  free  transition at x/c =  0.0088   22
 Side 2 forced transition at x/c =  1.0000   68

   4   rms: 0.2270E-03   max: -.9832E-03   D at   63  1
       a = 15.500      CL =  1.3199
      Cm = -0.0362     CD =  0.07881   =>   CDf =  0.00403    CDp =  0.07478

 Side 1  free  transition at x/c =  0.0088   22
 Side 2 forced transition at x/c =  1.0000   68

   5   rms: 0.1927E-04   max: -.1827E-03   D at   84  2
       a = 15.500      CL =  1.3199
      Cm = -0.0362     CD =  0.07882   =>   CDf =  0.00403    CDp =  0.07478
 plradd ia,ip,cpol           52           0 -7.86785458E-05

 Point added to stored polar  1
 Point written to save file  raf32md_Re500k.base.pol                         
 Dump file unspecified or not available
 Calculating wake trajectory ...
 Calculating source influence matrix ...

 Solving BL system ...

 Side 1  free  transition at x/c =  0.0088   22
 Side 2 forced transition at x/c =  1.0000   68

   1   rms: 0.4296E-01   max: 0.1610E+00   D at   58  1   RLX: 0.470
       a = 15.750      CL =  1.3149
      Cm = -0.0369     CD =  0.08200   =>   CDf =  0.00403    CDp =  0.07797

 Side 1  free  transition at x/c =  0.0088   22
 Side 2 forced transition at x/c =  1.0000   68

   2   rms: 0.2394E-01   max: 0.8975E-01   D at   61  1
       a = 15.750      CL =  1.3073
      Cm = -0.0379     CD =  0.08533   =>   CDf =  0.00393    CDp =  0.08139

 Side 1  free  transition at x/c =  0.0088   22
 Side 2 forced transition at x/c =  1.0000   68

   3   rms: 0.3916E-02   max: 0.2266E-01   D at   61  1
       a = 15.750      CL =  1.3053
      Cm = -0.0378     CD =  0.08470   =>   CDf =  0.00383    CDp =  0.08088

 Side 1  free  transition at x/c =  0.0088   22
 Side 2 forced transition at x/c =  1.0000   68

   4   rms: 0.1768E-03   max: 0.1662E-02   D at   85  2
       a = 15.750      CL =  1.3053
      Cm = -0.0378     CD =  0.08464   =>   CDf =  0.00383    CDp =  0.08081

 Side 1  free  transition at x/c =  0.0088   22
 Side 2 forced transition at x/c =  1.0000   68

   5   rms: 0.1454E-04   max: -.1277E-03   D at   84  2
       a = 15.750      CL =  1.3053
      Cm = -0.0378     CD =  0.08465   =>   CDf =  0.00383    CDp =  0.08082
 plradd ia,ip,cpol           53           0 -7.86785458E-05

 Point added to stored polar  1
 Point written to save file  raf32md_Re500k.base.pol                         
 Dump file unspecified or not available
 Calculating wake trajectory ...
 Calculating source influence matrix ...

 Solving BL system ...

 Side 1  free  transition at x/c =  0.0088   22
 Side 2 forced transition at x/c =  1.0000   68

   1   rms: 0.4604E-01   max: 0.1756E+00   D at   56  1   RLX: 0.451
       a = 16.000      CL =  1.2994
      Cm = -0.0388     CD =  0.08812   =>   CDf =  0.00383    CDp =  0.08429

 Side 1  free  transition at x/c =  0.0087   22
 Side 2 forced transition at x/c =  1.0000   68

   2   rms: 0.2656E-01   max: 0.1037E+00   D at   60  1
       a = 16.000      CL =  1.2901
      Cm = -0.0402     CD =  0.09206   =>   CDf =  0.00373    CDp =  0.08833

 Side 1  free  transition at x/c =  0.0087   22
 Side 2 forced transition at x/c =  1.0000   68

   3   rms: 0.4373E-02   max: 0.2872E-01   D at   85  2
       a = 16.000      CL =  1.2882
      Cm = -0.0401     CD =  0.09123   =>   CDf =  0.00362    CDp =  0.08761

 Side 1  free  transition at x/c =  0.0087   22
 Side 2 forced transition at x/c =  1.0000   68

   4   rms: 0.2565E-03   max: 0.3337E-02   D at   85  2
       a = 16.000      CL =  1.2882
      Cm = -0.0401     CD =  0.09116   =>   CDf =  0.00363    CDp =  0.08753

 Side 1  free  transition at x/c =  0.0087   22
 Side 2 forced transition at x/c =  1.0000   68

   5   rms: 0.2123E-04   max: -.1977E-03   D at   85  2
       a = 16.000      CL =  1.2883
      Cm = -0.0401     CD =  0.09117   =>   CDf =  0.00363    CDp =  0.08754
 plradd ia,ip,cpol           54           0 -7.86785458E-05

 Point added to stored polar  1
 Point written to save file  raf32md_Re500k.base.pol                         
 Dump file unspecified or not available

.OPERva   c>  
 Polar accumulation disabled

.OPERv   c>  
 XFOIL   c>  
 XFOIL   c>  