  
       XFOIL         Version 6.99
  
 Calculated polar for: RAF 6 AIRFOIL                                   
  
 1 1 Reynolds number fixed          Mach number fixed         
  
 xtrf =   1.000 (top)        1.000 (bottom)  
 Mach =   0.000     Re =     0.150 e 6     Ncrit =   9.000
  
   alpha    CL        CD       CDp       CM     Top_Xtr  Bot_Xtr
  ------ -------- --------- --------- -------- -------- --------
  -4.000  -0.1751   0.05260   0.04843  -0.0611   0.9604   0.0540
  -3.500  -0.1050   0.04590   0.04112  -0.0677   0.9510   0.0640
  -3.000  -0.0307   0.04005   0.03485  -0.0738   0.9397   0.0782
  -1.000   0.3192   0.02229   0.01408  -0.0912   0.8962   0.0628
  -0.500   0.3948   0.01964   0.01157  -0.0939   0.8830   0.0773
   0.000   0.4901   0.01515   0.00944  -0.0998   0.8782   1.0000
   0.500   0.5649   0.01431   0.00820  -0.1023   0.8631   1.0000
   1.000   0.6431   0.01334   0.00699  -0.1055   0.8451   1.0000
   1.500   0.7099   0.01276   0.00624  -0.1065   0.8182   1.0000
   2.000   0.7764   0.01234   0.00562  -0.1074   0.7821   1.0000
   2.500   0.8232   0.01228   0.00540  -0.1046   0.7257   1.0000
   3.000   0.8683   0.01244   0.00505  -0.1012   0.6159   1.0000
   3.500   0.8987   0.01380   0.00540  -0.0957   0.4805   1.0000
   4.000   0.9334   0.01526   0.00624  -0.0918   0.4092   1.0000
   4.500   0.9745   0.01645   0.00711  -0.0893   0.3661   1.0000
   5.000   1.0193   0.01752   0.00799  -0.0875   0.3378   1.0000
   5.500   1.0659   0.01856   0.00893  -0.0862   0.3171   1.0000
   6.000   1.1135   0.01963   0.00994  -0.0852   0.3000   1.0000
   6.500   1.1617   0.02074   0.01106  -0.0843   0.2850   1.0000
   7.000   1.2101   0.02193   0.01233  -0.0835   0.2716   1.0000
   7.500   1.2582   0.02322   0.01373  -0.0827   0.2591   1.0000
   8.000   1.3077   0.02467   0.01527  -0.0823   0.2478   1.0000
   8.500   1.3564   0.02613   0.01686  -0.0817   0.2365   1.0000
   9.000   1.3961   0.02744   0.01854  -0.0794   0.2248   1.0000
   9.500   1.4223   0.02803   0.01923  -0.0749   0.2078   1.0000
  10.000   1.4406   0.02862   0.02011  -0.0689   0.1930   1.0000
  10.000   1.4406   0.02862   0.02011  -0.0689   0.1930   1.0000
  10.250   1.4442   0.02890   0.02054  -0.0650   0.1852   1.0000
  10.500   1.4454   0.02905   0.02084  -0.0609   0.1767   1.0000
  10.750   1.4479   0.02932   0.02132  -0.0572   0.1659   1.0000
  11.000   1.4512   0.02961   0.02170  -0.0539   0.1481   1.0000
  11.250   1.4577   0.03057   0.02251  -0.0514   0.1083   1.0000
  12.000   1.4348   0.03880   0.03031  -0.0411   0.0310   1.0000
  12.250   1.4309   0.04138   0.03311  -0.0387   0.0290   1.0000
  12.500   1.4243   0.04427   0.03624  -0.0364   0.0276   1.0000
  12.750   1.4154   0.04752   0.03972  -0.0345   0.0265   1.0000
  13.000   1.4037   0.05122   0.04366  -0.0330   0.0257   1.0000
  13.250   1.3896   0.05543   0.04809  -0.0320   0.0251   1.0000
  13.500   1.3740   0.06016   0.05304  -0.0318   0.0247   1.0000
  13.750   1.3573   0.06543   0.05853  -0.0323   0.0243   1.0000
  14.000   1.3400   0.07124   0.06454  -0.0334   0.0241   1.0000
  14.250   1.3245   0.07717   0.07063  -0.0351   0.0239   1.0000
  14.500   1.3111   0.08307   0.07671  -0.0371   0.0237   1.0000
  14.750   1.2979   0.08909   0.08288  -0.0392   0.0235   1.0000
  15.000   1.2858   0.09498   0.08893  -0.0413   0.0232   1.0000
  15.250   1.2757   0.10045   0.09452  -0.0431   0.0230   1.0000
  15.500   1.2679   0.10536   0.09957  -0.0446   0.0227   1.0000
  15.750   1.2644   0.10933   0.10362  -0.0454   0.0224   1.0000
  16.000   1.2641   0.11261   0.10697  -0.0457   0.0221   1.0000
