  
       XFOIL         Version 6.99
  
 Calculated polar for: NASA/LANGLEY RC-08(B)3 AIRFOIL                  
  
 1 1 Reynolds number fixed          Mach number fixed         
  
 xtrf =   1.000 (top)        1.000 (bottom)  
 Mach =   0.000     Re =     0.200 e 6     Ncrit =   9.000
  
   alpha    CL        CD       CDp       CM     Top_Xtr  Bot_Xtr
  ------ -------- --------- --------- -------- -------- --------
   9.250   0.9207   0.04833   0.04316   0.0157   0.0367   1.0000
  19.750   0.5920   0.20823   0.20474  -0.0292   0.0277   1.0000
  20.250   0.5954   0.21309   0.20962  -0.0327   0.0254   1.0000
  20.750   0.6022   0.21863   0.21517  -0.0351   0.0237   1.0000
  21.250   0.6096   0.22405   0.22064  -0.0374   0.0223   1.0000
  21.750   0.6187   0.22975   0.22637  -0.0391   0.0212   1.0000
  22.250   0.6334   0.23973   0.23637  -0.0399   0.0206   1.0000
