
 ===================================================
  XFOIL Version 6.99
  Copyright (C) 2000   Mark Drela, Harold Youngren

  This software comes with ABSOLUTELY NO WARRANTY,
    subject to the GNU General Public License.

  Caveat computor
 ===================================================

 File  xfoil.def  not found

   QUIT    Exit program

  .OPER    Direct operating point(s)
  .MDES    Complex mapping design routine
  .QDES    Surface speed design routine
  .GDES    Geometry design routine

   SAVE f  Write airfoil to labeled coordinate file
   PSAV f  Write airfoil to plain coordinate file
   ISAV f  Write airfoil to ISES coordinate file
   MSAV f  Write airfoil to MSES coordinate file
   REVE    Reverse written-airfoil node ordering

   LOAD f  Read buffer airfoil from coordinate file
   NACA i  Set NACA 4,5-digit airfoil and buffer airfoil
   INTE    Set buffer airfoil by interpolating two airfoils
   NORM    Buffer airfoil normalization toggle
   XYCM rr Change CM reference location, currently  0.25000 0.00000

   BEND    Display structural properties of current airfoil

   PCOP    Set current-airfoil panel nodes directly from buffer airfoil points
   PANE    Set current-airfoil panel nodes ( 160 ) based on curvature
  .PPAR    Show/change paneling

  .PLOP    Plotting options

   WDEF f  Write  current-settings file
   RDEF f  Reread current-settings file
   NAME s  Specify new airfoil name
   NINC    Increment name version number

   Z       Zoom    | (available in all menus)
   U       Unzoom  | 

 XFOIL   c>  
 Labeled airfoil file.  Name:   NASA/LANGLEY RC10-64C AIRFOIL                  

 Number of input coordinate points:  65
 Counterclockwise ordering
 Max thickness =     0.100003  at x =   0.400
 Max camber    =     0.009658  at x =   0.350

  LE  x,y  =  -0.00002   0.00053  |   Chord =   1.00002
  TE  x,y  =   1.00000   0.00000  |

 Current airfoil nodes set from buffer airfoil nodes (  65 )

 WARNING: Poor input coordinate distribution
          Excessive panel angle   47.0  at i =  33
          Repaneling with PANE and/or PPAR suggested
           (doing GDES,CADD before repaneling _may_
            improve excessively coarse LE spacing

 XFOIL   c>  
 XFOIL   c>  
 Blunt trailing edge.  Gap =  0.00200

 Paneling parameters used...
   Number of panel nodes       160
   Panel bunching parameter    1.000
   TE/LE panel density ratio   0.150
   Refined-area/LE panel density ratio    0.200
   Top    side refined area x/c limits  1.000 1.000
   Bottom side refined area x/c limits  1.000 1.000

 XFOIL   c>  
.OPERi   c>  
 Xtr/c     =  1.0000    top    side
 Xtr/c     =  1.0000    bottom side
 Ncrit     =    9.00   ( 0.070 % turb. level )
 Vacc      =  0.0100

 Klag  =  5.6000     Uxwt  =    1.00
 A     =  6.7000     B     =  0.7500       KCt = 0.01485
 CtiniK=  1.8000     CtiniX=  3.3000

..VPAR   c>  
..VPAR   c>  
.OPERi   c>  
 M  =    0.0000
 Re =    150000

.OPERv   c>  
.OPERv   c>  
.OPERv   c>  
 Polar  1 newly created for accumulation
 Airfoil archived with polar: NASA/LANGLEY RC10-64C AIRFOIL                   

Enter  polar save filename  OR  <return> for no file   s>  
 New polar save file available

Enter  polar dump filename  OR  <return> for no file   s>  
 Polar dump file will NOT be written

 Polar accumulation enabled

.OPERva   c>   Calculating unit vorticity distributions ...
 Calculating wake trajectory ...
 Calculating source influence matrix ...

 Solving BL system ...

 Initializing BL ...
    side            1  ...
 MRCHUE: Inverse mode at  59     Hk =   3.800
 MRCHUE: Inverse mode at  60     Hk =   4.066
 MRCHUE: Inverse mode at  61     Hk =   4.319
 MRCHUE: Inverse mode at  66     Hk =   3.800
 MRCHUE: Convergence failed at  67  side 1    Res =  0.1102E+02
 MRCHUE: Convergence failed at  68  side 1    Res =  0.1085E+02
 MRCHUE: Convergence failed at  69  side 1    Res =  0.1194E+02
 MRCHUE: Inverse mode at  70     Hk =   3.939
 MRCHUE: Convergence failed at  76  side 1    Res =  0.5854E+01
 MRCHUE: Convergence failed at  77  side 1    Res =  0.4419E+02
    side            2  ...
 MRCHUE: Inverse mode at  15     Hk =   4.033
 MRCHUE: Inverse mode at  16     Hk =   4.727
 MRCHUE: Inverse mode at  17     Hk =   5.444
 MRCHUE: Inverse mode at  18     Hk =   6.226
 MRCHUE: Inverse mode at  19     Hk =   7.100
 MRCHUE: Inverse mode at  20     Hk =   8.035
 MRCHUE: Inverse mode at  21     Hk =   9.027
 MRCHUE: Inverse mode at  22     Hk =  10.036
 MRCHUE: Inverse mode at  23     Hk =   7.889
 MRCHUE: Inverse mode at  24     Hk =   4.638
 MRCHUE: Inverse mode at  25     Hk =   2.885
 MRCHUE: Inverse mode at  84     Hk =   2.500
 MRCHUE: Convergence failed at  85  side 2    Res =  0.4043E+01

 MRCHDU: Convergence failed at  67  side 1    Res =  0.1583E+02
 MRCHDU: Convergence failed at  68  side 1    Res =  0.3999E+02
 MRCHDU: Convergence failed at  69  side 1    Res =  0.4006E+02
 MRCHDU: Convergence failed at  70  side 1    Res =  0.8179E+03
 MRCHDU: Convergence failed at  71  side 1    Res =  0.3946E+01
 MRCHDU: Convergence failed at  72  side 1    Res =  0.2800E+01
 MRCHDU: Convergence failed at  76  side 1    Res =  0.3457E+01
 MRCHDU: Convergence failed at  77  side 1    Res =  0.3967E+02
 MRCHDU: Convergence failed at  85  side 2    Res =  0.1423E+01
 Side 1 forced transition at x/c =  1.0000   77
 Side 2  free  transition at x/c =  0.0834   23

   1   rms: 0.3177E+00   max: 0.1531E+01   D at   89  2   RLX: 0.654
       a = -4.000      CL = -0.3860
      Cm = -0.0169     CD =  0.01194   =>   CDf =  0.00916    CDp =  0.00278

 Side 1 forced transition at x/c =  1.0000   77
 Side 2  free  transition at x/c =  0.0862   23

   2   rms: 0.1692E+00   max: 0.2038E+01   C at   77  1   RLX: 0.736
       a = -4.000      CL = -0.4076
      Cm = -0.0076     CD =  0.01505   =>   CDf =  0.00919    CDp =  0.00586

 Side 1 forced transition at x/c =  1.0000   77
 Side 2  free  transition at x/c =  0.0851   23

   3   rms: 0.1274E+00   max: 0.8874E+00   D at   74  1
       a = -4.000      CL = -0.4589
      Cm =  0.0038     CD =  0.01753   =>   CDf =  0.00903    CDp =  0.00850

 Side 1 forced transition at x/c =  1.0000   77
 Side 2  free  transition at x/c =  0.0768   23

   4   rms: 0.3964E-01   max: 0.2983E+00   D at   64  1
       a = -4.000      CL = -0.4662
      Cm =  0.0046     CD =  0.01860   =>   CDf =  0.00909    CDp =  0.00951

 Side 1 forced transition at x/c =  1.0000   77
 Side 2  free  transition at x/c =  0.0763   23

   5   rms: 0.7526E-02   max: 0.4645E-01   D at   23  2
       a = -4.000      CL = -0.4663
      Cm =  0.0045     CD =  0.01871   =>   CDf =  0.00902    CDp =  0.00969

 Side 1 forced transition at x/c =  1.0000   77
 Side 2  free  transition at x/c =  0.0761   23

   6   rms: 0.8343E-04   max: -.4739E-03   D at   23  2
       a = -4.000      CL = -0.4663
      Cm =  0.0045     CD =  0.01871   =>   CDf =  0.00903    CDp =  0.00968
 plradd ia,ip,cpol            1           0  4.83539887E-03

 Point added to stored polar  1
 Point written to save file  rc1064c_Re150k.base.pol                         
 Dump file unspecified or not available
 Calculating wake trajectory ...
 Calculating source influence matrix ...

 Solving BL system ...

 Side 1 forced transition at x/c =  1.0000   77
 Side 2  free  transition at x/c =  0.0761   23

   1   rms: 0.2741E+00   max: -.1153E+01   T at   23  2   RLX: 0.433
       a = -3.500      CL = -0.4444
      Cm =  0.0047     CD =  0.01576   =>   CDf =  0.00902    CDp =  0.00674

 Side 1 forced transition at x/c =  1.0000   77
 Side 2  free  transition at x/c =  0.0881   23

   2   rms: 0.5133E-01   max: -.2986E+00   T at   23  2
       a = -3.500      CL = -0.4228
      Cm =  0.0067     CD =  0.01710   =>   CDf =  0.00886    CDp =  0.00824

 Side 1 forced transition at x/c =  1.0000   77
 Side 2  free  transition at x/c =  0.1000   24

   3   rms: 0.3352E-01   max: 0.4638E+00   D at   24  2
       a = -3.500      CL = -0.4239
      Cm =  0.0066     CD =  0.01680   =>   CDf =  0.00879    CDp =  0.00801

 Side 1 forced transition at x/c =  1.0000   77
 Side 2  free  transition at x/c =  0.0984   24

   4   rms: 0.5628E-02   max: 0.5416E-01   D at   24  2
       a = -3.500      CL = -0.4239
      Cm =  0.0066     CD =  0.01685   =>   CDf =  0.00883    CDp =  0.00802

 Side 1 forced transition at x/c =  1.0000   77
 Side 2  free  transition at x/c =  0.0975   24

   5   rms: 0.9542E-04   max: -.1021E-02   D at   26  2
       a = -3.500      CL = -0.4239
      Cm =  0.0066     CD =  0.01685   =>   CDf =  0.00884    CDp =  0.00800
 plradd ia,ip,cpol            2           0  4.83539887E-03

 Point added to stored polar  1
 Point written to save file  rc1064c_Re150k.base.pol                         
 Dump file unspecified or not available
 Calculating wake trajectory ...
 Calculating source influence matrix ...

 Solving BL system ...

 Side 1 forced transition at x/c =  1.0000   77
 Side 2  free  transition at x/c =  0.0975   24

   1   rms: 0.1177E+00   max: -.1284E+01   T at   24  2   RLX: 0.389
       a = -3.000      CL = -0.4076
      Cm =  0.0074     CD =  0.01641   =>   CDf =  0.00884    CDp =  0.00756

 Side 1 forced transition at x/c =  1.0000   77
 Side 2  free  transition at x/c =  0.1143   25

   2   rms: 0.8212E-01   max: -.8256E+00   T at   25  2   RLX: 0.606
       a = -3.000      CL = -0.3926
      Cm =  0.0080     CD =  0.01583   =>   CDf =  0.00875    CDp =  0.00708

 Side 1 forced transition at x/c =  1.0000   77
 Side 2  free  transition at x/c =  0.1328   26

   3   rms: 0.3918E-01   max: -.4062E+00   T at   26  2
       a = -3.000      CL = -0.3822
      Cm =  0.0086     CD =  0.01561   =>   CDf =  0.00880    CDp =  0.00681

 Side 1 forced transition at x/c =  1.0000   78
 Side 2  free  transition at x/c =  0.1558   27

   4   rms: 0.1721E-01   max: 0.2279E+00   D at   27  2
       a = -3.000      CL = -0.3821
      Cm =  0.0085     CD =  0.01570   =>   CDf =  0.00852    CDp =  0.00718

 Side 1 forced transition at x/c =  1.0000   78
 Side 2  free  transition at x/c =  0.1558   27

   5   rms: 0.3599E-02   max: 0.3686E-01   C at   27  2
       a = -3.000      CL = -0.3821
      Cm =  0.0085     CD =  0.01571   =>   CDf =  0.00848    CDp =  0.00723

 Side 1 forced transition at x/c =  1.0000   78
 Side 2  free  transition at x/c =  0.1551   27

   6   rms: 0.6270E-04   max: -.8640E-03   D at   32  2
       a = -3.000      CL = -0.3821
      Cm =  0.0085     CD =  0.01571   =>   CDf =  0.00850    CDp =  0.00722
 plradd ia,ip,cpol            3           0  7.14542810E-03

 Point added to stored polar  1
 Point written to save file  rc1064c_Re150k.base.pol                         
 Dump file unspecified or not available
 Calculating wake trajectory ...
 Calculating source influence matrix ...

 Solving BL system ...

 Side 1 forced transition at x/c =  1.0000   78
 Side 2  free  transition at x/c =  0.1551   27

   1   rms: 0.1752E+00   max: 0.1332E+01   D at   28  2   RLX: 0.481
       a = -2.500      CL = -0.3614
      Cm =  0.0092     CD =  0.01585   =>   CDf =  0.00849    CDp =  0.00735

 Side 1 forced transition at x/c =  1.0000   78
 Side 2  free  transition at x/c =  0.1845   30

   2   rms: 0.1026E+00   max: -.1284E+01   T at   30  2   RLX: 0.389
       a = -2.500      CL = -0.3501
      Cm =  0.0096     CD =  0.01601   =>   CDf =  0.00867    CDp =  0.00733

 Side 1 forced transition at x/c =  1.0000   78
 Side 2  free  transition at x/c =  0.2066   32

   3   rms: 0.1021E+00   max: -.1160E+01   C at   32  2   RLX: 0.431
       a = -2.500      CL = -0.3469
      Cm =  0.0098     CD =  0.01465   =>   CDf =  0.00844    CDp =  0.00621

 Side 1 forced transition at x/c =  1.0000   78
 Side 2  free  transition at x/c =  0.2189   33

   4   rms: 0.9226E-01   max: -.1213E+01   C at   33  2   RLX: 0.412
       a = -2.500      CL = -0.3434
      Cm =  0.0099     CD =  0.01461   =>   CDf =  0.00839    CDp =  0.00622

 Side 1 forced transition at x/c =  1.0000   78
 Side 2  free  transition at x/c =  0.2286   34

   5   rms: 0.8932E-01   max: -.1449E+01   C at   34  2   RLX: 0.345
       a = -2.500      CL = -0.3419
      Cm =  0.0099     CD =  0.01461   =>   CDf =  0.00827    CDp =  0.00635

 Side 1 forced transition at x/c =  1.0000   78
 Side 2  free  transition at x/c =  0.2319   35

   6   rms: 0.1053E+00   max: -.1009E+01   C at   35  2   RLX: 0.495
       a = -2.500      CL = -0.3407
      Cm =  0.0098     CD =  0.01430   =>   CDf =  0.00840    CDp =  0.00590

 Side 1 forced transition at x/c =  1.0000   78
 Side 2  free  transition at x/c =  0.2442   36

   7   rms: 0.6459E-01   max: -.8247E+00   C at   36  2   RLX: 0.606
       a = -2.500      CL = -0.3402
      Cm =  0.0098     CD =  0.01436   =>   CDf =  0.00822    CDp =  0.00614

 Side 1 forced transition at x/c =  1.0000   78
 Side 2  free  transition at x/c =  0.2581   37

   8   rms: 0.4153E-01   max: -.6385E+00   C at   37  2   RLX: 0.783
       a = -2.500      CL = -0.3401
      Cm =  0.0099     CD =  0.01428   =>   CDf =  0.00806    CDp =  0.00622

 Side 1 forced transition at x/c =  1.0000   78
 Side 2  free  transition at x/c =  0.2746   38

   9   rms: 0.2220E-01   max: -.3833E+00   C at   38  2
       a = -2.500      CL = -0.3405
      Cm =  0.0099     CD =  0.01423   =>   CDf =  0.00794    CDp =  0.00630

 Side 1 forced transition at x/c =  1.0000   78
 Side 2  free  transition at x/c =  0.2864   38

  10   rms: 0.2570E-02   max: -.4411E-01   C at   38  2
       a = -2.500      CL = -0.3405
      Cm =  0.0099     CD =  0.01426   =>   CDf =  0.00783    CDp =  0.00643

 Side 1 forced transition at x/c =  1.0000   78
 Side 2  free  transition at x/c =  0.2871   38

  11   rms: 0.5342E-04   max: 0.9439E-03   C at   38  2
       a = -2.500      CL = -0.3405
      Cm =  0.0099     CD =  0.01426   =>   CDf =  0.00782    CDp =  0.00644
 plradd ia,ip,cpol            4           0  7.14542810E-03

 Point added to stored polar  1
 Point written to save file  rc1064c_Re150k.base.pol                         
 Dump file unspecified or not available
 Calculating wake trajectory ...
 Calculating source influence matrix ...

 Solving BL system ...

 Side 1 forced transition at x/c =  1.0000   78
 Side 2  free  transition at x/c =  0.2871   38

   1   rms: 0.4717E+00   max: -.8379E+01   C at   38  2   RLX: 0.060
       a = -2.000      CL = -0.3381
      Cm =  0.0100     CD =  0.01411   =>   CDf =  0.00782    CDp =  0.00629

 Side 1 forced transition at x/c =  1.0000   78
 Side 2  free  transition at x/c =  0.3023   39

   2   rms: 0.2785E+00   max: -.4753E+01   C at   39  2   RLX: 0.105
       a = -2.000      CL = -0.3328
      Cm =  0.0100     CD =  0.01403   =>   CDf =  0.00778    CDp =  0.00626

 Side 1 forced transition at x/c =  1.0000   78
 Side 2  free  transition at x/c =  0.3463   42

   3   rms: 0.9499E+00   max: -.1615E+02   C at   42  2   RLX: 0.031
       a = -2.000      CL = -0.3323
      Cm =  0.0102     CD =  0.01370   =>   CDf =  0.00748    CDp =  0.00623

 Side 1 forced transition at x/c =  1.0000   78
 Side 2  free  transition at x/c =  0.3554   43

   4   rms: 0.7771E+00   max: -.1351E+02   C at   43  2   RLX: 0.037
       a = -2.000      CL = -0.3303
      Cm =  0.0100     CD =  0.01365   =>   CDf =  0.00745    CDp =  0.00620

 Side 1 forced transition at x/c =  1.0000   78
 Side 2  free  transition at x/c =  0.3708   44

   5   rms: 0.8693E+00   max: -.1493E+02   C at   44  2   RLX: 0.033
       a = -2.000      CL = -0.3289
      Cm =  0.0100     CD =  0.01356   =>   CDf =  0.00736    CDp =  0.00620

 Side 1 forced transition at x/c =  1.0000   78
 Side 2  free  transition at x/c =  0.3893   45

   6   rms: 0.1080E+01   max: -.1800E+02   C at   45  2   RLX: 0.028
       a = -2.000      CL = -0.3279
      Cm =  0.0100     CD =  0.01344   =>   CDf =  0.00725    CDp =  0.00620

 Side 1 forced transition at x/c =  1.0000   78
 Side 2  free  transition at x/c =  0.4113   46

   7   rms: 0.1591E+01   max: -.2526E+02   C at   46  2   RLX: 0.020
       a = -2.000      CL = -0.3273
      Cm =  0.0100     CD =  0.01332   =>   CDf =  0.00712    CDp =  0.00620

 Side 1 forced transition at x/c =  1.0000   78
 Side 2  free  transition at x/c =  0.4259   47

   8   rms: 0.1459E+01   max: -.2316E+02   C at   47  2   RLX: 0.022
       a = -2.000      CL = -0.3265
      Cm =  0.0099     CD =  0.01325   =>   CDf =  0.00705    CDp =  0.00620

 Side 1 forced transition at x/c =  1.0000   78
 Side 2  free  transition at x/c =  0.4495   49

   9   rms: 0.1278E+01   max: -.2074E+02   C at   49  2   RLX: 0.024
       a = -2.000      CL = -0.3260
      Cm =  0.0100     CD =  0.01312   =>   CDf =  0.00694    CDp =  0.00618

 Side 1 forced transition at x/c =  1.0000   78
 Side 2  free  transition at x/c =  0.4765   50

  10   rms: 0.1370E+01   max: -.2118E+02   C at   50  2   RLX: 0.024
       a = -2.000      CL = -0.3255
      Cm =  0.0100     CD =  0.01300   =>   CDf =  0.00681    CDp =  0.00620

 Side 1 forced transition at x/c =  1.0000   78
 Side 2  free  transition at x/c =  0.4973   52

  11   rms: 0.9624E+00   max: -.1546E+02   C at   52  2   RLX: 0.032
       a = -2.000      CL = -0.3248
      Cm =  0.0101     CD =  0.01290   =>   CDf =  0.00672    CDp =  0.00619

 Side 1 forced transition at x/c =  1.0000   78
 Side 2  free  transition at x/c =  0.5338   54

  12   rms: 0.8938E+00   max: -.1397E+02   C at   54  2   RLX: 0.036
       a = -2.000      CL = -0.3245
      Cm =  0.0103     CD =  0.01274   =>   CDf =  0.00653    CDp =  0.00621

 Side 1 forced transition at x/c =  1.0000   78
 Side 2  free  transition at x/c =  0.5719   56

  13   rms: 0.7561E+00   max: -.1160E+02   C at   56  2   RLX: 0.043
       a = -2.000      CL = -0.3243
      Cm =  0.0107     CD =  0.01261   =>   CDf =  0.00636    CDp =  0.00624

 Side 1 forced transition at x/c =  1.0000   78
 Side 2  free  transition at x/c =  0.6159   59

  14   rms: 0.5464E+00   max: -.8473E+01   C at   59  2   RLX: 0.059
       a = -2.000      CL = -0.3243
      Cm =  0.0113     CD =  0.01245   =>   CDf =  0.00615    CDp =  0.00630

 Side 1 forced transition at x/c =  1.0000   78
 Side 2  free  transition at x/c =  0.6630   62

  15   rms: 0.3125E+00   max: -.4825E+01   C at   62  2   RLX: 0.104
       a = -2.000      CL = -0.3237
      Cm =  0.0122     CD =  0.01233   =>   CDf =  0.00594    CDp =  0.00639

 Side 1 forced transition at x/c =  1.0000   78
 Side 2  free  transition at x/c =  0.7256   66

  16   rms: 0.1777E+00   max: -.2623E+01   C at   66  2   RLX: 0.191
       a = -2.000      CL = -0.3233
      Cm =  0.0141     CD =  0.01227   =>   CDf =  0.00568    CDp =  0.00660

 Side 1 forced transition at x/c =  1.0000   78
 Side 2  free  transition at x/c =  0.7917   70

  17   rms: 0.5048E-01   max: 0.2031E+00   D at   71  2
       a = -2.000      CL = -0.3129
      Cm =  0.0167     CD =  0.01238   =>   CDf =  0.00544    CDp =  0.00694

 MRCHDU: Convergence failed at  79  side 2    Res =  0.2303E+01
 MRCHDU: Convergence failed at  80  side 2    Res =  0.1622E+01
 MRCHDU: Convergence failed at  81  side 2    Res =  0.1640E+01
 MRCHDU: Convergence failed at  82  side 2    Res =  0.1726E+01
 MRCHDU: Convergence failed at  83  side 2    Res =  0.1805E+01
 MRCHDU: Convergence failed at  84  side 2    Res =  0.2262E+01
 Side 1 forced transition at x/c =  1.0000   78
 Side 2  free  transition at x/c =  0.9342   79

  18   rms: 0.7914E-01   max: 0.4299E+00   D at   71  2
       a = -2.000      CL = -0.2922
      Cm =  0.0141     CD =  0.01243   =>   CDf =  0.00542    CDp =  0.00702

 Side 1 forced transition at x/c =  1.0000   79
 Side 2  free  transition at x/c =  0.9073   76

  19   rms: 0.2826E-01   max: -.1769E+00   D at   79  2
       a = -2.000      CL = -0.3010
      Cm =  0.0154     CD =  0.01252   =>   CDf =  0.00529    CDp =  0.00723

 Side 1 forced transition at x/c =  1.0000   79
 Side 2  free  transition at x/c =  0.8809   75
 idif Ue xi dudx           1  0.19345598      2.30240822E-03   84.023315    
 Uenew xinew           2  5.62919397E-03  6.69956207E-05

  20   rms: 0.1002E-01   max: -.8687E-01   D at   75  2
       a = -2.000      CL = -0.3062
      Cm =  0.0162     CD =  0.01255   =>   CDf =  0.00526    CDp =  0.00729

 Side 1 forced transition at x/c =  1.0000   78
 Side 2  free  transition at x/c =  0.8792   75

  21   rms: 0.7065E-03   max: -.9686E-02   T at    2  2
       a = -2.000      CL = -0.3061
      Cm =  0.0162     CD =  0.01256   =>   CDf =  0.00531    CDp =  0.00725

 Side 1 forced transition at x/c =  1.0000   78
 Side 2  free  transition at x/c =  0.8789   75

  22   rms: 0.6160E-03   max: -.7659E-02   D at    4  2
       a = -2.000      CL = -0.3061
      Cm =  0.0162     CD =  0.01256   =>   CDf =  0.00531    CDp =  0.00725

 Side 1 forced transition at x/c =  1.0000   78
 Side 2  free  transition at x/c =  0.8789   75

  23   rms: 0.2629E-05   max: -.3197E-04   D at    4  2
       a = -2.000      CL = -0.3061
      Cm =  0.0162     CD =  0.01256   =>   CDf =  0.00531    CDp =  0.00725
 plradd ia,ip,cpol            5           0  7.14542810E-03

 Point added to stored polar  1
 Point written to save file  rc1064c_Re150k.base.pol                         
 Dump file unspecified or not available
 Calculating wake trajectory ...
 Calculating source influence matrix ...

 Solving BL system ...

 Side 1 forced transition at x/c =  1.0000   78
 Side 2  free  transition at x/c =  0.8789   75

   1   rms: 0.1058E+00   max: -.4229E+00   T at   75  2
       a = -1.500      CL = -0.2740
      Cm =  0.0223     CD =  0.01326   =>   CDf =  0.00540    CDp =  0.00786

 MRCHDU: Convergence failed at  82  side 2    Res =  0.1501E+01
 MRCHDU: Convergence failed at  83  side 2    Res =  0.3649E+02
 Side 1  free  transition at x/c =  0.9839   78
 Side 2 forced transition at x/c =  1.0000   83

   2   rms: 0.1375E+00   max: 0.1023E+01   D at   75  2   RLX: 0.812
       a = -1.500      CL = -0.1853
      Cm =  0.0028     CD =  0.01270   =>   CDf =  0.00566    CDp =  0.00703

 MRCHDU: Convergence failed at  75  side 2    Res =  0.4392E+02
 Side 1 forced transition at x/c =  1.0000   79
 Side 2 forced transition at x/c =  1.0000   83

   3   rms: 0.1018E+00   max: 0.6616E+00   D at   76  2
       a = -1.500      CL = -0.1119
      Cm = -0.0101     CD =  0.01390   =>   CDf =  0.00580    CDp =  0.00810

 Side 1 forced transition at x/c =  1.0000   80
 Side 2  free  transition at x/c =  0.9928   81
 idif Ue xi dudx           1  0.24974924      2.44092941E-03   102.31728    
 Uenew xinew           2  4.79592718E-02  4.68730927E-04

   4   rms: 0.1093E+00   max: -.5333E+00   C at   81  2   RLX: 0.938
       a = -1.500      CL = -0.2126
      Cm =  0.0099     CD =  0.01388   =>   CDf =  0.00572    CDp =  0.00816

 Side 1 forced transition at x/c =  1.0000   79
 Side 2  free  transition at x/c =  0.9763   81

   5   rms: 0.1390E-01   max: -.1143E+00   D at   88  2
       a = -1.500      CL = -0.2027
      Cm =  0.0080     CD =  0.01377   =>   CDf =  0.00554    CDp =  0.00823

 Side 1 forced transition at x/c =  1.0000   79
 Side 2  free  transition at x/c =  0.9737   81

   6   rms: 0.2540E-02   max: -.1978E-01   D at    4  2
       a = -1.500      CL = -0.2033
      Cm =  0.0081     CD =  0.01375   =>   CDf =  0.00555    CDp =  0.00819

 Side 1 forced transition at x/c =  1.0000   79
 Side 2  free  transition at x/c =  0.9743   81

   7   rms: 0.1179E-04   max: -.8301E-04   D at   90  2
       a = -1.500      CL = -0.2033
      Cm =  0.0081     CD =  0.01375   =>   CDf =  0.00555    CDp =  0.00819
 plradd ia,ip,cpol            6           0  7.14542810E-03

 Point added to stored polar  1
 Point written to save file  rc1064c_Re150k.base.pol                         
 Dump file unspecified or not available
 Calculating wake trajectory ...
 Calculating source influence matrix ...

 Solving BL system ...

 Side 1 forced transition at x/c =  1.0000   79
 Side 2  free  transition at x/c =  0.9743   81

   1   rms: 0.1530E+00   max: 0.4496E+00   D at   83  2
       a = -1.000      CL = -0.0605
      Cm = -0.0096     CD =  0.01478   =>   CDf =  0.00566    CDp =  0.00912

 Side 1 forced transition at x/c =  1.0000   80
 Side 2 forced transition at x/c =  1.0000   82

   2   rms: 0.1665E-01   max: 0.1304E+00   D at    3  1
       a = -1.000      CL = -0.0702
      Cm = -0.0082     CD =  0.01437   =>   CDf =  0.00587    CDp =  0.00850

 Side 1  free  transition at x/c =  0.9992   80
 Side 2 forced transition at x/c =  1.0000   82

   3   rms: 0.3133E-02   max: -.2645E-01   D at   80  1
       a = -1.000      CL = -0.0685
      Cm = -0.0085     CD =  0.01439   =>   CDf =  0.00587    CDp =  0.00852

 Side 1  free  transition at x/c =  0.9998   80
 Side 2 forced transition at x/c =  1.0000   82

   4   rms: 0.4560E-04   max: 0.3345E-03   D at   88  2
       a = -1.000      CL = -0.0685
      Cm = -0.0085     CD =  0.01440   =>   CDf =  0.00587    CDp =  0.00853
 plradd ia,ip,cpol            7           0  1.00950124E-02

 Point added to stored polar  1
 Point written to save file  rc1064c_Re150k.base.pol                         
 Dump file unspecified or not available
 Calculating wake trajectory ...
 Calculating source influence matrix ...

 Solving BL system ...

 Side 1  free  transition at x/c =  0.9998   80
 Side 2 forced transition at x/c =  1.0000   82

   1   rms: 0.1215E+00   max: 0.1863E+00   T at   83  2
       a = -0.500      CL =  0.0365
      Cm = -0.0200     CD =  0.01446   =>   CDf =  0.00595    CDp =  0.00852

 Side 1  free  transition at x/c =  0.9887   80
 Side 2 forced transition at x/c =  1.0000   81

   2   rms: 0.1658E-01   max: -.1372E+00   D at   87  2
       a = -0.500      CL =  0.0251
      Cm = -0.0178     CD =  0.01449   =>   CDf =  0.00603    CDp =  0.00846

 Side 1  free  transition at x/c =  0.9861   80
 Side 2 forced transition at x/c =  1.0000   81

   3   rms: 0.1875E-02   max: -.1617E-01   D at   86  2
       a = -0.500      CL =  0.0252
      Cm = -0.0178     CD =  0.01445   =>   CDf =  0.00603    CDp =  0.00842

 Side 1  free  transition at x/c =  0.9866   80
 Side 2 forced transition at x/c =  1.0000   81

   4   rms: 0.1888E-04   max: -.1532E-03   D at   81  1
       a = -0.500      CL =  0.0252
      Cm = -0.0178     CD =  0.01445   =>   CDf =  0.00603    CDp =  0.00842
 plradd ia,ip,cpol            8           0  2.36023832E-02

 Point added to stored polar  1
 Point written to save file  rc1064c_Re150k.base.pol                         
 Dump file unspecified or not available
 Calculating wake trajectory ...
 Calculating source influence matrix ...

 Solving BL system ...

 Side 1  free  transition at x/c =  0.9866   80
 Side 2 forced transition at x/c =  1.0000   81

   1   rms: 0.1045E+00   max: 0.1387E+00   T at   82  2
       a =  0.000      CL =  0.1175
      Cm = -0.0267     CD =  0.01451   =>   CDf =  0.00609    CDp =  0.00843

 Side 1  free  transition at x/c =  0.9745   80
 Side 2 forced transition at x/c =  1.0000   80

   2   rms: 0.9378E-02   max: -.1488E+00   D at   80  1
       a =  0.000      CL =  0.1135
      Cm = -0.0258     CD =  0.01443   =>   CDf =  0.00613    CDp =  0.00830

 Side 1  free  transition at x/c =  0.9722   80
 Side 2 forced transition at x/c =  1.0000   80

   3   rms: 0.3684E-02   max: -.2037E-01   D at   82  1
       a =  0.000      CL =  0.1145
      Cm = -0.0259     CD =  0.01441   =>   CDf =  0.00612    CDp =  0.00829

 Side 1  free  transition at x/c =  0.9729   80
 Side 2 forced transition at x/c =  1.0000   80

   4   rms: 0.6842E-04   max: -.5117E-03   D at   80  1
       a =  0.000      CL =  0.1145
      Cm = -0.0259     CD =  0.01441   =>   CDf =  0.00612    CDp =  0.00830
 plradd ia,ip,cpol            9           0  0.19904383    

 Point added to stored polar  1
 Point written to save file  rc1064c_Re150k.base.pol                         
 Dump file unspecified or not available
 Calculating wake trajectory ...
 Calculating source influence matrix ...

 Solving BL system ...

 Side 1  free  transition at x/c =  0.9729   80
 Side 2 forced transition at x/c =  1.0000   80

   1   rms: 0.1081E+00   max: 0.1180E+00   T at   81  2
       a =  0.500      CL =  0.2124
      Cm = -0.0356     CD =  0.01436   =>   CDf =  0.00614    CDp =  0.00822

 Side 1  free  transition at x/c =  0.9616   80
 Side 2 forced transition at x/c =  1.0000   79

   2   rms: 0.9880E-02   max: -.1566E+00   D at   80  1
       a =  0.500      CL =  0.2076
      Cm = -0.0345     CD =  0.01429   =>   CDf =  0.00613    CDp =  0.00815

 Side 1  free  transition at x/c =  0.9593   79
 Side 2 forced transition at x/c =  1.0000   79

   3   rms: 0.1040E-01   max: -.7465E-01   T at   79  1
       a =  0.500      CL =  0.2154
      Cm = -0.0360     CD =  0.01421   =>   CDf =  0.00613    CDp =  0.00808

 Side 1  free  transition at x/c =  0.9631   80
 Side 2 forced transition at x/c =  1.0000   79

   4   rms: 0.1129E-01   max: -.7570E-01   D at   79  1
       a =  0.500      CL =  0.2094
      Cm = -0.0348     CD =  0.01427   =>   CDf =  0.00613    CDp =  0.00814

 Side 1  free  transition at x/c =  0.9603   80
 Side 2 forced transition at x/c =  1.0000   79

   5   rms: 0.1234E-02   max: 0.7643E-02   D at   83  1
       a =  0.500      CL =  0.2091
      Cm = -0.0348     CD =  0.01426   =>   CDf =  0.00613    CDp =  0.00813

 Side 1  free  transition at x/c =  0.9602   80
 Side 2 forced transition at x/c =  1.0000   79

   6   rms: 0.1060E-04   max: -.6277E-04   D at   80  1
       a =  0.500      CL =  0.2091
      Cm = -0.0348     CD =  0.01426   =>   CDf =  0.00613    CDp =  0.00813
 plradd ia,ip,cpol           10           0  6.62699416E-02

 Point added to stored polar  1
 Point written to save file  rc1064c_Re150k.base.pol                         
 Dump file unspecified or not available
 Calculating wake trajectory ...
 Calculating source influence matrix ...

 Solving BL system ...

 Side 1  free  transition at x/c =  0.9602   80
 Side 2 forced transition at x/c =  1.0000   79

   1   rms: 0.1188E+00   max: 0.9844E-01   T at   80  2
       a =  1.000      CL =  0.3203
      Cm = -0.0467     CD =  0.01394   =>   CDf =  0.00612    CDp =  0.00782

 Side 1  free  transition at x/c =  0.9482   79
 Side 2 forced transition at x/c =  1.0000   78

   2   rms: 0.1480E-01   max: -.2195E+00   D at   80  1
       a =  1.000      CL =  0.3270
      Cm = -0.0476     CD =  0.01372   =>   CDf =  0.00606    CDp =  0.00766

 Side 1  free  transition at x/c =  0.9520   80
 Side 2 forced transition at x/c =  1.0000   78

   3   rms: 0.1047E-01   max: -.9695E-01   D at   79  1
       a =  1.000      CL =  0.3211
      Cm = -0.0465     CD =  0.01380   =>   CDf =  0.00605    CDp =  0.00775

 Side 1  free  transition at x/c =  0.9497   80
 Side 2 forced transition at x/c =  1.0000   78

   4   rms: 0.2544E-02   max: 0.1446E-01   D at   83  1
       a =  1.000      CL =  0.3203
      Cm = -0.0463     CD =  0.01380   =>   CDf =  0.00606    CDp =  0.00774

 Side 1  free  transition at x/c =  0.9493   80
 Side 2 forced transition at x/c =  1.0000   78

   5   rms: 0.2244E-04   max: -.1809E-03   D at   81  1
       a =  1.000      CL =  0.3203
      Cm = -0.0463     CD =  0.01380   =>   CDf =  0.00606    CDp =  0.00774
 plradd ia,ip,cpol           11           0  1.95279140E-02

 Point added to stored polar  1
 Point written to save file  rc1064c_Re150k.base.pol                         
 Dump file unspecified or not available
 Calculating wake trajectory ...
 Calculating source influence matrix ...

 Solving BL system ...

 Side 1  free  transition at x/c =  0.9493   80
 Side 2 forced transition at x/c =  1.0000   78

   1   rms: 0.1389E+00   max: -.1345E+00   D at   85  2
       a =  1.500      CL =  0.4513
      Cm = -0.0613     CD =  0.01288   =>   CDf =  0.00601    CDp =  0.00686

 Side 1  free  transition at x/c =  0.9323   79
 Side 2 forced transition at x/c =  1.0000   77

   2   rms: 0.2054E-01   max: -.2332E+00   D at   80  1
       a =  1.500      CL =  0.4335
      Cm = -0.0572     CD =  0.01315   =>   CDf =  0.00589    CDp =  0.00725

 Side 1  free  transition at x/c =  0.9304   78
 Side 2 forced transition at x/c =  1.0000   77

   3   rms: 0.3093E-02   max: 0.1715E-01   D at   82  1
       a =  1.500      CL =  0.4305
      Cm = -0.0566     CD =  0.01316   =>   CDf =  0.00593    CDp =  0.00723

 Side 1  free  transition at x/c =  0.9298   78
 Side 2 forced transition at x/c =  1.0000   77

   4   rms: 0.3841E-03   max: -.2253E-02   T at   78  1
       a =  1.500      CL =  0.4308
      Cm = -0.0567     CD =  0.01315   =>   CDf =  0.00593    CDp =  0.00722

 Side 1  free  transition at x/c =  0.9299   78
 Side 2 forced transition at x/c =  1.0000   77

   5   rms: 0.8507E-05   max: -.5029E-04   T at   78  1
       a =  1.500      CL =  0.4308
      Cm = -0.0567     CD =  0.01315   =>   CDf =  0.00593    CDp =  0.00722
 plradd ia,ip,cpol           12           0  1.49279851E-02

 Point added to stored polar  1
 Point written to save file  rc1064c_Re150k.base.pol                         
 Dump file unspecified or not available
 Calculating wake trajectory ...
 Calculating source influence matrix ...

 Solving BL system ...

 Side 1  free  transition at x/c =  0.9299   78
 Side 2 forced transition at x/c =  1.0000   77

   1   rms: 0.1122E+00   max: 0.1309E+01   T at   78  1   RLX: 0.912
       a =  2.000      CL =  0.4332
      Cm = -0.0470     CD =  0.01444   =>   CDf =  0.00594    CDp =  0.00850

 Side 1  free  transition at x/c =  0.8745   72
 Side 2 forced transition at x/c =  1.0000   77

   2   rms: 0.5455E-01   max: -.4659E+00   D at   77  1
       a =  2.000      CL =  0.4633
      Cm = -0.0513     CD =  0.01315   =>   CDf =  0.00589    CDp =  0.00726

 Side 1  free  transition at x/c =  0.8818   73
 Side 2 forced transition at x/c =  1.0000   77

   3   rms: 0.3117E-02   max: -.2462E-01   D at   72  1
       a =  2.000      CL =  0.4621
      Cm = -0.0511     CD =  0.01309   =>   CDf =  0.00584    CDp =  0.00725

 Side 1  free  transition at x/c =  0.8814   73
 Side 2 forced transition at x/c =  1.0000   77

   4   rms: 0.2758E-03   max: 0.1911E-02   D at   79  1
       a =  2.000      CL =  0.4620
      Cm = -0.0511     CD =  0.01309   =>   CDf =  0.00584    CDp =  0.00725

 Side 1  free  transition at x/c =  0.8814   73
 Side 2 forced transition at x/c =  1.0000   77

   5   rms: 0.1716E-05   max: 0.1095E-04   D at   81  2
       a =  2.000      CL =  0.4620
      Cm = -0.0511     CD =  0.01309   =>   CDf =  0.00584    CDp =  0.00725
 plradd ia,ip,cpol           13           0  1.49279851E-02

 Point added to stored polar  1
 Point written to save file  rc1064c_Re150k.base.pol                         
 Dump file unspecified or not available
 Calculating wake trajectory ...
 Calculating source influence matrix ...

 Solving BL system ...

 Side 1  free  transition at x/c =  0.8814   73
 Side 2 forced transition at x/c =  1.0000   77

   1   rms: 0.1128E+00   max: -.1158E+00   D at   83  2
       a =  2.500      CL =  0.5315
      Cm = -0.0517     CD =  0.01187   =>   CDf =  0.00575    CDp =  0.00612

 Side 1  free  transition at x/c =  0.8466   71
 Side 2 forced transition at x/c =  1.0000   76

   2   rms: 0.2623E-01   max: -.3226E+00   D at   73  1
       a =  2.500      CL =  0.5130
      Cm = -0.0481     CD =  0.01215   =>   CDf =  0.00572    CDp =  0.00644

 Side 1  free  transition at x/c =  0.8473   71
 Side 2 forced transition at x/c =  1.0000   76

   3   rms: 0.1772E-02   max: 0.1781E-01   D at   72  1
       a =  2.500      CL =  0.5144
      Cm = -0.0484     CD =  0.01210   =>   CDf =  0.00578    CDp =  0.00632

 Side 1  free  transition at x/c =  0.8472   71
 Side 2 forced transition at x/c =  1.0000   76

   4   rms: 0.2074E-04   max: -.1090E-03   C at   71  1
       a =  2.500      CL =  0.5144
      Cm = -0.0484     CD =  0.01211   =>   CDf =  0.00578    CDp =  0.00633
 plradd ia,ip,cpol           14           0  1.12489592E-02

 Point added to stored polar  1
 Point written to save file  rc1064c_Re150k.base.pol                         
 Dump file unspecified or not available
 Calculating wake trajectory ...
 Calculating source influence matrix ...

 Solving BL system ...

 Side 1  free  transition at x/c =  0.8472   71
 Side 2 forced transition at x/c =  1.0000   76

   1   rms: 0.1107E+00   max: -.4718E+00   D at   74  1
       a =  3.000      CL =  0.5727
      Cm = -0.0468     CD =  0.01120   =>   CDf =  0.00578    CDp =  0.00542

 Side 1  free  transition at x/c =  0.7833   66
 Side 2 forced transition at x/c =  1.0000   76

   2   rms: 0.3730E-01   max: 0.5051E+00   D at   70  1
       a =  3.000      CL =  0.5547
      Cm = -0.0438     CD =  0.01210   =>   CDf =  0.00582    CDp =  0.00629

 Side 1  free  transition at x/c =  0.7902   67
 Side 2 forced transition at x/c =  1.0000   76

   3   rms: 0.1282E-01   max: 0.1191E+00   D at   78  1
       a =  3.000      CL =  0.5591
      Cm = -0.0445     CD =  0.01169   =>   CDf =  0.00585    CDp =  0.00583

 Side 1  free  transition at x/c =  0.7904   67
 Side 2 forced transition at x/c =  1.0000   76

   4   rms: 0.1000E-02   max: -.1282E-01   D at   78  1
       a =  3.000      CL =  0.5591
      Cm = -0.0445     CD =  0.01169   =>   CDf =  0.00580    CDp =  0.00589

 Side 1  free  transition at x/c =  0.7902   67
 Side 2 forced transition at x/c =  1.0000   76

   5   rms: 0.1135E-04   max: -.1592E-03   D at   79  1
       a =  3.000      CL =  0.5591
      Cm = -0.0445     CD =  0.01169   =>   CDf =  0.00580    CDp =  0.00589
 plradd ia,ip,cpol           15           0  1.12489592E-02

 Point added to stored polar  1
 Point written to save file  rc1064c_Re150k.base.pol                         
 Dump file unspecified or not available
 Calculating wake trajectory ...
 Calculating source influence matrix ...

 Solving BL system ...

 Side 1  free  transition at x/c =  0.7902   67
 Side 2 forced transition at x/c =  1.0000   76

   1   rms: 0.1191E+00   max: 0.5369E+00   T at   67  1   RLX: 0.954
       a =  3.500      CL =  0.6051
      Cm = -0.0410     CD =  0.01117   =>   CDf =  0.00570    CDp =  0.00547

 Side 1  free  transition at x/c =  0.7161   63
 Side 2 forced transition at x/c =  1.0000   75

   2   rms: 0.3701E-01   max: 0.3881E+00   D at   67  1
       a =  3.500      CL =  0.6011
      Cm = -0.0402     CD =  0.01147   =>   CDf =  0.00590    CDp =  0.00557

 Side 1  free  transition at x/c =  0.7160   63
 Side 2 forced transition at x/c =  1.0000   75

   3   rms: 0.6643E-02   max: -.6264E-01   D at   67  1
       a =  3.500      CL =  0.6013
      Cm = -0.0404     CD =  0.01154   =>   CDf =  0.00590    CDp =  0.00565

 Side 1  free  transition at x/c =  0.7128   63
 Side 2 forced transition at x/c =  1.0000   75

   4   rms: 0.2413E-03   max: -.2714E-02   D at   67  1
       a =  3.500      CL =  0.6014
      Cm = -0.0404     CD =  0.01155   =>   CDf =  0.00593    CDp =  0.00562

 Side 1  free  transition at x/c =  0.7127   63
 Side 2 forced transition at x/c =  1.0000   75

   5   rms: 0.1765E-05   max: -.9523E-05   D at   84  1
       a =  3.500      CL =  0.6014
      Cm = -0.0404     CD =  0.01155   =>   CDf =  0.00593    CDp =  0.00562
 plradd ia,ip,cpol           16           0  1.12489592E-02

 Point added to stored polar  1
 Point written to save file  rc1064c_Re150k.base.pol                         
 Dump file unspecified or not available
 Calculating wake trajectory ...
 Calculating source influence matrix ...

 Solving BL system ...

 Side 1  free  transition at x/c =  0.7127   63
 Side 2 forced transition at x/c =  1.0000   75

   1   rms: 0.1011E+00   max: 0.5516E+00   C at   63  1
       a =  4.000      CL =  0.6434
      Cm = -0.0364     CD =  0.01158   =>   CDf =  0.00593    CDp =  0.00565

 Side 1  free  transition at x/c =  0.5816   55
 Side 2 forced transition at x/c =  1.0000   75

   2   rms: 0.4149E-01   max: -.2970E+00   C at   55  1
       a =  4.000      CL =  0.6394
      Cm = -0.0357     CD =  0.01176   =>   CDf =  0.00645    CDp =  0.00531

 Side 1  free  transition at x/c =  0.6010   56
 Side 2 forced transition at x/c =  1.0000   75

   3   rms: 0.8389E-02   max: 0.1067E+00   C at   56  1
       a =  4.000      CL =  0.6398
      Cm = -0.0359     CD =  0.01185   =>   CDf =  0.00626    CDp =  0.00560

 Side 1  free  transition at x/c =  0.5952   56
 Side 2 forced transition at x/c =  1.0000   75

   4   rms: 0.3079E-03   max: -.3384E-02   D at   62  1
       a =  4.000      CL =  0.6399
      Cm = -0.0359     CD =  0.01186   =>   CDf =  0.00631    CDp =  0.00555

 Side 1  free  transition at x/c =  0.5952   56
 Side 2 forced transition at x/c =  1.0000   75

   5   rms: 0.1771E-05   max: 0.1400E-04   C at   56  1
       a =  4.000      CL =  0.6399
      Cm = -0.0359     CD =  0.01186   =>   CDf =  0.00631    CDp =  0.00555
 plradd ia,ip,cpol           17           0  8.23539961E-03

 Point added to stored polar  1
 Point written to save file  rc1064c_Re150k.base.pol                         
 Dump file unspecified or not available
 Calculating wake trajectory ...
 Calculating source influence matrix ...

 Solving BL system ...

 Side 1  free  transition at x/c =  0.5952   56
 Side 2 forced transition at x/c =  1.0000   75

   1   rms: 0.1695E+00   max: 0.2132E+01   C at   56  1   RLX: 0.558
       a =  4.500      CL =  0.6582
      Cm = -0.0326     CD =  0.01236   =>   CDf =  0.00632    CDp =  0.00604

 Side 1  free  transition at x/c =  0.4687   48
 Side 2 forced transition at x/c =  1.0000   75

   2   rms: 0.7843E-01   max: 0.1023E+01   C at   48  1
       a =  4.500      CL =  0.6643
      Cm = -0.0293     CD =  0.01324   =>   CDf =  0.00682    CDp =  0.00642

 Side 1  free  transition at x/c =  0.3445   41
 Side 2 forced transition at x/c =  1.0000   74

   3   rms: 0.2057E-01   max: -.2091E+00   D at   50  1
       a =  4.500      CL =  0.6613
      Cm = -0.0289     CD =  0.01350   =>   CDf =  0.00756    CDp =  0.00594

 Side 1  free  transition at x/c =  0.3341   40
 Side 2 forced transition at x/c =  1.0000   74

   4   rms: 0.2413E-02   max: 0.2878E-01   C at   40  1
       a =  4.500      CL =  0.6610
      Cm = -0.0289     CD =  0.01356   =>   CDf =  0.00760    CDp =  0.00596

 Side 1  free  transition at x/c =  0.3326   40
 Side 2 forced transition at x/c =  1.0000   74

   5   rms: 0.2620E-04   max: -.4299E-03   C at   40  1
       a =  4.500      CL =  0.6610
      Cm = -0.0289     CD =  0.01356   =>   CDf =  0.00761    CDp =  0.00595
 plradd ia,ip,cpol           18           0  8.23539961E-03

 Point added to stored polar  1
 Point written to save file  rc1064c_Re150k.base.pol                         
 Dump file unspecified or not available
 Calculating wake trajectory ...
 Calculating source influence matrix ...

 Solving BL system ...

 Side 1  free  transition at x/c =  0.3327   40
 Side 2 forced transition at x/c =  1.0000   74

   1   rms: 0.3855E+00   max: 0.6616E+01   C at   40  1   RLX: 0.227
       a =  5.000      CL =  0.6631
      Cm = -0.0271     CD =  0.01426   =>   CDf =  0.00761    CDp =  0.00665

 Side 1  free  transition at x/c =  0.2608   35
 Side 2 forced transition at x/c =  1.0000   74

   2   rms: 0.2332E+00   max: 0.4032E+01   C at   35  1   RLX: 0.372
       a =  5.000      CL =  0.6685
      Cm = -0.0254     CD =  0.01503   =>   CDf =  0.00805    CDp =  0.00698

 Side 1  free  transition at x/c =  0.1907   31
 Side 2 forced transition at x/c =  1.0000   74

   3   rms: 0.1063E+00   max: 0.1176E+01   C at   31  1   RLX: 0.565
       a =  5.000      CL =  0.6733
      Cm = -0.0237     CD =  0.01593   =>   CDf =  0.00850    CDp =  0.00743

 Side 1  free  transition at x/c =  0.1524   28
 Side 2 forced transition at x/c =  1.0000   74

   4   rms: 0.4811E-01   max: -.5124E+00   D at   29  1   RLX: 0.976
       a =  5.000      CL =  0.6809
      Cm = -0.0228     CD =  0.01612   =>   CDf =  0.00880    CDp =  0.00731

 Side 1  free  transition at x/c =  0.1304   27
 Side 2 forced transition at x/c =  1.0000   74

   5   rms: 0.2590E-01   max: -.2342E+00   D at   27  1
       a =  5.000      CL =  0.6769
      Cm = -0.0223     CD =  0.01640   =>   CDf =  0.00900    CDp =  0.00741

 Side 1  free  transition at x/c =  0.1352   27
 Side 2 forced transition at x/c =  1.0000   74

   6   rms: 0.1672E-02   max: -.1744E-01   D at   29  1
       a =  5.000      CL =  0.6772
      Cm = -0.0223     CD =  0.01644   =>   CDf =  0.00894    CDp =  0.00750

 Side 1  free  transition at x/c =  0.1343   27
 Side 2 forced transition at x/c =  1.0000   74

   7   rms: 0.1038E-03   max: -.1115E-02   C at   27  1
       a =  5.000      CL =  0.6771
      Cm = -0.0223     CD =  0.01644   =>   CDf =  0.00895    CDp =  0.00749

 Side 1  free  transition at x/c =  0.1343   27
 Side 2 forced transition at x/c =  1.0000   74

   8   rms: 0.1359E-05   max: -.4465E-05   D at   34  1
       a =  5.000      CL =  0.6771
      Cm = -0.0223     CD =  0.01644   =>   CDf =  0.00895    CDp =  0.00749
 plradd ia,ip,cpol           19           0  8.23539961E-03

 Point added to stored polar  1
 Point written to save file  rc1064c_Re150k.base.pol                         
 Dump file unspecified or not available
 Calculating wake trajectory ...
 Calculating source influence matrix ...

 Solving BL system ...

 Side 1  free  transition at x/c =  0.1343   27
 Side 2 forced transition at x/c =  1.0000   74

   1   rms: 0.1246E+00   max: 0.1198E+01   T at   27  1
       a =  5.500      CL =  0.7094
      Cm = -0.0175     CD =  0.01815   =>   CDf =  0.00895    CDp =  0.00920

 MRCHDU: Convergence failed at  27  side 1    Res =  0.8430E+01
 MRCHDU: Convergence failed at  28  side 1    Res =  0.5371E+01
 MRCHDU: Convergence failed at  29  side 1    Res =  0.4118E+02
 MRCHDU: Convergence failed at  30  side 1    Res =  0.1845E+01
 MRCHDU: Convergence failed at  31  side 1    Res =  0.4061E+01
 MRCHDU: Convergence failed at  32  side 1    Res =  0.4542E+01
 MRCHDU: Convergence failed at  33  side 1    Res =  0.4444E+01
 MRCHDU: Convergence failed at  34  side 1    Res =  0.4434E+01
 MRCHDU: Convergence failed at  35  side 1    Res =  0.3494E+01
 MRCHDU: Convergence failed at  36  side 1    Res =  0.3688E+01
 MRCHDU: Convergence failed at  37  side 1    Res =  0.3906E+01
 MRCHDU: Convergence failed at  38  side 1    Res =  0.2793E+01
 MRCHDU: Convergence failed at  39  side 1    Res =  0.3013E+01
 MRCHDU: Convergence failed at  40  side 1    Res =  0.3179E+01
 MRCHDU: Convergence failed at  41  side 1    Res =  0.3309E+01
 MRCHDU: Convergence failed at  42  side 1    Res =  0.3364E+01
 MRCHDU: Convergence failed at  43  side 1    Res =  0.5365E+01
 MRCHDU: Convergence failed at  44  side 1    Res =  0.5742E+01
 MRCHDU: Convergence failed at  45  side 1    Res =  0.7324E+01
 MRCHDU: Convergence failed at  46  side 1    Res =  0.8028E+01
 MRCHDU: Convergence failed at  47  side 1    Res =  0.8694E+01
 MRCHDU: Convergence failed at  48  side 1    Res =  0.9395E+01
 MRCHDU: Convergence failed at  49  side 1    Res =  0.9974E+01
 MRCHDU: Convergence failed at  50  side 1    Res =  0.1073E+02
 MRCHDU: Convergence failed at  51  side 1    Res =  0.1260E+02
 MRCHDU: Convergence failed at  52  side 1    Res =  0.1749E+02
 MRCHDU: Convergence failed at  53  side 1    Res =  0.2079E+02
 MRCHDU: Convergence failed at  54  side 1    Res =  0.2446E+02
 MRCHDU: Convergence failed at  55  side 1    Res =  0.3057E+02
 MRCHDU: Convergence failed at  56  side 1    Res =  0.4229E+02
 MRCHDU: Convergence failed at  57  side 1    Res =  0.7611E+02
 MRCHDU: Convergence failed at  58  side 1    Res =  0.1965E+03
 MRCHDU: Convergence failed at  59  side 1    Res =  0.3543E+03
 MRCHDU: Convergence failed at  60  side 1    Res =  0.1090E+03
 MRCHDU: Convergence failed at  61  side 1    Res =  0.7845E+02
 MRCHDU: Convergence failed at  62  side 1    Res =  0.5181E+02
 MRCHDU: Convergence failed at  63  side 1    Res =  0.3778E+02
 MRCHDU: Convergence failed at  64  side 1    Res =  0.2911E+02
 MRCHDU: Convergence failed at  65  side 1    Res =  0.2457E+02
 MRCHDU: Convergence failed at  66  side 1    Res =  0.2401E+02
 MRCHDU: Convergence failed at  67  side 1    Res =  0.2083E+02
 MRCHDU: Convergence failed at  68  side 1    Res =  0.1848E+02
 MRCHDU: Convergence failed at  69  side 1    Res =  0.1573E+02
 MRCHDU: Convergence failed at  70  side 1    Res =  0.1322E+02
 MRCHDU: Convergence failed at  71  side 1    Res =  0.1125E+02
 MRCHDU: Convergence failed at  72  side 1    Res =  0.1179E+02
 MRCHDU: Convergence failed at  73  side 1    Res =  0.1113E+02
 MRCHDU: Convergence failed at  74  side 1    Res =  0.1291E+02
 MRCHDU: Convergence failed at  75  side 1    Res =  0.1096E+02
 MRCHDU: Convergence failed at  76  side 1    Res =  0.1327E+02
 MRCHDU: Convergence failed at  77  side 1    Res =  0.2038E+02
 MRCHDU: Convergence failed at  78  side 1    Res =  0.2081E+02
 MRCHDU: Convergence failed at  79  side 1    Res =  0.3635E+02
 MRCHDU: Convergence failed at  80  side 1    Res =  0.2720E+02
 MRCHDU: Convergence failed at  81  side 1    Res =  0.3148E+02
 MRCHDU: Convergence failed at  82  side 1    Res =  0.6960E+02
 MRCHDU: Convergence failed at  83  side 1    Res =  0.2361E+02
 MRCHDU: Convergence failed at  84  side 1    Res =  0.2783E+02
 MRCHDU: Convergence failed at  85  side 1    Res =  0.2857E+02
 MRCHDU: Convergence failed at  86  side 1    Res =  0.2583E+02
 MRCHDU: Convergence failed at  87  side 1    Res =  0.3795E+02
 MRCHDU: Convergence failed at  88  side 1    Res =  0.3688E+02
 Side 1  free  transition at x/c =  0.1006   25
 Side 2 forced transition at x/c =  1.0000   74

   2   rms: 0.6337E+00   max: -.2804E+01   T at   25  1   RLX: 0.178
       a =  5.500      CL =  1.0606
      Cm = -0.1887     CD =  0.01103   =>   CDf =  0.00382    CDp =  0.00722

 Side 1  free  transition at x/c =  0.1160   26
 Side 2 forced transition at x/c =  1.0000   74

   3   rms: 0.2972E+00   max: -.1006E+01   D at   46  1   RLX: 0.497
       a =  5.500      CL =  0.7441
      Cm = -0.0535     CD =  0.02453   =>   CDf =  0.00687    CDp =  0.01766

 Side 1  free  transition at x/c =  0.1260   27
 Side 2 forced transition at x/c =  1.0000   74

   4   rms: 0.3499E+00   max: -.1725E+01   D at   46  1   RLX: 0.290
       a =  5.500      CL =  0.6954
      Cm = -0.0268     CD =  0.02155   =>   CDf =  0.00696    CDp =  0.01460

 Side 1  free  transition at x/c =  0.1249   27
 Side 2 forced transition at x/c =  1.0000   74

   5   rms: 0.4469E+00   max: -.1920E+01   D at   56  1   RLX: 0.260
       a =  5.500      CL =  0.6534
      Cm = -0.0116     CD =  0.01887   =>   CDf =  0.00731    CDp =  0.01156

 Side 1  free  transition at x/c =  0.1318   27
 Side 2 forced transition at x/c =  1.0000   74

   6   rms: 0.4488E+00   max: -.1710E+01   D at   59  1   RLX: 0.292
       a =  5.500      CL =  0.6801
      Cm = -0.0112     CD =  0.01664   =>   CDf =  0.00791    CDp =  0.00872

 Side 1  free  transition at x/c =  0.1170   26
 Side 2 forced transition at x/c =  1.0000   74

   7   rms: 0.4434E+00   max: 0.2585E+01   T at   26  1   RLX: 0.322
       a =  5.500      CL =  0.7577
      Cm = -0.0215     CD =  0.01778   =>   CDf =  0.00853    CDp =  0.00925

 MRCHDU: Convergence failed at  26  side 1    Res =  0.2628E+01
 MRCHDU: Convergence failed at  27  side 1    Res =  0.4050E+01
 MRCHDU: Convergence failed at  28  side 1    Res =  0.2740E+01
 MRCHDU: Convergence failed at  29  side 1    Res =  0.5827E+01
 MRCHDU: Convergence failed at  30  side 1    Res =  0.2772E+01
 MRCHDU: Convergence failed at  31  side 1    Res =  0.2732E+01
 MRCHDU: Convergence failed at  32  side 1    Res =  0.2970E+01
 MRCHDU: Convergence failed at  33  side 1    Res =  0.3392E+01
 MRCHDU: Convergence failed at  34  side 1    Res =  0.3544E+01
 MRCHDU: Convergence failed at  35  side 1    Res =  0.3465E+01
 MRCHDU: Convergence failed at  36  side 1    Res =  0.3518E+01
 MRCHDU: Convergence failed at  37  side 1    Res =  0.3571E+01
 MRCHDU: Convergence failed at  38  side 1    Res =  0.3628E+01
 MRCHDU: Convergence failed at  39  side 1    Res =  0.3666E+01
 MRCHDU: Convergence failed at  40  side 1    Res =  0.3521E+01
 MRCHDU: Convergence failed at  41  side 1    Res =  0.2981E+01
 MRCHDU: Convergence failed at  42  side 1    Res =  0.5351E+02
 MRCHDU: Convergence failed at  43  side 1    Res =  0.2283E+02
 MRCHDU: Convergence failed at  44  side 1    Res =  0.2496E+02
 MRCHDU: Convergence failed at  45  side 1    Res =  0.3011E+02
 MRCHDU: Convergence failed at  46  side 1    Res =  0.5156E+02
 MRCHDU: Convergence failed at  47  side 1    Res =  0.2138E+03
 MRCHDU: Convergence failed at  48  side 1    Res =  0.5371E+02
 MRCHDU: Convergence failed at  49  side 1    Res =  0.1234E+02
 MRCHDU: Convergence failed at  50  side 1    Res =  0.4284E+01
 MRCHDU: Convergence failed at  51  side 1    Res =  0.3440E+01
 MRCHDU: Convergence failed at  52  side 1    Res =  0.2757E+02
 MRCHDU: Convergence failed at  53  side 1    Res =  0.7801E+02
 MRCHDU: Convergence failed at  54  side 1    Res =  0.5796E+02
 MRCHDU: Convergence failed at  55  side 1    Res =  0.4646E+02
 MRCHDU: Convergence failed at  56  side 1    Res =  0.3995E+02
 MRCHDU: Convergence failed at  57  side 1    Res =  0.3340E+02
 MRCHDU: Convergence failed at  58  side 1    Res =  0.2410E+02
 MRCHDU: Convergence failed at  59  side 1    Res =  0.2149E+02
 MRCHDU: Convergence failed at  60  side 1    Res =  0.1882E+02
 MRCHDU: Convergence failed at  61  side 1    Res =  0.1613E+02
 MRCHDU: Convergence failed at  62  side 1    Res =  0.1867E+02
 MRCHDU: Convergence failed at  63  side 1    Res =  0.2090E+02
 MRCHDU: Convergence failed at  64  side 1    Res =  0.6046E+01
 MRCHDU: Convergence failed at  65  side 1    Res =  0.4626E+01
 MRCHDU: Convergence failed at  66  side 1    Res =  0.2459E+02
 MRCHDU: Convergence failed at  67  side 1    Res =  0.1746E+02
 MRCHDU: Convergence failed at  68  side 1    Res =  0.1569E+02
 MRCHDU: Convergence failed at  69  side 1    Res =  0.2254E+02
 MRCHDU: Convergence failed at  70  side 1    Res =  0.8405E+02
 MRCHDU: Convergence failed at  71  side 1    Res =  0.1214E+03
 MRCHDU: Convergence failed at  72  side 1    Res =  0.1089E+03
 MRCHDU: Convergence failed at  73  side 1    Res =  0.1399E+02
 MRCHDU: Convergence failed at  74  side 1    Res =  0.4890E+02
 MRCHDU: Convergence failed at  75  side 1    Res =  0.2618E+02
 MRCHDU: Convergence failed at  76  side 1    Res =  0.3410E+02
 MRCHDU: Convergence failed at  77  side 1    Res =  0.2229E+02
 MRCHDU: Convergence failed at  78  side 1    Res =  0.7735E+02
 MRCHDU: Convergence failed at  79  side 1    Res =  0.1875E+02
 MRCHDU: Convergence failed at  80  side 1    Res =  0.1708E+03
 MRCHDU: Convergence failed at  81  side 1    Res =  0.3875E+02
 MRCHDU: Convergence failed at  82  side 1    Res =  0.1677E+02
 MRCHDU: Convergence failed at  83  side 1    Res =  0.1737E+03
 MRCHDU: Convergence failed at  84  side 1    Res =  0.6213E+02
 MRCHDU: Convergence failed at  85  side 1    Res =  0.1592E+03
 MRCHDU: Convergence failed at  86  side 1    Res =  0.5361E+02
 MRCHDU: Convergence failed at  87  side 1    Res =  0.3483E+02
 MRCHDU: Convergence failed at  88  side 1    Res =  0.5186E+02
 Side 1  free  transition at x/c =  0.0975   25
 Side 2 forced transition at x/c =  1.0000   74

   8   rms: 0.7271E+00   max: -.3030E+01   T at   25  1   RLX: 0.165
       a =  5.500      CL =  1.2727
      Cm = -0.2470     CD =  0.00830   =>   CDf =  0.00365    CDp =  0.00465

 MRCHDU: Convergence failed at  82  side 1    Res =  0.2925E-02
 MRCHDU: Convergence failed at  83  side 1    Res =  0.1435E-03
 Side 1  free  transition at x/c =  0.1074   25
 Side 2 forced transition at x/c =  1.0000   74

   9   rms: 0.3349E+00   max: -.5728E+00   D at   75  2   RLX: 0.510
       a =  5.500      CL =  0.8553
      Cm = -0.0779     CD =  0.02285   =>   CDf =  0.00829    CDp =  0.01456

 Side 1  free  transition at x/c =  0.1133   26
 Side 2 forced transition at x/c =  1.0000   74

  10   rms: 0.4031E+00   max: -.1986E+01   D at   49  1   RLX: 0.252
       a =  5.500      CL =  0.7927
      Cm = -0.0488     CD =  0.01810   =>   CDf =  0.00766    CDp =  0.01044

 Side 1  free  transition at x/c =  0.1132   26
 Side 2 forced transition at x/c =  1.0000   74

  11   rms: 0.5263E+00   max: -.2217E+01   D at   64  1   RLX: 0.226
       a =  5.500      CL =  0.7459
      Cm = -0.0277     CD =  0.01585   =>   CDf =  0.00803    CDp =  0.00782

 Side 1  free  transition at x/c =  0.1162   26
 Side 2 forced transition at x/c =  1.0000   74

  12   rms: 0.3454E+00   max: -.1548E+01   D at   68  1   RLX: 0.323
       a =  5.500      CL =  0.7234
      Cm = -0.0169     CD =  0.01571   =>   CDf =  0.00860    CDp =  0.00711

 MRCHDU: Convergence failed at  76  side 1    Res =  0.1018E+01
 MRCHDU: Convergence failed at  77  side 1    Res =  0.2389E+01
 Side 1  free  transition at x/c =  0.1132   26
 Side 2 forced transition at x/c =  1.0000   74

  13   rms: 0.4721E+00   max: 0.3295E+01   T at   26  1   RLX: 0.224
       a =  5.500      CL =  0.8009
      Cm = -0.0352     CD =  0.01724   =>   CDf =  0.00863    CDp =  0.00862

 MRCHDU: Convergence failed at  27  side 1    Res =  0.3538E+01
 MRCHDU: Convergence failed at  28  side 1    Res =  0.4442E+01
 MRCHDU: Convergence failed at  29  side 1    Res =  0.1867E+02
 MRCHDU: Convergence failed at  30  side 1    Res =  0.2302E+01
 MRCHDU: Convergence failed at  31  side 1    Res =  0.1607E+01
 MRCHDU: Convergence failed at  32  side 1    Res =  0.2276E+01
 MRCHDU: Convergence failed at  33  side 1    Res =  0.2380E+01
 MRCHDU: Convergence failed at  34  side 1    Res =  0.2560E+01
 MRCHDU: Convergence failed at  35  side 1    Res =  0.2688E+01
 MRCHDU: Convergence failed at  36  side 1    Res =  0.3660E+01
 MRCHDU: Convergence failed at  37  side 1    Res =  0.3093E+01
 MRCHDU: Convergence failed at  38  side 1    Res =  0.3300E+01
 MRCHDU: Convergence failed at  39  side 1    Res =  0.3500E+01
 MRCHDU: Convergence failed at  40  side 1    Res =  0.3596E+01
 MRCHDU: Convergence failed at  41  side 1    Res =  0.3590E+01
 MRCHDU: Convergence failed at  42  side 1    Res =  0.3515E+01
 MRCHDU: Convergence failed at  43  side 1    Res =  0.3280E+01
 MRCHDU: Convergence failed at  44  side 1    Res =  0.2688E+01
 MRCHDU: Convergence failed at  45  side 1    Res =  0.2219E+02
 MRCHDU: Convergence failed at  46  side 1    Res =  0.1789E+02
 MRCHDU: Convergence failed at  47  side 1    Res =  0.1798E+02
 MRCHDU: Convergence failed at  48  side 1    Res =  0.2059E+02
 MRCHDU: Convergence failed at  49  side 1    Res =  0.2804E+02
 MRCHDU: Convergence failed at  50  side 1    Res =  0.3935E+02
 MRCHDU: Convergence failed at  51  side 1    Res =  0.7673E+02
 MRCHDU: Convergence failed at  52  side 1    Res =  0.9974E+02
 MRCHDU: Convergence failed at  53  side 1    Res =  0.5948E+02
 MRCHDU: Convergence failed at  54  side 1    Res =  0.4073E+02
 MRCHDU: Convergence failed at  55  side 1    Res =  0.4087E+02
 MRCHDU: Convergence failed at  56  side 1    Res =  0.5369E+02
 MRCHDU: Convergence failed at  57  side 1    Res =  0.3004E+01
 MRCHDU: Convergence failed at  58  side 1    Res =  0.1973E+01
 MRCHDU: Convergence failed at  59  side 1    Res =  0.1346E+02
 MRCHDU: Convergence failed at  60  side 1    Res =  0.1069E+02
 MRCHDU: Convergence failed at  61  side 1    Res =  0.2224E+02
 MRCHDU: Convergence failed at  62  side 1    Res =  0.1048E+02
 MRCHDU: Convergence failed at  63  side 1    Res =  0.1076E+02
 MRCHDU: Convergence failed at  64  side 1    Res =  0.1131E+02
 MRCHDU: Convergence failed at  65  side 1    Res =  0.1273E+02
 MRCHDU: Convergence failed at  66  side 1    Res =  0.1800E+02
 MRCHDU: Convergence failed at  67  side 1    Res =  0.1701E+02
 MRCHDU: Convergence failed at  68  side 1    Res =  0.1600E+02
 MRCHDU: Convergence failed at  69  side 1    Res =  0.1591E+02
 MRCHDU: Convergence failed at  70  side 1    Res =  0.2288E+02
 MRCHDU: Convergence failed at  71  side 1    Res =  0.2124E+02
 MRCHDU: Convergence failed at  72  side 1    Res =  0.2821E+02
 MRCHDU: Convergence failed at  73  side 1    Res =  0.4730E+02
 MRCHDU: Convergence failed at  74  side 1    Res =  0.5539E+02
 MRCHDU: Convergence failed at  75  side 1    Res =  0.5422E+02
 MRCHDU: Convergence failed at  76  side 1    Res =  0.6346E+02
 MRCHDU: Convergence failed at  77  side 1    Res =  0.1811E+07
 MRCHDU: Convergence failed at  78  side 1    Res =  0.4255E+02
 MRCHDU: Convergence failed at  79  side 1    Res =  0.1199E+04
 MRCHDU: Convergence failed at  80  side 1    Res =  0.2005E+02
 MRCHDU: Convergence failed at  81  side 1    Res =  0.1243E+03
 MRCHDU: Convergence failed at  82  side 1    Res =  0.2132E+02
 MRCHDU: Convergence failed at  83  side 1    Res =  0.9622E+01
 MRCHDU: Convergence failed at  84  side 1    Res =  0.6388E+01
 MRCHDU: Convergence failed at  85  side 1    Res =  0.1723E+02
 MRCHDU: Convergence failed at  86  side 1    Res =  0.4994E+02
 MRCHDU: Convergence failed at  87  side 1    Res =  0.1678E+02
 MRCHDU: Convergence failed at  88  side 1    Res =  0.1467E+02
 MRCHDU: Convergence failed at  89  side 1    Res =  0.1470E+02
 Side 1  free  transition at x/c =  0.0987   26
 Side 2 forced transition at x/c =  1.0000   73
 idif Ue xi dudx           1  0.18420875      3.69334221E-03   49.875896    
 Uenew xinew           2  1.31339850E-02  2.63333321E-04

  14   rms: 0.7261E+00   max: -.4755E+01   T at    2  1   RLX: 0.105
       a =  5.500      CL =  1.3825
      Cm = -0.2779     CD =  0.00731   =>   CDf =  0.00377    CDp =  0.00354

 Side 1  free  transition at x/c =  0.1043   25
 Side 2 forced transition at x/c =  1.0000   74

  15   rms: 0.3434E+00   max: -.5231E+00   U at   88  1   RLX: 0.637
       a =  5.500      CL =  0.9475
      Cm = -0.0942     CD =  0.01374   =>   CDf =  0.01027    CDp =  0.00347

 Side 1  free  transition at x/c =  0.0937   25
 Side 2 forced transition at x/c =  1.0000   73
 idif Ue xi dudx           1  0.18848643      3.81600857E-03   49.393608    
 Uenew xinew           2  1.90659165E-02  3.85999680E-04

  16   rms: 0.2672E+00   max: -.1152E+01   D at   28  1   RLX: 0.434
       a =  5.500      CL =  0.8028
      Cm = -0.0489     CD =  0.01591   =>   CDf =  0.01003    CDp =  0.00588

 MRCHDU: Convergence failed at  26  side 1    Res =  0.7225E+01
 MRCHDU: Convergence failed at  27  side 1    Res =  0.7375E+01
 MRCHDU: Convergence failed at  28  side 1    Res =  0.2007E+01
 MRCHDU: Convergence failed at  29  side 1    Res =  0.2294E+01
 MRCHDU: Convergence failed at  30  side 1    Res =  0.2556E+01
 MRCHDU: Convergence failed at  31  side 1    Res =  0.2606E+01
 MRCHDU: Convergence failed at  32  side 1    Res =  0.2851E+01
 MRCHDU: Convergence failed at  33  side 1    Res =  0.2988E+01
 MRCHDU: Convergence failed at  34  side 1    Res =  0.3051E+01
 MRCHDU: Convergence failed at  35  side 1    Res =  0.3085E+01
 MRCHDU: Convergence failed at  36  side 1    Res =  0.3143E+01
 MRCHDU: Convergence failed at  37  side 1    Res =  0.3242E+01
 MRCHDU: Convergence failed at  38  side 1    Res =  0.3381E+01
 MRCHDU: Convergence failed at  39  side 1    Res =  0.3527E+01
 MRCHDU: Convergence failed at  40  side 1    Res =  0.3526E+01
 MRCHDU: Convergence failed at  41  side 1    Res =  0.3460E+01
 MRCHDU: Convergence failed at  42  side 1    Res =  0.3403E+01
 MRCHDU: Convergence failed at  43  side 1    Res =  0.7394E+01
 MRCHDU: Convergence failed at  44  side 1    Res =  0.8026E+01
 MRCHDU: Convergence failed at  45  side 1    Res =  0.8650E+01
 MRCHDU: Convergence failed at  46  side 1    Res =  0.9453E+01
 MRCHDU: Convergence failed at  47  side 1    Res =  0.1038E+02
 MRCHDU: Convergence failed at  48  side 1    Res =  0.1146E+02
 MRCHDU: Convergence failed at  49  side 1    Res =  0.1252E+02
 MRCHDU: Convergence failed at  50  side 1    Res =  0.1398E+02
 MRCHDU: Convergence failed at  51  side 1    Res =  0.1580E+02
 MRCHDU: Convergence failed at  52  side 1    Res =  0.1771E+02
 MRCHDU: Convergence failed at  53  side 1    Res =  0.1873E+02
 MRCHDU: Convergence failed at  54  side 1    Res =  0.2061E+02
 MRCHDU: Convergence failed at  55  side 1    Res =  0.2269E+02
 MRCHDU: Convergence failed at  56  side 1    Res =  0.2391E+02
 MRCHDU: Convergence failed at  57  side 1    Res =  0.2243E+02
 MRCHDU: Convergence failed at  58  side 1    Res =  0.1473E+02
 MRCHDU: Convergence failed at  59  side 1    Res =  0.1490E+02
 MRCHDU: Convergence failed at  60  side 1    Res =  0.1503E+02
 MRCHDU: Convergence failed at  61  side 1    Res =  0.1601E+02
 MRCHDU: Convergence failed at  62  side 1    Res =  0.1646E+02
 MRCHDU: Convergence failed at  63  side 1    Res =  0.1726E+02
 MRCHDU: Convergence failed at  64  side 1    Res =  0.1808E+02
 MRCHDU: Convergence failed at  65  side 1    Res =  0.1970E+02
 MRCHDU: Convergence failed at  66  side 1    Res =  0.1725E+02
 MRCHDU: Convergence failed at  67  side 1    Res =  0.1795E+02
 MRCHDU: Convergence failed at  68  side 1    Res =  0.1784E+02
 MRCHDU: Convergence failed at  69  side 1    Res =  0.1838E+02
 MRCHDU: Convergence failed at  70  side 1    Res =  0.8063E+02
 MRCHDU: Convergence failed at  71  side 1    Res =  0.2675E+02
 MRCHDU: Convergence failed at  72  side 1    Res =  0.2497E+02
 MRCHDU: Convergence failed at  73  side 1    Res =  0.2296E+02
 MRCHDU: Convergence failed at  74  side 1    Res =  0.4415E+03
 MRCHDU: Convergence failed at  75  side 1    Res =  0.2670E+02
 MRCHDU: Convergence failed at  76  side 1    Res =  0.3597E+02
 MRCHDU: Convergence failed at  77  side 1    Res =  0.3486E+02
 MRCHDU: Convergence failed at  78  side 1    Res =  0.3462E+02
 MRCHDU: Convergence failed at  79  side 1    Res =  0.3374E+02
 MRCHDU: Convergence failed at  80  side 1    Res =  0.7939E+02
 MRCHDU: Convergence failed at  81  side 1    Res =  0.3591E+03
 MRCHDU: Convergence failed at  82  side 1    Res =  0.3674E+02
 MRCHDU: Convergence failed at  83  side 1    Res =  0.3947E+02
 MRCHDU: Convergence failed at  84  side 1    Res =  0.1553E+02
 MRCHDU: Convergence failed at  85  side 1    Res =  0.1522E+02
 MRCHDU: Convergence failed at  86  side 1    Res =  0.1078E+03
 MRCHDU: Convergence failed at  87  side 1    Res =  0.2486E+02
 MRCHDU: Convergence failed at  88  side 1    Res =  0.4122E+02
 Side 1  free  transition at x/c =  0.1078   25
 Side 2 forced transition at x/c =  1.0000   74

  17   rms: 0.7610E+00   max: -.2910E+01   T at   25  1   RLX: 0.172
       a =  5.500      CL =  1.3519
      Cm = -0.2723     CD =  0.00679   =>   CDf =  0.00361    CDp =  0.00318

 Side 1  free  transition at x/c =  0.1303   27
 Side 2 forced transition at x/c =  1.0000   74

  18   rms: 0.3708E+00   max: -.5850E+00   D at   75  2   RLX: 0.494
       a =  5.500      CL =  0.9168
      Cm = -0.0944     CD =  0.01865   =>   CDf =  0.00960    CDp =  0.00904

 Side 1  free  transition at x/c =  0.1171   26
 Side 2 forced transition at x/c =  1.0000   74

  19   rms: 0.3855E+00   max: -.1759E+01   D at   60  1   RLX: 0.284
       a =  5.500      CL =  0.8027
      Cm = -0.0562     CD =  0.01669   =>   CDf =  0.00885    CDp =  0.00784

 Side 1  free  transition at x/c =  0.1275   27
 Side 2 forced transition at x/c =  1.0000   74

  20   rms: 0.3298E+00   max: -.1371E+01   D at   62  1   RLX: 0.365
       a =  5.500      CL =  0.7615
      Cm = -0.0367     CD =  0.01573   =>   CDf =  0.00896    CDp =  0.00677

 Side 1  free  transition at x/c =  0.1179   26
 Side 2 forced transition at x/c =  1.0000   74

  21   rms: 0.4120E+00   max: 0.2803E+01   T at   26  1   RLX: 0.355
       a =  5.500      CL =  0.8182
      Cm = -0.0397     CD =  0.01731   =>   CDf =  0.00899    CDp =  0.00832

 MRCHDU: Convergence failed at  27  side 1    Res =  0.7042E+01
 MRCHDU: Convergence failed at  28  side 1    Res =  0.5313E+01
 MRCHDU: Convergence failed at  29  side 1    Res =  0.1357E+02
 MRCHDU: Convergence failed at  30  side 1    Res =  0.1306E+02
 MRCHDU: Convergence failed at  31  side 1    Res =  0.6681E+01
 MRCHDU: Convergence failed at  32  side 1    Res =  0.6948E+01
 MRCHDU: Convergence failed at  33  side 1    Res =  0.7804E+01
 MRCHDU: Convergence failed at  34  side 1    Res =  0.8300E+01
 MRCHDU: Convergence failed at  35  side 1    Res =  0.1051E+02
 MRCHDU: Convergence failed at  36  side 1    Res =  0.3224E+01
 MRCHDU: Convergence failed at  37  side 1    Res =  0.3346E+01
 MRCHDU: Convergence failed at  38  side 1    Res =  0.3390E+01
 MRCHDU: Convergence failed at  39  side 1    Res =  0.3550E+01
 MRCHDU: Convergence failed at  40  side 1    Res =  0.7625E+01
 MRCHDU: Convergence failed at  41  side 1    Res =  0.7902E+01
 MRCHDU: Convergence failed at  42  side 1    Res =  0.8214E+01
 MRCHDU: Convergence failed at  43  side 1    Res =  0.9126E+01
 MRCHDU: Convergence failed at  44  side 1    Res =  0.9660E+01
 MRCHDU: Convergence failed at  45  side 1    Res =  0.1027E+02
 MRCHDU: Convergence failed at  46  side 1    Res =  0.1133E+02
 MRCHDU: Convergence failed at  47  side 1    Res =  0.1198E+02
 MRCHDU: Convergence failed at  48  side 1    Res =  0.1251E+02
 MRCHDU: Convergence failed at  49  side 1    Res =  0.1346E+02
 MRCHDU: Convergence failed at  50  side 1    Res =  0.1343E+02
 MRCHDU: Convergence failed at  51  side 1    Res =  0.1289E+02
 MRCHDU: Convergence failed at  52  side 1    Res =  0.1198E+02
 MRCHDU: Convergence failed at  53  side 1    Res =  0.9550E+01
 MRCHDU: Convergence failed at  54  side 1    Res =  0.5787E+01
 MRCHDU: Convergence failed at  55  side 1    Res =  0.2265E+02
 MRCHDU: Convergence failed at  56  side 1    Res =  0.3583E+02
 MRCHDU: Convergence failed at  57  side 1    Res =  0.4928E+02
 MRCHDU: Convergence failed at  58  side 1    Res =  0.5664E+02
 MRCHDU: Convergence failed at  59  side 1    Res =  0.5340E+02
 MRCHDU: Convergence failed at  60  side 1    Res =  0.5280E+02
 MRCHDU: Convergence failed at  61  side 1    Res =  0.3828E+02
 MRCHDU: Convergence failed at  62  side 1    Res =  0.2651E+02
 MRCHDU: Convergence failed at  63  side 1    Res =  0.2534E+02
 MRCHDU: Convergence failed at  64  side 1    Res =  0.2513E+02
 MRCHDU: Convergence failed at  65  side 1    Res =  0.2214E+02
 MRCHDU: Convergence failed at  66  side 1    Res =  0.1845E+02
 MRCHDU: Convergence failed at  67  side 1    Res =  0.2653E+02
 MRCHDU: Convergence failed at  68  side 1    Res =  0.3083E+02
 MRCHDU: Convergence failed at  69  side 1    Res =  0.4535E+01
 MRCHDU: Convergence failed at  70  side 1    Res =  0.3655E+01
 MRCHDU: Convergence failed at  71  side 1    Res =  0.2467E+02
 MRCHDU: Convergence failed at  72  side 1    Res =  0.3139E+02
 MRCHDU: Convergence failed at  73  side 1    Res =  0.1829E+02
 MRCHDU: Convergence failed at  74  side 1    Res =  0.5935E+02
 MRCHDU: Convergence failed at  75  side 1    Res =  0.3744E+02
 MRCHDU: Convergence failed at  76  side 1    Res =  0.3460E+04
 MRCHDU: Convergence failed at  77  side 1    Res =  0.5208E+03
 MRCHDU: Convergence failed at  78  side 1    Res =  0.6026E+02
 MRCHDU: Convergence failed at  79  side 1    Res =  0.5263E+02
 MRCHDU: Convergence failed at  80  side 1    Res =  0.6619E+02
 MRCHDU: Convergence failed at  81  side 1    Res =  0.2398E+02
 MRCHDU: Convergence failed at  82  side 1    Res =  0.2367E+02
 MRCHDU: Convergence failed at  83  side 1    Res =  0.4496E+03
 MRCHDU: Convergence failed at  84  side 1    Res =  0.4582E+02
 MRCHDU: Convergence failed at  85  side 1    Res =  0.9510E+03
 MRCHDU: Convergence failed at  86  side 1    Res =  0.3932E+02
 MRCHDU: Convergence failed at  87  side 1    Res =  0.2551E+02
 MRCHDU: Convergence failed at  88  side 1    Res =  0.9349E+03
 MRCHDU: Convergence failed at  89  side 1    Res =  0.5517E+02
 Side 1  free  transition at x/c =  0.0956   26
 Side 2 forced transition at x/c =  1.0000   73
 idif Ue xi dudx           1  0.16425921      3.44645977E-03   47.660271    
 Uenew xinew           2  7.84053467E-04  1.64508820E-05

  22   rms: 0.1239E+02   max: -.2184E+03   T at    2  1   RLX: 0.002
       a =  5.500      CL =  1.4375
      Cm = -0.2988     CD =  0.00776   =>   CDf =  0.00385    CDp =  0.00390

 Side 1  free  transition at x/c =  0.0957   25
 Side 2 forced transition at x/c =  1.0000   74

  23   rms: 0.2797E+01   max: -.4837E+02   D at    2  2   RLX: 0.010
       a =  5.500      CL =  1.1079
      Cm = -0.1876     CD =  0.02938   =>   CDf =  0.00510    CDp =  0.02428

 Side 1  free  transition at x/c =  0.0961   25
 Side 2 forced transition at x/c =  1.0000   74

  24   rms: 0.5295E+00   max: -.2549E+01   T at   25  1   RLX: 0.196
       a =  5.500      CL =  0.9550
      Cm = -0.1400     CD =  0.03002   =>   CDf =  0.00511    CDp =  0.02492

 Side 1  free  transition at x/c =  0.1046   25
 Side 2 forced transition at x/c =  1.0000   74

  25   rms: 0.6644E+00   max: -.6928E+01   T at   25  1   RLX: 0.072
       a =  5.500      CL =  0.9069
      Cm = -0.1286     CD =  0.03344   =>   CDf =  0.00525    CDp =  0.02818

 MRCHDU: Convergence failed at  44  side 1    Res =  0.9663E-01
 Side 1  free  transition at x/c =  0.1157   26
 Side 2 forced transition at x/c =  1.0000   74

  26   rms: 0.4113E+00   max: -.2946E+01   T at   26  1   RLX: 0.170
       a =  5.500      CL =  0.7929
      Cm = -0.0885     CD =  0.02954   =>   CDf =  0.00557    CDp =  0.02397

 MRCHDU: Convergence failed at  44  side 1    Res =  0.1624E+00
 MRCHDU: Convergence failed at  45  side 1    Res =  0.3357E+00
 MRCHDU: Convergence failed at  55  side 1    Res =  0.2119E+01
 MRCHDU: Convergence failed at  56  side 1    Res =  0.1462E+01
 Side 1  free  transition at x/c =  0.1330   27
 Side 2 forced transition at x/c =  1.0000   74

  27   rms: 0.4039E+00   max: -.2083E+01   D at   46  1   RLX: 0.240
       a =  5.500      CL =  0.7135
      Cm = -0.0537     CD =  0.02077   =>   CDf =  0.00771    CDp =  0.01306

 Side 1  free  transition at x/c =  0.1434   28
 Side 2 forced transition at x/c =  1.0000   74

  28   rms: 0.3917E+00   max: -.2100E+01   D at   41  1   RLX: 0.238
       a =  5.500      CL =  0.7067
      Cm = -0.0430     CD =  0.01785   =>   CDf =  0.00769    CDp =  0.01016

 Side 1  free  transition at x/c =  0.1402   28
 Side 2 forced transition at x/c =  1.0000   74

  29   rms: 0.3271E+00   max: -.1894E+01   D at   29  1   RLX: 0.264
       a =  5.500      CL =  0.7126
      Cm = -0.0337     CD =  0.01737   =>   CDf =  0.00793    CDp =  0.00945

 Side 1  free  transition at x/c =  0.1285   27
 Side 2 forced transition at x/c =  1.0000   74

  30   rms: 0.4863E+00   max: 0.2469E+01   T at   27  1   RLX: 0.256
       a =  5.500      CL =  0.7447
      Cm = -0.0291     CD =  0.01566   =>   CDf =  0.00815    CDp =  0.00750

 MRCHDU: Convergence failed at  27  side 1    Res =  0.1720E+01
 MRCHDU: Convergence failed at  28  side 1    Res =  0.3008E+03
 MRCHDU: Convergence failed at  29  side 1    Res =  0.8214E+01
 MRCHDU: Convergence failed at  30  side 1    Res =  0.3961E+01
 MRCHDU: Convergence failed at  31  side 1    Res =  0.2913E+01
 Side 1  free  transition at x/c =  0.1088   26
 Side 2 forced transition at x/c =  1.0000   74

  31   rms: 0.6522E+00   max: 0.5293E+01   T at   26  1   RLX: 0.225
       a =  5.500      CL =  0.8729
      Cm = -0.0455     CD =  0.01682   =>   CDf =  0.00835    CDp =  0.00847

 MRCHDU: Convergence failed at  27  side 1    Res =  0.1395E+02
 MRCHDU: Convergence failed at  28  side 1    Res =  0.3423E+01
 Side 1  free  transition at x/c =  0.0928   25
 Side 2 forced transition at x/c =  1.0000   73

  32   rms: 0.1626E+00   max: -.7032E+00   D at   76  1   RLX: 0.711
       a =  5.500      CL =  0.8613
      Cm = -0.0436     CD =  0.01897   =>   CDf =  0.00895    CDp =  0.01002

 Side 1  free  transition at x/c =  0.0850   25
 Side 2 forced transition at x/c =  1.0000   73
 idif Ue xi dudx           1  0.16441219      3.43084335E-03   47.921799    
 Uenew xinew           2  3.99890632E-05  8.34465027E-07

  33   rms: 0.1283E+00   max: -.6900E+00   T at   25  1   RLX: 0.725
       a =  5.500      CL =  0.7592
      Cm = -0.0272     CD =  0.01915   =>   CDf =  0.00942    CDp =  0.00973

 Side 1  free  transition at x/c =  0.0933   24
 Side 2 forced transition at x/c =  1.0000   74

  34   rms: 0.1280E+01   max: -.2300E+02   T at    2  2   RLX: 0.022
       a =  5.500      CL =  0.7545
      Cm = -0.0267     CD =  0.02118   =>   CDf =  0.00959    CDp =  0.01159

 Side 1  free  transition at x/c =  0.0934   24
 Side 2 forced transition at x/c =  1.0000   74

  35   rms: 0.1246E+00   max: -.1446E+01   T at    2  2   RLX: 0.346
       a =  5.500      CL =  0.7346
      Cm = -0.0232     CD =  0.02071   =>   CDf =  0.00959    CDp =  0.01112

 Side 1  free  transition at x/c =  0.0966   25
 Side 2 forced transition at x/c =  1.0000   74

  36   rms: 0.4706E-01   max: -.3436E+00   T at   25  1
       a =  5.500      CL =  0.7077
      Cm = -0.0175     CD =  0.01776   =>   CDf =  0.00929    CDp =  0.00847

 Side 1  free  transition at x/c =  0.1025   25
 Side 2 forced transition at x/c =  1.0000   74

  37   rms: 0.1344E-01   max: -.1163E+00   D at   25  1
       a =  5.500      CL =  0.7070
      Cm = -0.0176     CD =  0.01817   =>   CDf =  0.00916    CDp =  0.00901

 Side 1  free  transition at x/c =  0.1026   25
 Side 2 forced transition at x/c =  1.0000   74

  38   rms: 0.4618E-03   max: 0.3490E-02   T at   25  1
       a =  5.500      CL =  0.7073
      Cm = -0.0176     CD =  0.01819   =>   CDf =  0.00914    CDp =  0.00906

 Side 1  free  transition at x/c =  0.1025   25
 Side 2 forced transition at x/c =  1.0000   74

  39   rms: 0.5501E-05   max: -.3158E-04   T at   25  1
       a =  5.500      CL =  0.7073
      Cm = -0.0176     CD =  0.01819   =>   CDf =  0.00914    CDp =  0.00905
 plradd ia,ip,cpol           20           0  8.23539961E-03

 Point added to stored polar  1
 Point written to save file  rc1064c_Re150k.base.pol                         
 Dump file unspecified or not available
 Calculating wake trajectory ...
 Calculating source influence matrix ...

 Solving BL system ...

 Side 1  free  transition at x/c =  0.1025   25
 Side 2 forced transition at x/c =  1.0000   74

   1   rms: 0.8770E-01   max: 0.6381E+00   T at   25  1
       a =  6.000      CL =  0.7425
      Cm = -0.0136     CD =  0.01970   =>   CDf =  0.00900    CDp =  0.01070

 Side 1  free  transition at x/c =  0.0892   25
 Side 2 forced transition at x/c =  1.0000   73

   2   rms: 0.4300E-01   max: -.3161E+00   D at   25  1
       a =  6.000      CL =  0.7394
      Cm = -0.0133     CD =  0.01992   =>   CDf =  0.00927    CDp =  0.01066

 Side 1  free  transition at x/c =  0.0894   25
 Side 2 forced transition at x/c =  1.0000   73

   3   rms: 0.5398E-02   max: 0.3551E-01   D at   26  1
       a =  6.000      CL =  0.7424
      Cm = -0.0138     CD =  0.01997   =>   CDf =  0.00917    CDp =  0.01080

 Side 1  free  transition at x/c =  0.0888   25
 Side 2 forced transition at x/c =  1.0000   73

   4   rms: 0.1090E-03   max: -.7068E-03   D at   25  1
       a =  6.000      CL =  0.7423
      Cm = -0.0138     CD =  0.01997   =>   CDf =  0.00918    CDp =  0.01079

 Side 1  free  transition at x/c =  0.0888   25
 Side 2 forced transition at x/c =  1.0000   73

   5   rms: 0.1934E-05   max: 0.9805E-05   T at   25  1
       a =  6.000      CL =  0.7423
      Cm = -0.0138     CD =  0.01997   =>   CDf =  0.00918    CDp =  0.01079
 plradd ia,ip,cpol           21           0  5.78685198E-03

 Point added to stored polar  1
 Point written to save file  rc1064c_Re150k.base.pol                         
 Dump file unspecified or not available
 Calculating wake trajectory ...
 Calculating source influence matrix ...

 Solving BL system ...

 Side 1  free  transition at x/c =  0.0888   25
 Side 2 forced transition at x/c =  1.0000   73

   1   rms: 0.8285E-01   max: 0.5633E+00   T at   25  1
       a =  6.500      CL =  0.7814
[...]
 MRCHDU: Convergence failed at  93  side 2    Res =  0.8585E-01
 MRCHDU: Convergence failed at  94  side 2    Res =  0.3411E-01
 MRCHDU: Convergence failed at  95  side 2    Res =  0.3457E-03
 Side 1  free  transition at x/c =  0.0756   24
 Side 2 forced transition at x/c =  1.0000   73

 119   rms: 0.4590E+03   max: 0.1102E+05   T at   95  2   RLX: 0.000
       a = 11.250      CL =  1.1688
      Cm = -0.1676     CD =+Infinity   =>   CDf =  0.00519    CDp =+Infinity

 MRCHDU: Convergence failed at  91  side 2    Res =  0.3006E-01
 MRCHDU: Convergence failed at  92  side 2    Res =  0.6211E-01
 MRCHDU: Convergence failed at  93  side 2    Res =  0.9000E-01
 MRCHDU: Convergence failed at  94  side 2    Res =  0.1399E+00
 MRCHDU: Convergence failed at  95  side 2    Res =  0.2145E-02
 Side 1  free  transition at x/c =  0.0756   24
 Side 2 forced transition at x/c =  1.0000   73

 120   rms: 0.3727E+03   max: -.9053E+04   T at   95  2   RLX: 0.000
       a = 11.250      CL =  1.1691
      Cm = -0.1677     CD =+Infinity   =>   CDf =  0.00519    CDp =+Infinity

 MRCHDU: Convergence failed at  91  side 2    Res =  0.2978E-01
 MRCHDU: Convergence failed at  92  side 2    Res =  0.6101E-01
 MRCHDU: Convergence failed at  93  side 2    Res =  0.1112E+00
 MRCHDU: Convergence failed at  94  side 2    Res =  0.7882E-01
 MRCHDU: Convergence failed at  95  side 2    Res =  0.6659E-03
 Side 1  free  transition at x/c =  0.0756   24
 Side 2 forced transition at x/c =  1.0000   73

 121   rms: 0.6009E+03   max: 0.1459E+05   T at   95  2   RLX: 0.000
       a = 11.250      CL =  1.1697
      Cm = -0.1677     CD =+Infinity   =>   CDf =  0.00519    CDp =+Infinity

 MRCHDU: Convergence failed at  91  side 2    Res =  0.2902E-01
 MRCHDU: Convergence failed at  92  side 2    Res =  0.6247E-01
 MRCHDU: Convergence failed at  93  side 2    Res =  0.3555E-01
 MRCHDU: Convergence failed at  94  side 2    Res =  0.1424E+00
 MRCHDU: Convergence failed at  95  side 2    Res =  0.3166E-02
 Side 1  free  transition at x/c =  0.0756   24
 Side 2 forced transition at x/c =  1.0000   73

 122   rms: 0.2066E+03   max: -.5014E+04   T at   95  2   RLX: 0.000
       a = 11.250      CL =  1.1702
      Cm = -0.1678     CD =+Infinity   =>   CDf =  0.00519    CDp =+Infinity

 MRCHDU: Convergence failed at  91  side 2    Res =  0.2832E-01
 MRCHDU: Convergence failed at  92  side 2    Res =  0.6277E-01
 MRCHDU: Convergence failed at  93  side 2    Res =  0.3481E-01
 MRCHDU: Convergence failed at  94  side 2    Res =  0.1674E-01
 MRCHDU: Convergence failed at  95  side 2    Res =  0.7536E-03
 Side 1  free  transition at x/c =  0.0756   24
 Side 2 forced transition at x/c =  1.0000   73

 123   rms: 0.1068E+04   max: 0.2563E+05   T at   95  2   RLX: 0.000
       a = 11.250      CL =  1.1706
      Cm = -0.1678     CD =*********   =>   CDf =  0.00520    CDp =*********

 MRCHDU: Convergence failed at  91  side 2    Res =  0.2788E-01
 MRCHDU: Convergence failed at  92  side 2    Res =  0.6376E-01
 MRCHDU: Convergence failed at  93  side 2    Res =  0.5286E-01
 MRCHDU: Convergence failed at  94  side 2    Res =  0.1443E+00
 MRCHDU: Convergence failed at  95  side 2    Res =  0.4766E-02
 Side 1  free  transition at x/c =  0.0756   24
 Side 2 forced transition at x/c =  1.0000   73

 124   rms: 0.1236E+03   max: -.2955E+04   T at   95  2   RLX: 0.000
       a = 11.250      CL =  1.1715
      Cm = -0.1680     CD =+Infinity   =>   CDf =  0.00520    CDp =+Infinity

 MRCHDU: Convergence failed at  91  side 2    Res =  0.2667E-01
 MRCHDU: Convergence failed at  92  side 2    Res =  0.6420E-01
 MRCHDU: Convergence failed at  93  side 2    Res =  0.5656E-01
 MRCHDU: Convergence failed at  94  side 2    Res =  0.3175E-01
 MRCHDU: Convergence failed at  95  side 2    Res =  0.1089E-02
 Side 1  free  transition at x/c =  0.0756   24
 Side 2 forced transition at x/c =  1.0000   73

 125   rms: 0.4656E+04   max: -.1133E+06   T at   95  2   RLX: 0.000
       a = 11.250      CL =  1.1715
      Cm = -0.1680     CD =+Infinity   =>   CDf =  0.00520    CDp =+Infinity

 MRCHDU: Convergence failed at  91  side 2    Res =  0.2665E-01
 MRCHDU: Convergence failed at  92  side 2    Res =  0.6431E-01
 MRCHDU: Convergence failed at  93  side 2    Res =  0.5498E-01
 MRCHDU: Convergence failed at  94  side 2    Res =  0.1950E-01
 MRCHDU: Convergence failed at  95  side 2    Res =  0.3366E-03
 Side 1  free  transition at x/c =  0.0756   24
 Side 2 forced transition at x/c =  1.0000   73

 126   rms: 0.4815E+03   max: 0.1140E+05   T at   95  2   RLX: 0.000
       a = 11.250      CL =  1.1722
      Cm = -0.1681     CD =+Infinity   =>   CDf =  0.00520    CDp =+Infinity

 MRCHDU: Convergence failed at  91  side 2    Res =  0.2589E-01
 MRCHDU: Convergence failed at  92  side 2    Res =  0.6369E-01
 MRCHDU: Convergence failed at  93  side 2    Res =  0.7967E-01
 MRCHDU: Convergence failed at  94  side 2    Res =  0.4893E+00
 MRCHDU: Convergence failed at  95  side 2    Res =  0.2097E-02
 Side 1  free  transition at x/c =  0.0756   24
 Side 2 forced transition at x/c =  1.0000   73

 127   rms: 0.3930E+03   max: -.9574E+04   T at   95  2   RLX: 0.000
       a = 11.250      CL =  1.1725
      Cm = -0.1681     CD =+Infinity   =>   CDf =  0.00520    CDp =+Infinity

 MRCHDU: Convergence failed at  91  side 2    Res =  0.2565E-01
 MRCHDU: Convergence failed at  92  side 2    Res =  0.6274E-01
 MRCHDU: Convergence failed at  93  side 2    Res =  0.9732E-01
 MRCHDU: Convergence failed at  94  side 2    Res =  0.8483E-01
 MRCHDU: Convergence failed at  95  side 2    Res =  0.4617E-03
 Side 1  free  transition at x/c =  0.0756   24
 Side 2 forced transition at x/c =  1.0000   73

 128   rms: 0.5042E+03   max: 0.1219E+05   T at   95  2   RLX: 0.000
       a = 11.250      CL =  1.1731
      Cm = -0.1682     CD =+Infinity   =>   CDf =  0.00520    CDp =+Infinity

 MRCHDU: Convergence failed at  91  side 2    Res =  0.2474E-01
 MRCHDU: Convergence failed at  92  side 2    Res =  0.6504E-01
 MRCHDU: Convergence failed at  93  side 2    Res =  0.7586E-01
 MRCHDU: Convergence failed at  94  side 2    Res =  0.1538E+00
 MRCHDU: Convergence failed at  95  side 2    Res =  0.3072E-02
 Side 1  free  transition at x/c =  0.0756   24
 Side 2 forced transition at x/c =  1.0000   73

 129   rms: 0.1842E+03   max: -.4461E+04   T at   95  2   RLX: 0.000
       a = 11.250      CL =  1.1737
      Cm = -0.1682     CD =+Infinity   =>   CDf =  0.00520    CDp =+Infinity

 MRCHDU: Convergence failed at  91  side 2    Res =  0.2411E-01
 MRCHDU: Convergence failed at  92  side 2    Res =  0.6453E-01
 MRCHDU: Convergence failed at  93  side 2    Res =  0.8904E-01
 MRCHDU: Convergence failed at  94  side 2    Res =  0.7208E-01
 MRCHDU: Convergence failed at  95  side 2    Res =  0.6839E-03
 Side 1  free  transition at x/c =  0.0756   24
 Side 2 forced transition at x/c =  1.0000   73

 130   rms: 0.8188E+03   max: 0.1989E+05   T at   95  2   RLX: 0.000
       a = 11.250      CL =  1.1741
      Cm = -0.1683     CD =*********   =>   CDf =  0.00520    CDp =*********

 MRCHDU: Convergence failed at  91  side 2    Res =  0.2353E-01
 MRCHDU: Convergence failed at  92  side 2    Res =  0.6624E-01
 MRCHDU: Convergence failed at  93  side 2    Res =  0.7278E-01
 MRCHDU: Convergence failed at  94  side 2    Res =  0.2578E+00
 MRCHDU: Convergence failed at  95  side 2    Res =  0.4595E-02
 Side 1  free  transition at x/c =  0.0756   24
 Side 2 forced transition at x/c =  1.0000   73

 131   rms: 0.1203E+03   max: -.2869E+04   T at   95  2   RLX: 0.000
       a = 11.250      CL =  1.1750
      Cm = -0.1684     CD =+Infinity   =>   CDf =  0.00520    CDp =+Infinity

 MRCHDU: Convergence failed at  91  side 2    Res =  0.2236E-01
 MRCHDU: Convergence failed at  92  side 2    Res =  0.6612E-01
 MRCHDU: Convergence failed at  93  side 2    Res =  0.8412E-01
 MRCHDU: Convergence failed at  94  side 2    Res =  0.6164E-01
 MRCHDU: Convergence failed at  95  side 2    Res =  0.1004E-02
 Side 1  free  transition at x/c =  0.0756   24
 Side 2 forced transition at x/c =  1.0000   73

 132   rms: 0.1554E+05   max: -.3780E+06   T at   95  2   RLX: 0.000
       a = 11.250      CL =  1.1750
      Cm = -0.1684     CD =+Infinity   =>   CDf =  0.00521    CDp =+Infinity

 MRCHDU: Convergence failed at  91  side 2    Res =  0.2238E-01
 MRCHDU: Convergence failed at  92  side 2    Res =  0.6577E-01
 MRCHDU: Convergence failed at  93  side 2    Res =  0.8889E-01
 MRCHDU: Convergence failed at  94  side 2    Res =  0.3497E-01
 MRCHDU: Convergence failed at  95  side 2    Res =  0.3234E-03
 Side 1  free  transition at x/c =  0.0756   24
 Side 2 forced transition at x/c =  1.0000   73

 133   rms: 0.4349E+03   max: 0.1042E+05   T at   95  2   RLX: 0.000
       a = 11.250      CL =  1.1757
      Cm = -0.1685     CD =+Infinity   =>   CDf =  0.00521    CDp =+Infinity

 MRCHDU: Convergence failed at  91  side 2    Res =  0.2139E-01
 MRCHDU: Convergence failed at  92  side 2    Res =  0.6608E-01
 MRCHDU: Convergence failed at  93  side 2    Res =  0.9206E-01
 Side 1  free  transition at x/c =  0.0756   24
 Side 2 forced transition at x/c =  1.0000   73

 134   rms: 0.2665E+04   max: 0.4711E+05   C at   94  2   RLX: 0.000
       a = 11.250      CL =  1.1759
      Cm = -0.1685     CD =*********   =>   CDf =  0.00521    CDp =*********

 MRCHDU: Convergence failed at  91  side 2    Res =  0.2106E-01
 MRCHDU: Convergence failed at  92  side 2    Res =  0.6760E-01
 MRCHDU: Convergence failed at  93  side 2    Res =  0.7649E-01
 Side 1  free  transition at x/c =  0.0756   24
 Side 2 forced transition at x/c =  1.0000   73

 135   rms: 0.4086E+03   max: -.7535E+04   C at   94  2   RLX: 0.000
       a = 11.250      CL =  1.1762
      Cm = -0.1686     CD =*********   =>   CDf =  0.00521    CDp =*********

 MRCHDU: Convergence failed at  91  side 2    Res =  0.2064E-01
 MRCHDU: Convergence failed at  92  side 2    Res =  0.6740E-01
 MRCHDU: Convergence failed at  93  side 2    Res =  0.8244E-01
 MRCHDU: Convergence failed at  94  side 2    Res =  0.7132E+00
 MRCHDU: Convergence failed at  95  side 2    Res =  0.4302E-02
 Side 1  free  transition at x/c =  0.0756   24
 Side 2 forced transition at x/c =  1.0000   73

 136   rms: 0.1275E+03   max: -.3043E+04   T at   95  2   RLX: 0.000
       a = 11.250      CL =  1.1771
      Cm = -0.1687     CD =+Infinity   =>   CDf =  0.00521    CDp =+Infinity

 MRCHDU: Convergence failed at  91  side 2    Res =  0.1947E-01
 MRCHDU: Convergence failed at  92  side 2    Res =  0.6698E-01
 MRCHDU: Convergence failed at  93  side 2    Res =  0.9835E-01
 MRCHDU: Convergence failed at  94  side 2    Res =  0.8879E-01
 MRCHDU: Convergence failed at  95  side 2    Res =  0.9083E-03
 Side 1  free  transition at x/c =  0.0756   24
 Side 2 forced transition at x/c =  1.0000   73

 137   rms: 0.5271E+04   max: 0.1279E+06   T at   95  2   RLX: 0.000
       a = 11.250      CL =  1.1772
      Cm = -0.1687     CD =*********   =>   CDf =  0.00521    CDp =*********

 MRCHDU: Convergence failed at  91  side 2    Res =  0.1925E-01
 MRCHDU: Convergence failed at  92  side 2    Res =  0.6904E-01
 MRCHDU: Convergence failed at  93  side 2    Res =  0.7667E-01
 MRCHDU: Convergence failed at  94  side 2    Res =  0.1241E+01
 MRCHDU: Convergence failed at  95  side 2    Res =  0.6651E-02
 Side 1  free  transition at x/c =  0.0756   24
 Side 2 forced transition at x/c =  1.0000   73

 138   rms: 0.8611E+02   max: -.2002E+04   T at   95  2   RLX: 0.000
       a = 11.250      CL =  1.1784
      Cm = -0.1688     CD =+Infinity   =>   CDf =  0.00521    CDp =+Infinity

 MRCHDU: Convergence failed at  91  side 2    Res =  0.1736E-01
 MRCHDU: Convergence failed at  92  side 2    Res =  0.6922E-01
 MRCHDU: Convergence failed at  93  side 2    Res =  0.8914E-01
 MRCHDU: Convergence failed at  94  side 2    Res =  0.6708E-01
 MRCHDU: Convergence failed at  95  side 2    Res =  0.1361E-02
 Side 1  free  transition at x/c =  0.0756   24
 Side 2 forced transition at x/c =  1.0000   73

 139   rms: 0.6642E+03   max: -.1610E+05   T at   95  2   RLX: 0.000
       a = 11.250      CL =  1.1786
      Cm = -0.1689     CD =+Infinity   =>   CDf =  0.00521    CDp =+Infinity

 MRCHDU: Convergence failed at  91  side 2    Res =  0.1713E-01
 MRCHDU: Convergence failed at  92  side 2    Res =  0.6890E-01
 MRCHDU: Convergence failed at  93  side 2    Res =  0.9511E-01
 MRCHDU: Convergence failed at  94  side 2    Res =  0.3772E-01
 MRCHDU: Convergence failed at  95  side 2    Res =  0.4404E-03
 Side 1  free  transition at x/c =  0.0756   24
 Side 2 forced transition at x/c =  1.0000   73

 140   rms: 0.5084E+03   max: 0.1227E+05   T at   95  2   RLX: 0.000
       a = 11.250      CL =  1.1792
      Cm = -0.1689     CD =+Infinity   =>   CDf =  0.00521    CDp =+Infinity

 MRCHDU: Convergence failed at  91  side 2    Res =  0.1609E-01
 MRCHDU: Convergence failed at  92  side 2    Res =  0.6949E-01
 MRCHDU: Convergence failed at  93  side 2    Res =  0.9501E-01
 MRCHDU: Convergence failed at  94  side 2    Res =  0.9994E-01
 Side 1  free  transition at x/c =  0.0756   24
 Side 2 forced transition at x/c =  1.0000   73

 141   rms: 0.1143E+04   max: -.1877E+05   C at   94  2   RLX: 0.000
       a = 11.250      CL =  1.1794
      Cm = -0.1689     CD =+Infinity   =>   CDf =  0.00521    CDp =+Infinity

 MRCHDU: Convergence failed at  91  side 2    Res =  0.1593E-01
 MRCHDU: Convergence failed at  92  side 2    Res =  0.6871E-01
 MRCHDU: Convergence failed at  93  side 2    Res =  0.1074E+00
 MRCHDU: Convergence failed at  94  side 2    Res =  0.3142E+00
 MRCHDU: Convergence failed at  95  side 2    Res =  0.1572E-02
 Side 1  free  transition at x/c =  0.0756   24
 Side 2 forced transition at x/c =  1.0000   73

 142   rms: 0.2265E+04   max: -.5559E+05   T at   95  2   RLX: 0.000
       a = 11.250      CL =  1.1794
      Cm = -0.1690     CD =+Infinity   =>   CDf =  0.00521    CDp =+Infinity

 MRCHDU: Convergence failed at  91  side 2    Res =  0.1590E-01
 MRCHDU: Convergence failed at  92  side 2    Res =  0.6792E-01
 MRCHDU: Convergence failed at  93  side 2    Res =  0.4942E-01
 MRCHDU: Convergence failed at  94  side 2    Res =  0.2390E-01
 MRCHDU: Convergence failed at  95  side 2    Res =  0.2658E-03
 Side 1  free  transition at x/c =  0.0756   24
 Side 2 forced transition at x/c =  1.0000   73

 143   rms: 0.4091E+03   max: 0.9664E+04   T at   95  2   RLX: 0.000
       a = 11.250      CL =  1.1802
      Cm = -0.1691     CD =+Infinity   =>   CDf =  0.00521    CDp =+Infinity

 MRCHDU: Convergence failed at  91  side 2    Res =  0.1464E-01
 MRCHDU: Convergence failed at  92  side 2    Res =  0.6805E-01
 MRCHDU: Convergence failed at  93  side 2    Res =  0.6433E-01
 MRCHDU: Convergence failed at  94  side 2    Res =  0.2246E+00
 MRCHDU: Convergence failed at  95  side 2    Res =  0.1610E-02
 Side 1  free  transition at x/c =  0.0756   24
 Side 2 forced transition at x/c =  1.0000   73

 144   rms: 0.1038E+04   max: -.2544E+05   T at   95  2   RLX: 0.000
       a = 11.250      CL =  1.1803
      Cm = -0.1691     CD =+Infinity   =>   CDf =  0.00522    CDp =+Infinity

 MRCHDU: Convergence failed at  91  side 2    Res =  0.1451E-01
 MRCHDU: Convergence failed at  92  side 2    Res =  0.6756E-01
 MRCHDU: Convergence failed at  93  side 2    Res =  0.7289E-01
 MRCHDU: Convergence failed at  94  side 2    Res =  0.4817E-01
 MRCHDU: Convergence failed at  95  side 2    Res =  0.3758E-03
 Side 1  free  transition at x/c =  0.0756   24
 Side 2 forced transition at x/c =  1.0000   73

 145   rms: 0.4418E+03   max: 0.1064E+05   T at   95  2   RLX: 0.000
       a = 11.250      CL =  1.1810
      Cm = -0.1692     CD =+Infinity   =>   CDf =  0.00522    CDp =+Infinity

 MRCHDU: Convergence failed at  91  side 2    Res =  0.1320E-01
 MRCHDU: Convergence failed at  92  side 2    Res =  0.6872E-01
 MRCHDU: Convergence failed at  93  side 2    Res =  0.6715E-01
 MRCHDU: Convergence failed at  94  side 2    Res =  0.9136E+00
 MRCHDU: Convergence failed at  95  side 2    Res =  0.2321E-02
 Side 1  free  transition at x/c =  0.0756   24
 Side 2 forced transition at x/c =  1.0000   73

 146   rms: 0.3266E+03   max: -.7979E+04   T at   95  2   RLX: 0.000
       a = 11.250      CL =  1.1813
      Cm = -0.1692     CD =+Infinity   =>   CDf =  0.00522    CDp =+Infinity

 MRCHDU: Convergence failed at  91  side 2    Res =  0.1267E-01
 MRCHDU: Convergence failed at  92  side 2    Res =  0.6836E-01
 MRCHDU: Convergence failed at  93  side 2    Res =  0.7669E-01
 MRCHDU: Convergence failed at  94  side 2    Res =  0.5417E-01
 MRCHDU: Convergence failed at  95  side 2    Res =  0.5358E-03
 Side 1  free  transition at x/c =  0.0756   24
 Side 2 forced transition at x/c =  1.0000   73

 147   rms: 0.5505E+03   max: 0.1335E+05   T at   95  2   RLX: 0.000
       a = 11.250      CL =  1.1819
      Cm = -0.1693     CD =+Infinity   =>   CDf =  0.00522    CDp =+Infinity

 MRCHDU: Convergence failed at  91  side 2    Res =  0.1158E-01
 MRCHDU: Convergence failed at  92  side 2    Res =  0.6968E-01
 MRCHDU: Convergence failed at  93  side 2    Res =  0.6808E-01
 MRCHDU: Convergence failed at  94  side 2    Res =  0.2606E+00
 MRCHDU: Convergence failed at  95  side 2    Res =  0.3400E-02
 Side 1  free  transition at x/c =  0.0756   24
 Side 2 forced transition at x/c =  1.0000   73

 148   rms: 0.1663E+03   max: -.4028E+04   T at   95  2   RLX: 0.000
       a = 11.250      CL =  1.1825
      Cm = -0.1694     CD =+Infinity   =>   CDf =  0.00522    CDp =+Infinity

 MRCHDU: Convergence failed at  91  side 2    Res =  0.1044E-01
 MRCHDU: Convergence failed at  92  side 2    Res =  0.6961E-01
 MRCHDU: Convergence failed at  93  side 2    Res =  0.7782E-01
 MRCHDU: Convergence failed at  94  side 2    Res =  0.5586E-01
 MRCHDU: Convergence failed at  95  side 2    Res =  0.7697E-03
 Side 1  free  transition at x/c =  0.0756   24
 Side 2 forced transition at x/c =  1.0000   73

 149   rms: 0.9900E+03   max: 0.2409E+05   T at   95  2   RLX: 0.000
       a = 11.250      CL =  1.1829
      Cm = -0.1694     CD =*********   =>   CDf =  0.00522    CDp =*********

 MRCHDU: Convergence failed at  91  side 2    Res =  0.9824E-02
 MRCHDU: Convergence failed at  92  side 2    Res =  0.7075E-01
 MRCHDU: Convergence failed at  93  side 2    Res =  0.6861E-01
 MRCHDU: Convergence failed at  94  side 2    Res =  0.6671E+00
 MRCHDU: Convergence failed at  95  side 2    Res =  0.5107E-02
 Side 1  free  transition at x/c =  0.0756   24
 Side 2 forced transition at x/c =  1.0000   73

 150   rms: 0.1071E+03   max: -.2547E+04   T at   95  2   RLX: 0.000
       a = 11.250      CL =  1.1839
      Cm = -0.1695     CD =+Infinity   =>   CDf =  0.00522    CDp =+Infinity

 MRCHDU: Convergence failed at  91  side 2    Res =  0.7884E-02
 MRCHDU: Convergence failed at  92  side 2    Res =  0.7110E-01
 MRCHDU: Convergence failed at  93  side 2    Res =  0.7842E-01
 MRCHDU: Convergence failed at  94  side 2    Res =  0.5649E-01
 MRCHDU: Convergence failed at  95  side 2    Res =  0.1109E-02
 Side 1  free  transition at x/c =  0.0756   24
 Side 2 forced transition at x/c =  1.0000   73

 151   rms: 0.2263E+04   max: -.5507E+05   T at   95  2   RLX: 0.000
       a = 11.250      CL =  1.1839
      Cm = -0.1695     CD =+Infinity   =>   CDf =  0.00522    CDp =+Infinity

 MRCHDU: Convergence failed at  91  side 2    Res =  0.7805E-02
 MRCHDU: Convergence failed at  92  side 2    Res =  0.7086E-01
 MRCHDU: Convergence failed at  93  side 2    Res =  0.8202E-01
 MRCHDU: Convergence failed at  94  side 2    Res =  0.3262E-01
 MRCHDU: Convergence failed at  95  side 2    Res =  0.3565E-03
 Side 1  free  transition at x/c =  0.0756   24
 Side 2 forced transition at x/c =  1.0000   73

 152   rms: 0.4646E+03   max: 0.1114E+05   T at   95  2   RLX: 0.000
       a = 11.250      CL =  1.1846
      Cm = -0.1696     CD =+Infinity   =>   CDf =  0.00522    CDp =+Infinity


[TIMEOUT]
