
 ===================================================
  XFOIL Version 6.99
  Copyright (C) 2000   Mark Drela, Harold Youngren

  This software comes with ABSOLUTELY NO WARRANTY,
    subject to the GNU General Public License.

  Caveat computor
 ===================================================

 File  xfoil.def  not found

   QUIT    Exit program

  .OPER    Direct operating point(s)
  .MDES    Complex mapping design routine
  .QDES    Surface speed design routine
  .GDES    Geometry design routine

   SAVE f  Write airfoil to labeled coordinate file
   PSAV f  Write airfoil to plain coordinate file
   ISAV f  Write airfoil to ISES coordinate file
   MSAV f  Write airfoil to MSES coordinate file
   REVE    Reverse written-airfoil node ordering

   LOAD f  Read buffer airfoil from coordinate file
   NACA i  Set NACA 4,5-digit airfoil and buffer airfoil
   INTE    Set buffer airfoil by interpolating two airfoils
   NORM    Buffer airfoil normalization toggle
   XYCM rr Change CM reference location, currently  0.25000 0.00000

   BEND    Display structural properties of current airfoil

   PCOP    Set current-airfoil panel nodes directly from buffer airfoil points
   PANE    Set current-airfoil panel nodes ( 160 ) based on curvature
  .PPAR    Show/change paneling

  .PLOP    Plotting options

   WDEF f  Write  current-settings file
   RDEF f  Reread current-settings file
   NAME s  Specify new airfoil name
   NINC    Increment name version number

   Z       Zoom    | (available in all menus)
   U       Unzoom  | 

 XFOIL   c>  
 Labeled airfoil file.  Name:   NASA/LANGLEY RC-12(N)1 AIRFOIL                 

 Number of input coordinate points:  83
 Counterclockwise ordering
 Max thickness =     0.120214  at x =   0.376
 Max camber    =     0.013725  at x =   0.300

  LE  x,y  =  -0.00000   0.00009  |   Chord =   1.00000
  TE  x,y  =   1.00000   0.00000  |

 Current airfoil nodes set from buffer airfoil nodes (  83 )

 XFOIL   c>  
 XFOIL   c>  
 Blunt trailing edge.  Gap =  0.00190

 Paneling parameters used...
   Number of panel nodes       160
   Panel bunching parameter    1.000
   TE/LE panel density ratio   0.150
   Refined-area/LE panel density ratio    0.200
   Top    side refined area x/c limits  1.000 1.000
   Bottom side refined area x/c limits  1.000 1.000

 XFOIL   c>  
.OPERi   c>  
 Xtr/c     =  1.0000    top    side
 Xtr/c     =  1.0000    bottom side
 Ncrit     =    9.00   ( 0.070 % turb. level )
 Vacc      =  0.0100

 Klag  =  5.6000     Uxwt  =    1.00
 A     =  6.7000     B     =  0.7500       KCt = 0.01485
 CtiniK=  1.8000     CtiniX=  3.3000

..VPAR   c>  
..VPAR   c>  
.OPERi   c>  
 M  =    0.0000
 Re =    300000

.OPERv   c>  
.OPERv   c>  
.OPERv   c>  
 Polar  1 newly created for accumulation
 Airfoil archived with polar: NASA/LANGLEY RC-12(N)1 AIRFOIL                  

Enter  polar save filename  OR  <return> for no file   s>  
 New polar save file available

Enter  polar dump filename  OR  <return> for no file   s>  
 Polar dump file will NOT be written

 Polar accumulation enabled

.OPERva   c>   Calculating unit vorticity distributions ...
 Calculating wake trajectory ...
 Calculating source influence matrix ...

 Solving BL system ...

 Initializing BL ...
    side            1  ...
 MRCHUE: Inverse mode at  48     Hk =   3.991
 MRCHUE: Inverse mode at  49     Hk =   4.479
 MRCHUE: Inverse mode at  50     Hk =   4.958
 MRCHUE: Inverse mode at  51     Hk =   5.429
 MRCHUE: Inverse mode at  52     Hk =   5.894
 MRCHUE: Inverse mode at  53     Hk =   6.354
 MRCHUE: Inverse mode at  54     Hk =   6.811
 MRCHUE: Inverse mode at  55     Hk =   7.266
 MRCHUE: Inverse mode at  56     Hk =   7.714
 MRCHUE: Inverse mode at  57     Hk =   8.156
 MRCHUE: Inverse mode at  58     Hk =   8.590
 MRCHUE: Inverse mode at  59     Hk =   9.021
 MRCHUE: Inverse mode at  60     Hk =   9.447
 MRCHUE: Inverse mode at  61     Hk =   7.712
 MRCHUE: Inverse mode at  62     Hk =   6.291
 MRCHUE: Inverse mode at  63     Hk =   5.259
 MRCHUE: Inverse mode at  64     Hk =   4.446
 MRCHUE: Inverse mode at  65     Hk =   3.776
 MRCHUE: Inverse mode at  66     Hk =   3.210
    side            2  ...
 MRCHUE: Inverse mode at  15     Hk =   3.800
 MRCHUE: Inverse mode at  16     Hk =   4.655
 MRCHUE: Inverse mode at  17     Hk =   5.503
 MRCHUE: Inverse mode at  18     Hk =   6.392
 MRCHUE: Convergence failed at  18  side 2    Res =  0.3254E-01
 MRCHUE: Inverse mode at  19     Hk =   7.372
 MRCHUE: Inverse mode at  20     Hk =   8.486
 MRCHUE: Inverse mode at  21     Hk =   9.802
 MRCHUE: Inverse mode at  22     Hk =   5.585
 MRCHUE: Inverse mode at  23     Hk =   2.500
 MRCHUE: Inverse mode at  24     Hk =   2.500
 MRCHUE: Inverse mode at  86     Hk =   2.500
 MRCHUE: Inverse mode at  87     Hk =   2.500

 Side 1  free  transition at x/c =  0.7953   61
 Side 2  free  transition at x/c =  0.0409   22

   1   rms: 0.2368E+00   max: -.5418E+00   D at   88  2   RLX: 0.485
       a = -4.000      CL = -0.3912
      Cm = -0.0060     CD =  0.01353   =>   CDf =  0.00761    CDp =  0.00593

 Side 1  free  transition at x/c =  0.8011   62
 Side 2  free  transition at x/c =  0.0419   21

   2   rms: 0.1173E+00   max: -.7466E+00   D at   67  1   RLX: 0.670
       a = -4.000      CL = -0.3564
      Cm = -0.0070     CD =  0.01462   =>   CDf =  0.00767    CDp =  0.00694

 Side 1  free  transition at x/c =  0.8033   62
 Side 2  free  transition at x/c =  0.0408   21

   3   rms: 0.4663E-01   max: -.4245E+00   D at   67  1
       a = -4.000      CL = -0.3499
      Cm = -0.0054     CD =  0.01565   =>   CDf =  0.00779    CDp =  0.00787

 Side 1  free  transition at x/c =  0.7979   62
 Side 2  free  transition at x/c =  0.0401   21

   4   rms: 0.7142E-02   max: -.9952E-01   D at   67  1
       a = -4.000      CL = -0.3507
      Cm = -0.0052     CD =  0.01577   =>   CDf =  0.00785    CDp =  0.00792

 Side 1  free  transition at x/c =  0.7975   62
 Side 2  free  transition at x/c =  0.0401   21

   5   rms: 0.2418E-03   max: -.4558E-02   D at   67  1
       a = -4.000      CL = -0.3507
      Cm = -0.0052     CD =  0.01577   =>   CDf =  0.00786    CDp =  0.00792

 Side 1  free  transition at x/c =  0.7975   62
 Side 2  free  transition at x/c =  0.0401   21

   6   rms: 0.9008E-06   max: -.6212E-05   D at   67  1
       a = -4.000      CL = -0.3507
      Cm = -0.0052     CD =  0.01577   =>   CDf =  0.00786    CDp =  0.00792
 plradd ia,ip,cpol            1           0  3.60376923E-03

 Point added to stored polar  1
 Point written to save file  rc12n1_Re300k.base.pol                          
 Dump file unspecified or not available
 Calculating wake trajectory ...
 Calculating source influence matrix ...

 Solving BL system ...

 Side 1  free  transition at x/c =  0.7975   62
 Side 2  free  transition at x/c =  0.0401   21

   1   rms: 0.9538E-01   max: -.4841E+00   T at   21  2
       a = -3.500      CL = -0.3010
      Cm = -0.0041     CD =  0.01454   =>   CDf =  0.00786    CDp =  0.00669

 Side 1  free  transition at x/c =  0.7891   61
 Side 2  free  transition at x/c =  0.0462   21

   2   rms: 0.2291E-01   max: -.1377E+00   D at   22  2
       a = -3.500      CL = -0.2994
      Cm = -0.0044     CD =  0.01485   =>   CDf =  0.00796    CDp =  0.00689

 Side 1  free  transition at x/c =  0.7877   61
 Side 2  free  transition at x/c =  0.0461   21

   3   rms: 0.3194E-03   max: 0.3717E-02   T at   21  2
       a = -3.500      CL = -0.2996
      Cm = -0.0043     CD =  0.01487   =>   CDf =  0.00794    CDp =  0.00692

 Side 1  free  transition at x/c =  0.7878   61
 Side 2  free  transition at x/c =  0.0461   21

   4   rms: 0.3259E-05   max: 0.3395E-04   D at    4  2
       a = -3.500      CL = -0.2996
      Cm = -0.0043     CD =  0.01487   =>   CDf =  0.00794    CDp =  0.00693
 plradd ia,ip,cpol            2           0  5.41097019E-03

 Point added to stored polar  1
 Point written to save file  rc12n1_Re300k.base.pol                          
 Dump file unspecified or not available
 Calculating wake trajectory ...
 Calculating source influence matrix ...

 Solving BL system ...

 Side 1  free  transition at x/c =  0.7878   61
 Side 2  free  transition at x/c =  0.0461   21

   1   rms: 0.9044E-01   max: -.6519E+00   T at   21  2   RLX: 0.767
       a = -3.000      CL = -0.2592
      Cm = -0.0038     CD =  0.01433   =>   CDf =  0.00802    CDp =  0.00631

 Side 1  free  transition at x/c =  0.7793   62
 Side 2  free  transition at x/c =  0.0525   21

   2   rms: 0.3133E-01   max: 0.5684E+00   D at   21  2
       a = -3.000      CL = -0.2529
      Cm = -0.0026     CD =  0.01351   =>   CDf =  0.00803    CDp =  0.00548

 Side 1  free  transition at x/c =  0.7786   62
 Side 2  free  transition at x/c =  0.0553   21

   3   rms: 0.8171E-02   max: 0.9719E-01   D at   21  2
       a = -3.000      CL = -0.2523
      Cm = -0.0027     CD =  0.01359   =>   CDf =  0.00801    CDp =  0.00558

 Side 1  free  transition at x/c =  0.7785   62
 Side 2  free  transition at x/c =  0.0551   21

   4   rms: 0.1540E-03   max: 0.1454E-02   D at   21  2
       a = -3.000      CL = -0.2523
      Cm = -0.0027     CD =  0.01359   =>   CDf =  0.00801    CDp =  0.00558

 Side 1  free  transition at x/c =  0.7785   62
 Side 2  free  transition at x/c =  0.0551   21

   5   rms: 0.2117E-05   max: -.5879E-05   T at   58  2
       a = -3.000      CL = -0.2523
      Cm = -0.0027     CD =  0.01359   =>   CDf =  0.00801    CDp =  0.00558
 plradd ia,ip,cpol            3           0  5.41097019E-03

 Point added to stored polar  1
 Point written to save file  rc12n1_Re300k.base.pol                          
 Dump file unspecified or not available
 Calculating wake trajectory ...
 Calculating source influence matrix ...

 Solving BL system ...

 Side 1  free  transition at x/c =  0.7785   62
 Side 2  free  transition at x/c =  0.0551   21

   1   rms: 0.9770E-01   max: -.8043E+00   T at   21  2   RLX: 0.622
       a = -2.500      CL = -0.2207
      Cm = -0.0021     CD =  0.01327   =>   CDf =  0.00801    CDp =  0.00526

 Side 1  free  transition at x/c =  0.7743   61
 Side 2  free  transition at x/c =  0.0649   22

   2   rms: 0.4825E-01   max: 0.3876E+00   D at   22  2
       a = -2.500      CL = -0.2016
      Cm = -0.0020     CD =  0.01264   =>   CDf =  0.00808    CDp =  0.00456

 Side 1  free  transition at x/c =  0.7672   62
 Side 2  free  transition at x/c =  0.0737   22

   3   rms: 0.2370E-01   max: -.1696E+00   D at   21  2
       a = -2.500      CL = -0.2023
      Cm = -0.0017     CD =  0.01258   =>   CDf =  0.00804    CDp =  0.00455

 Side 1  free  transition at x/c =  0.7684   62
 Side 2  free  transition at x/c =  0.0780   22

   4   rms: 0.5157E-02   max: 0.6198E-01   C at   22  2
       a = -2.500      CL = -0.2019
      Cm = -0.0018     CD =  0.01264   =>   CDf =  0.00800    CDp =  0.00464

 Side 1  free  transition at x/c =  0.7684   62
 Side 2  free  transition at x/c =  0.0770   22

   5   rms: 0.9479E-04   max: -.1654E-02   D at   23  2
       a = -2.500      CL = -0.2019
      Cm = -0.0018     CD =  0.01264   =>   CDf =  0.00800    CDp =  0.00464
 plradd ia,ip,cpol            4           0  5.41097019E-03

 Point added to stored polar  1
 Point written to save file  rc12n1_Re300k.base.pol                          
 Dump file unspecified or not available
 Calculating wake trajectory ...
 Calculating source influence matrix ...

 Solving BL system ...

 Side 1  free  transition at x/c =  0.7684   62
 Side 2  free  transition at x/c =  0.0770   22

   1   rms: 0.1572E+00   max: -.1286E+01   T at   22  2   RLX: 0.389
       a = -2.000      CL = -0.1831
      Cm = -0.0014     CD =  0.01221   =>   CDf =  0.00800    CDp =  0.00421

 Side 1  free  transition at x/c =  0.7649   62
 Side 2  free  transition at x/c =  0.0978   23

   2   rms: 0.1807E+00   max: -.3418E+01   C at   23  2   RLX: 0.146
       a = -2.000      CL = -0.1783
      Cm = -0.0010     CD =  0.01223   =>   CDf =  0.00796    CDp =  0.00427

 Side 1  free  transition at x/c =  0.7642   62
 Side 2  free  transition at x/c =  0.1042   24

   3   rms: 0.2095E+00   max: -.2452E+01   C at   24  2   RLX: 0.204
       a = -2.000      CL = -0.1736
      Cm = -0.0007     CD =  0.01202   =>   CDf =  0.00797    CDp =  0.00406

 Side 1  free  transition at x/c =  0.7635   62
 Side 2  free  transition at x/c =  0.1214   25

   4   rms: 0.2997E+00   max: -.5774E+01   C at   25  2   RLX: 0.087
       a = -2.000      CL = -0.1714
      Cm = -0.0004     CD =  0.01203   =>   CDf =  0.00790    CDp =  0.00413

 Side 1  free  transition at x/c =  0.7633   62
 Side 2  free  transition at x/c =  0.1274   25

   5   rms: 0.1066E+00   max: -.1334E+01   T at   25  2   RLX: 0.375
       a = -2.000      CL = -0.1641
      Cm = -0.0003     CD =  0.01195   =>   CDf =  0.00789    CDp =  0.00406

 Side 1  free  transition at x/c =  0.7624   61
 Side 2  free  transition at x/c =  0.5591   54

   6   rms: 0.4935E+00   max: -.8781E+01   C at   54  2   RLX: 0.057
       a = -2.000      CL = -0.1713
      Cm =  0.0010     CD =  0.00975   =>   CDf =  0.00608    CDp =  0.00367

 Side 1  free  transition at x/c =  0.7623   61
 Side 2  free  transition at x/c =  0.5649   54

   7   rms: 0.2430E+00   max: -.4332E+01   C at   54  2   RLX: 0.115
       a = -2.000      CL = -0.1714
      Cm =  0.0009     CD =  0.00975   =>   CDf =  0.00608    CDp =  0.00367

 Side 1  free  transition at x/c =  0.7619   61
 Side 2  free  transition at x/c =  0.5804   56

   8   rms: 0.1856E+00   max: -.3107E+01   C at   56  2   RLX: 0.161
       a = -2.000      CL = -0.1726
      Cm =  0.0013     CD =  0.00967   =>   CDf =  0.00601    CDp =  0.00366

 Side 1  free  transition at x/c =  0.7615   61
 Side 2  free  transition at x/c =  0.5955   57

   9   rms: 0.1139E+00   max: -.1781E+01   C at   57  2   RLX: 0.281
       a = -2.000      CL = -0.1741
      Cm =  0.0018     CD =  0.00963   =>   CDf =  0.00591    CDp =  0.00371

 Side 1  free  transition at x/c =  0.7609   61
 Side 2  free  transition at x/c =  0.6107   58

  10   rms: 0.6141E-01   max: -.8375E+00   C at   58  2   RLX: 0.597
       a = -2.000      CL = -0.1753
      Cm =  0.0024     CD =  0.00958   =>   CDf =  0.00591    CDp =  0.00368

 Side 1  free  transition at x/c =  0.7600   61
 Side 2  free  transition at x/c =  0.6261   59

  11   rms: 0.4044E-01   max: -.5204E+00   C at   59  2   RLX: 0.961
       a = -2.000      CL = -0.1754
      Cm =  0.0029     CD =  0.00949   =>   CDf =  0.00593    CDp =  0.00355

 Side 1  free  transition at x/c =  0.7595   61
 Side 2  free  transition at x/c =  0.6397   59

  12   rms: 0.1841E-01   max: -.2370E+00   D at   59  2
       a = -2.000      CL = -0.1745
      Cm =  0.0028     CD =  0.00975   =>   CDf =  0.00590    CDp =  0.00384

 Side 1  free  transition at x/c =  0.7594   61
 Side 2  free  transition at x/c =  0.6540   60

  13   rms: 0.5746E-02   max: 0.5329E-01   D at   61  2
       a = -2.000      CL = -0.1757
      Cm =  0.0031     CD =  0.00965   =>   CDf =  0.00570    CDp =  0.00395

 Side 1  free  transition at x/c =  0.7594   61
 Side 2  free  transition at x/c =  0.6453   60

  14   rms: 0.3029E-02   max: -.4226E-01   C at   60  2
       a = -2.000      CL = -0.1755
      Cm =  0.0030     CD =  0.00968   =>   CDf =  0.00573    CDp =  0.00395

 Side 1  free  transition at x/c =  0.7594   61
 Side 2  free  transition at x/c =  0.6468   60

  15   rms: 0.4736E-04   max: -.7881E-03   D at   63  2
       a = -2.000      CL = -0.1755
      Cm =  0.0030     CD =  0.00968   =>   CDf =  0.00571    CDp =  0.00396
 plradd ia,ip,cpol            5           0  5.41097019E-03

 Point added to stored polar  1
 Point written to save file  rc12n1_Re300k.base.pol                          
 Dump file unspecified or not available
 Calculating wake trajectory ...
 Calculating source influence matrix ...

 Solving BL system ...

 Side 1  free  transition at x/c =  0.7594   61
 Side 2  free  transition at x/c =  0.6468   60

   1   rms: 0.1901E+00   max: -.1910E+01   C at   60  2   RLX: 0.262
       a = -1.500      CL = -0.1640
      Cm =  0.0038     CD =  0.00954   =>   CDf =  0.00571    CDp =  0.00383

 Side 1  free  transition at x/c =  0.7566   61
 Side 2  free  transition at x/c =  0.6743   62

   2   rms: 0.1179E+00   max: -.9130E+00   C at   62  2   RLX: 0.548
       a = -1.500      CL = -0.1439
      Cm =  0.0043     CD =  0.00938   =>   CDf =  0.00570    CDp =  0.00368

 Side 1  free  transition at x/c =  0.7525   61
 Side 2  free  transition at x/c =  0.7004   63

   3   rms: 0.5030E-01   max: -.4995E+00   T at   63  2
       a = -1.500      CL = -0.1269
      Cm =  0.0048     CD =  0.00972   =>   CDf =  0.00580    CDp =  0.00392

 Side 1  free  transition at x/c =  0.7500   62
 Side 2  free  transition at x/c =  0.7456   65

   4   rms: 0.1955E-01   max: -.2929E+00   C at   65  2
       a = -1.500      CL = -0.1269
      Cm =  0.0051     CD =  0.00929   =>   CDf =  0.00560    CDp =  0.00368

 Side 1  free  transition at x/c =  0.7502   62
 Side 2  free  transition at x/c =  0.7459   65

   5   rms: 0.4800E-02   max: 0.7647E-01   C at   65  2
       a = -1.500      CL = -0.1273
      Cm =  0.0052     CD =  0.00930   =>   CDf =  0.00544    CDp =  0.00386

 Side 1  free  transition at x/c =  0.7502   62
 Side 2  free  transition at x/c =  0.7438   65

   6   rms: 0.1080E-03   max: -.1831E-02   D at   68  2
       a = -1.500      CL = -0.1273
      Cm =  0.0052     CD =  0.00930   =>   CDf =  0.00546    CDp =  0.00384

 Side 1  free  transition at x/c =  0.7502   62
 Side 2  free  transition at x/c =  0.7437   65

   7   rms: 0.1319E-05   max: 0.1234E-04   C at   65  2
       a = -1.500      CL = -0.1273
      Cm =  0.0052     CD =  0.00930   =>   CDf =  0.00546    CDp =  0.00384
 plradd ia,ip,cpol            6           0  5.41097019E-03

 Point added to stored polar  1
 Point written to save file  rc12n1_Re300k.base.pol                          
 Dump file unspecified or not available
 Calculating wake trajectory ...
 Calculating source influence matrix ...

 Solving BL system ...

 Side 1  free  transition at x/c =  0.7502   62
 Side 2  free  transition at x/c =  0.7437   65

   1   rms: 0.1119E+00   max: -.8105E+00   C at   65  2   RLX: 0.617
       a = -1.000      CL = -0.0969
      Cm =  0.0064     CD =  0.00915   =>   CDf =  0.00546    CDp =  0.00369

 Side 1  free  transition at x/c =  0.7462   61
 Side 2  free  transition at x/c =  0.7728   67

   2   rms: 0.5989E-01   max: -.7300E+00   C at   67  2   RLX: 0.685
       a = -1.000      CL = -0.0814
      Cm =  0.0059     CD =  0.00903   =>   CDf =  0.00548    CDp =  0.00355

 Side 1  free  transition at x/c =  0.7418   61
 Side 2  free  transition at x/c =  0.7915   68

   3   rms: 0.2854E-01   max: -.3832E+00   C at   68  2
       a = -1.000      CL = -0.0760
      Cm =  0.0065     CD =  0.00901   =>   CDf =  0.00539    CDp =  0.00362

 Side 1  free  transition at x/c =  0.7407   61
 Side 2  free  transition at x/c =  0.8159   70

   4   rms: 0.8472E-02   max: -.1112E+00   C at   70  2
       a = -1.000      CL = -0.0752
      Cm =  0.0066     CD =  0.00905   =>   CDf =  0.00521    CDp =  0.00384

 Side 1  free  transition at x/c =  0.7408   61
 Side 2  free  transition at x/c =  0.8175   70

   5   rms: 0.6014E-03   max: 0.9196E-02   C at   70  2
       a = -1.000      CL = -0.0753
      Cm =  0.0066     CD =  0.00906   =>   CDf =  0.00517    CDp =  0.00389

 Side 1  free  transition at x/c =  0.7408   61
 Side 2  free  transition at x/c =  0.8172   70

   6   rms: 0.3451E-05   max: -.5320E-04   C at   70  2
       a = -1.000      CL = -0.0753
      Cm =  0.0066     CD =  0.00906   =>   CDf =  0.00517    CDp =  0.00388
 plradd ia,ip,cpol            7           0  7.59358564E-03

 Point added to stored polar  1
 Point written to save file  rc12n1_Re300k.base.pol                          
 Dump file unspecified or not available
 Calculating wake trajectory ...
 Calculating source influence matrix ...

 Solving BL system ...

 Side 1  free  transition at x/c =  0.7408   61
 Side 2  free  transition at x/c =  0.8172   70

   1   rms: 0.1122E+00   max: -.1016E+01   C at   70  2   RLX: 0.492
       a = -0.500      CL = -0.0490
      Cm =  0.0073     CD =  0.00900   =>   CDf =  0.00521    CDp =  0.00379

 Side 1  free  transition at x/c =  0.7359   62
 Side 2  free  transition at x/c =  0.8466   71

   2   rms: 0.9818E-01   max: -.1310E+01   T at    2  1   RLX: 0.382
       a = -0.500      CL = -0.0379
      Cm =  0.0071     CD =  0.00911   =>   CDf =  0.00516    CDp =  0.00395

 Side 1  free  transition at x/c =  0.7346   62
 Side 2  free  transition at x/c =  0.8603   72

   3   rms: 0.4256E-01   max: -.3603E+00   C at   72  2
       a = -0.500      CL = -0.0213
      Cm =  0.0081     CD =  0.00907   =>   CDf =  0.00515    CDp =  0.00392

 Side 1  free  transition at x/c =  0.7328   61
 Side 2  free  transition at x/c =  0.8827   73

   4   rms: 0.1343E-01   max: -.1215E+00   D at   74  2
       a = -0.500      CL = -0.0249
      Cm =  0.0087     CD =  0.00913   =>   CDf =  0.00515    CDp =  0.00398

 Side 1  free  transition at x/c =  0.7326   61
 Side 2  free  transition at x/c =  0.9012   75

   5   rms: 0.2047E-01   max: 0.2011E+00   C at   75  2
       a = -0.500      CL = -0.0271
      Cm =  0.0093     CD =  0.00913   =>   CDf =  0.00507    CDp =  0.00405

 Side 1  free  transition at x/c =  0.7326   61
 Side 2  free  transition at x/c =  0.8953   74

   6   rms: 0.9240E-02   max: -.5276E-01   D at   82  2
       a = -0.500      CL = -0.0195
      Cm =  0.0077     CD =  0.00917   =>   CDf =  0.00508    CDp =  0.00409

 Side 1  free  transition at x/c =  0.7327   61
 Side 2  free  transition at x/c =  0.8887   74

   7   rms: 0.2411E-02   max: -.2474E-01   C at   74  2
       a = -0.500      CL = -0.0198
      Cm =  0.0077     CD =  0.00917   =>   CDf =  0.00510    CDp =  0.00407

 Side 1  free  transition at x/c =  0.7326   61
 Side 2  free  transition at x/c =  0.8898   74

   8   rms: 0.4628E-04   max: -.3647E-03   D at   74  2
       a = -0.500      CL = -0.0197
      Cm =  0.0077     CD =  0.00917   =>   CDf =  0.00510    CDp =  0.00407
 plradd ia,ip,cpol            8           0  7.59358564E-03

 Point added to stored polar  1
 Point written to save file  rc12n1_Re300k.base.pol                          
 Dump file unspecified or not available
 Calculating wake trajectory ...
 Calculating source influence matrix ...

 Solving BL system ...

 Side 1  free  transition at x/c =  0.7326   61
 Side 2  free  transition at x/c =  0.8898   74

   1   rms: 0.1116E+00   max: 0.4753E+00   D at   76  2
       a =  0.000      CL =  0.0438
      Cm =  0.0068     CD =  0.00933   =>   CDf =  0.00514    CDp =  0.00418

 Side 1  free  transition at x/c =  0.7187   62
 Side 2  free  transition at x/c =  0.9014   74

   2   rms: 0.9057E-01   max: -.9356E+00   T at   74  2   RLX: 0.534
       a =  0.000      CL =  0.0330
      Cm =  0.0080     CD =  0.00955   =>   CDf =  0.00525    CDp =  0.00429

 Side 1  free  transition at x/c =  0.7204   62
 Side 2  free  transition at x/c =  0.9183   75

   3   rms: 0.8179E-01   max: -.8803E+00   T at   75  2   RLX: 0.568
       a =  0.000      CL =  0.0254
      Cm =  0.0098     CD =  0.00922   =>   CDf =  0.00520    CDp =  0.00403

 Side 1  free  transition at x/c =  0.7214   62
 Side 2  free  transition at x/c =  0.9339   76

   4   rms: 0.4272E-01   max: -.5130E+00   D at   75  2   RLX: 0.975
       a =  0.000      CL =  0.0326
      Cm =  0.0089     CD =  0.00916   =>   CDf =  0.00515    CDp =  0.00400

 Side 1  free  transition at x/c =  0.7222   62
 Side 2  free  transition at x/c =  0.9461   77

   5   rms: 0.2419E-01   max: 0.2151E+00   C at   77  2
       a =  0.000      CL =  0.0329
      Cm =  0.0090     CD =  0.00931   =>   CDf =  0.00511    CDp =  0.00419

 Side 1  free  transition at x/c =  0.7222   62
 Side 2  free  transition at x/c =  0.9387   76

   6   rms: 0.2057E-01   max: 0.1410E+00   T at   76  2
       a =  0.000      CL =  0.0483
      Cm =  0.0056     CD =  0.00937   =>   CDf =  0.00511    CDp =  0.00426

 Side 1  free  transition at x/c =  0.7222   62
 Side 2  free  transition at x/c =  0.9248   75

   7   rms: 0.1145E-01   max: -.7720E-01   T at   76  2
       a =  0.000      CL =  0.0422
      Cm =  0.0069     CD =  0.00935   =>   CDf =  0.00513    CDp =  0.00422

 Side 1  free  transition at x/c =  0.7222   62
 Side 2  free  transition at x/c =  0.9322   76

   8   rms: 0.4794E-02   max: 0.3541E-01   C at   76  2
       a =  0.000      CL =  0.0440
      Cm =  0.0065     CD =  0.00935   =>   CDf =  0.00512    CDp =  0.00423

 Side 1  free  transition at x/c =  0.7222   62
 Side 2  free  transition at x/c =  0.9305   76

   9   rms: 0.1720E-03   max: -.1605E-02   D at   81  2
       a =  0.000      CL =  0.0441
      Cm =  0.0065     CD =  0.00935   =>   CDf =  0.00512    CDp =  0.00423

 Side 1  free  transition at x/c =  0.7222   62
 Side 2  free  transition at x/c =  0.9305   76

  10   rms: 0.1638E-05   max: -.1391E-04   D at    4  1
       a =  0.000      CL =  0.0441
      Cm =  0.0065     CD =  0.00935   =>   CDf =  0.00512    CDp =  0.00423
 plradd ia,ip,cpol            9           0  0.28727603    

 Point added to stored polar  1
 Point written to save file  rc12n1_Re300k.base.pol                          
 Dump file unspecified or not available
 Calculating wake trajectory ...
 Calculating source influence matrix ...

 Solving BL system ...

 Side 1  free  transition at x/c =  0.7222   62
 Side 2  free  transition at x/c =  0.9305   76

   1   rms: 0.1065E+00   max: 0.3551E+00   D at   79  2
       a =  0.500      CL =  0.1256
      Cm =  0.0014     CD =  0.00954   =>   CDf =  0.00512    CDp =  0.00442

 Side 1  free  transition at x/c =  0.7139   61
 Side 2  free  transition at x/c =  0.9454   77

   2   rms: 0.3051E-01   max: -.1995E+00   D at   81  2
       a =  0.500      CL =  0.1203
      Cm =  0.0024     CD =  0.00955   =>   CDf =  0.00524    CDp =  0.00431

 Side 1  free  transition at x/c =  0.7123   61
 Side 2  free  transition at x/c =  0.9500   77

   3   rms: 0.2782E-02   max: -.2863E-01   D at   78  2
       a =  0.500      CL =  0.1205
      Cm =  0.0024     CD =  0.00960   =>   CDf =  0.00522    CDp =  0.00437

 Side 1  free  transition at x/c =  0.7124   61
 Side 2  free  transition at x/c =  0.9504   77

   4   rms: 0.1026E-03   max: 0.9144E-03   D at   79  2
       a =  0.500      CL =  0.1205
      Cm =  0.0024     CD =  0.00960   =>   CDf =  0.00522    CDp =  0.00437

 Side 1  free  transition at x/c =  0.7124   61
 Side 2  free  transition at x/c =  0.9504   77

   5   rms: 0.3245E-05   max: -.3501E-04   D at    4  2
       a =  0.500      CL =  0.1205
      Cm =  0.0024     CD =  0.00960   =>   CDf =  0.00522    CDp =  0.00437
 plradd ia,ip,cpol           10           0  0.25786126    

 Point added to stored polar  1
 Point written to save file  rc12n1_Re300k.base.pol                          
 Dump file unspecified or not available
 Calculating wake trajectory ...
 Calculating source influence matrix ...

 Solving BL system ...

 Side 1  free  transition at x/c =  0.7124   61
 Side 2  free  transition at x/c =  0.9504   77

   1   rms: 0.1030E+00   max: 0.2418E+00   D at   79  2
       a =  1.000      CL =  0.2018
      Cm = -0.0030     CD =  0.00980   =>   CDf =  0.00526    CDp =  0.00454

 Side 1  free  transition at x/c =  0.7001   61
 Side 2  free  transition at x/c =  0.9653   77

   2   rms: 0.2077E-01   max: -.1780E+00   D at   63  1
       a =  1.000      CL =  0.2010
      Cm = -0.0027     CD =  0.00979   =>   CDf =  0.00535    CDp =  0.00444

 Side 1  free  transition at x/c =  0.7028   62
 Side 2  free  transition at x/c =  0.9651   77

   3   rms: 0.1732E-02   max: -.3232E-01   D at   61  1
       a =  1.000      CL =  0.2013
      Cm = -0.0028     CD =  0.00978   =>   CDf =  0.00538    CDp =  0.00440

 Side 1  free  transition at x/c =  0.7026   62
 Side 2  free  transition at x/c =  0.9651   77

   4   rms: 0.1283E-03   max: 0.1222E-02   D at   62  1
       a =  1.000      CL =  0.2012
      Cm = -0.0028     CD =  0.00978   =>   CDf =  0.00537    CDp =  0.00442

 Side 1  free  transition at x/c =  0.7026   62
 Side 2  free  transition at x/c =  0.9651   77

   5   rms: 0.1828E-05   max: 0.1268E-04   D at   64  1
       a =  1.000      CL =  0.2012
      Cm = -0.0028     CD =  0.00978   =>   CDf =  0.00537    CDp =  0.00442
 plradd ia,ip,cpol           11           0  0.21413098    

 Point added to stored polar  1
 Point written to save file  rc12n1_Re300k.base.pol                          
 Dump file unspecified or not available
 Calculating wake trajectory ...
 Calculating source influence matrix ...

 Solving BL system ...

 Side 1  free  transition at x/c =  0.7026   62
 Side 2  free  transition at x/c =  0.9651   77

   1   rms: 0.1040E+00   max: -.2098E+00   T at   77  2
       a =  1.500      CL =  0.2838
      Cm = -0.0084     CD =  0.01004   =>   CDf =  0.00539    CDp =  0.00465

 Side 1  free  transition at x/c =  0.6941   62
 Side 2  free  transition at x/c =  0.9771   77

   2   rms: 0.1358E-01   max: 0.1751E+00   D at   63  1
       a =  1.500      CL =  0.2829
      Cm = -0.0085     CD =  0.00991   =>   CDf =  0.00537    CDp =  0.00454

 Side 1  free  transition at x/c =  0.6893   62
 Side 2  free  transition at x/c =  0.9792   77

   3   rms: 0.6182E-02   max: -.5401E-01   D at   62  1
       a =  1.500      CL =  0.2827
      Cm = -0.0084     CD =  0.00987   =>   CDf =  0.00542    CDp =  0.00445

 Side 1  free  transition at x/c =  0.6904   62
 Side 2  free  transition at x/c =  0.9792   77

   4   rms: 0.1580E-03   max: -.1524E-02   D at   65  1
       a =  1.500      CL =  0.2827
      Cm = -0.0084     CD =  0.00987   =>   CDf =  0.00540    CDp =  0.00447

 Side 1  free  transition at x/c =  0.6903   62
 Side 2  free  transition at x/c =  0.9792   77

   5   rms: 0.1585E-05   max: -.7272E-05   D at   62  1
       a =  1.500      CL =  0.2827
      Cm = -0.0084     CD =  0.00987   =>   CDf =  0.00540    CDp =  0.00447
 plradd ia,ip,cpol           12           0  0.18530785    

 Point added to stored polar  1
 Point written to save file  rc12n1_Re300k.base.pol                          
 Dump file unspecified or not available
 Calculating wake trajectory ...
 Calculating source influence matrix ...

 Solving BL system ...

 Side 1  free  transition at x/c =  0.6903   62
 Side 2  free  transition at x/c =  0.9792   77

   1   rms: 0.1013E+00   max: -.2877E+00   T at   77  2
       a =  2.000      CL =  0.3632
      Cm = -0.0137     CD =  0.00992   =>   CDf =  0.00541    CDp =  0.00452

 Side 1  free  transition at x/c =  0.6809   62
 Side 2  free  transition at x/c =  0.9932   77

   2   rms: 0.1087E-01   max: -.1209E+00   D at   62  1
       a =  2.000      CL =  0.3654
      Cm = -0.0145     CD =  0.00991   =>   CDf =  0.00542    CDp =  0.00449

 Side 1  free  transition at x/c =  0.6775   62
 Side 2  free  transition at x/c =  0.9919   77

   3   rms: 0.2503E-02   max: -.2336E-01   D at   63  1
       a =  2.000      CL =  0.3653
      Cm = -0.0144     CD =  0.00990   =>   CDf =  0.00542    CDp =  0.00448

 Side 1  free  transition at x/c =  0.6781   62
 Side 2  free  transition at x/c =  0.9919   77

   4   rms: 0.2323E-04   max: -.2359E-03   D at   65  1
       a =  2.000      CL =  0.3653
      Cm = -0.0144     CD =  0.00990   =>   CDf =  0.00542    CDp =  0.00448
 plradd ia,ip,cpol           13           0  0.17104355    

 Point added to stored polar  1
 Point written to save file  rc12n1_Re300k.base.pol                          
 Dump file unspecified or not available
 Calculating wake trajectory ...
 Calculating source influence matrix ...

 Solving BL system ...

 Side 1  free  transition at x/c =  0.6781   62
 Side 2  free  transition at x/c =  0.9919   77

   1   rms: 0.1021E+00   max: -.3684E+00   T at   77  2
       a =  2.500      CL =  0.4465
      Cm = -0.0201     CD =  0.00988   =>   CDf =  0.00541    CDp =  0.00448

 Side 1  free  transition at x/c =  0.6657   62
 Side 2 forced transition at x/c =  1.0000   77

   2   rms: 0.1597E-01   max: -.1454E+00   D at   62  1
       a =  2.500      CL =  0.4423
      Cm = -0.0194     CD =  0.00982   =>   CDf =  0.00544    CDp =  0.00438

 Side 1  free  transition at x/c =  0.6651   62
 Side 2 forced transition at x/c =  1.0000   77

   3   rms: 0.8556E-03   max: -.9284E-02   D at    4  1
       a =  2.500      CL =  0.4424
      Cm = -0.0194     CD =  0.00982   =>   CDf =  0.00542    CDp =  0.00440

 Side 1  free  transition at x/c =  0.6650   62
 Side 2 forced transition at x/c =  1.0000   77

   4   rms: 0.3121E-05   max: 0.2744E-04   D at    6  1
       a =  2.500      CL =  0.4424
      Cm = -0.0194     CD =  0.00982   =>   CDf =  0.00542    CDp =  0.00440
 plradd ia,ip,cpol           14           0  3.28223892E-02

 Point added to stored polar  1
 Point written to save file  rc12n1_Re300k.base.pol                          
 Dump file unspecified or not available
 Calculating wake trajectory ...
 Calculating source influence matrix ...

 Solving BL system ...

 Side 1  free  transition at x/c =  0.6650   62
 Side 2 forced transition at x/c =  1.0000   77

   1   rms: 0.8158E-01   max: -.1303E+00   D at   66  2
       a =  3.000      CL =  0.4938
      Cm = -0.0191     CD =  0.00973   =>   CDf =  0.00542    CDp =  0.00430

 Side 1  free  transition at x/c =  0.6512   61
 Side 2 forced transition at x/c =  1.0000   77

   2   rms: 0.1532E-01   max: -.1479E+00   D at   61  1
       a =  3.000      CL =  0.4941
      Cm = -0.0190     CD =  0.00974   =>   CDf =  0.00546    CDp =  0.00427

 Side 1  free  transition at x/c =  0.6518   61
 Side 2 forced transition at x/c =  1.0000   77

   3   rms: 0.1050E-02   max: 0.1371E-01   D at   62  1
       a =  3.000      CL =  0.4941
      Cm = -0.0190     CD =  0.00975   =>   CDf =  0.00543    CDp =  0.00433

 Side 1  free  transition at x/c =  0.6516   61
 Side 2 forced transition at x/c =  1.0000   77

   4   rms: 0.3570E-05   max: -.4652E-04   D at   61  1
       a =  3.000      CL =  0.4941
      Cm = -0.0190     CD =  0.00975   =>   CDf =  0.00543    CDp =  0.00433
 plradd ia,ip,cpol           15           0  1.96206570E-02

 Point added to stored polar  1
 Point written to save file  rc12n1_Re300k.base.pol                          
 Dump file unspecified or not available
 Calculating wake trajectory ...
 Calculating source influence matrix ...

 Solving BL system ...

 Side 1  free  transition at x/c =  0.6516   61
 Side 2 forced transition at x/c =  1.0000   77

   1   rms: 0.8088E-01   max: -.1057E+00   D at   67  2
       a =  3.500      CL =  0.5462
      Cm = -0.0187     CD =  0.00970   =>   CDf =  0.00538    CDp =  0.00432

 Side 1  free  transition at x/c =  0.6263   60
 Side 2 forced transition at x/c =  1.0000   76

   2   rms: 0.4435E-01   max: -.4202E+00   D at   61  1
       a =  3.500      CL =  0.5450
      Cm = -0.0180     CD =  0.00975   =>   CDf =  0.00547    CDp =  0.00428

 MRCHDU: Convergence failed at  62  side 1    Res =  0.2319E+01
 MRCHDU: Convergence failed at  63  side 1    Res =  0.4036E+01
 MRCHDU: Convergence failed at  64  side 1    Res =  0.1751E+01
 MRCHDU: Convergence failed at  65  side 1    Res =  0.1685E+01
 MRCHDU: Convergence failed at  66  side 1    Res =  0.2451E+01
 MRCHDU: Convergence failed at  67  side 1    Res =  0.3155E+01
 MRCHDU: Convergence failed at  68  side 1    Res =  0.3888E+01
 MRCHDU: Convergence failed at  69  side 1    Res =  0.4709E+01
 MRCHDU: Convergence failed at  70  side 1    Res =  0.5572E+01
 MRCHDU: Convergence failed at  71  side 1    Res =  0.6457E+01
 MRCHDU: Convergence failed at  72  side 1    Res =  0.7353E+01
 MRCHDU: Convergence failed at  73  side 1    Res =  0.8249E+01
 MRCHDU: Convergence failed at  74  side 1    Res =  0.9084E+01
 MRCHDU: Convergence failed at  75  side 1    Res =  0.9796E+01
 MRCHDU: Convergence failed at  76  side 1    Res =  0.1045E+02
 MRCHDU: Convergence failed at  77  side 1    Res =  0.1093E+02
 MRCHDU: Convergence failed at  78  side 1    Res =  0.1125E+02
 MRCHDU: Convergence failed at  79  side 1    Res =  0.1149E+02
 MRCHDU: Convergence failed at  80  side 1    Res =  0.1169E+02
 MRCHDU: Convergence failed at  81  side 1    Res =  0.1171E+02
 MRCHDU: Convergence failed at  82  side 1    Res =  0.1166E+02
 MRCHDU: Convergence failed at  83  side 1    Res =  0.1139E+02
 MRCHDU: Convergence failed at  84  side 1    Res =  0.1013E+02
 MRCHDU: Convergence failed at  85  side 1    Res =  0.8765E+01
 MRCHDU: Convergence failed at  86  side 1    Res =  0.7054E+01
 Side 1  free  transition at x/c =  0.6380   61
 Side 2 forced transition at x/c =  1.0000   76
 idif Ue xi dudx           1  0.22244397      2.53725052E-03   87.671265    
 Uenew xinew           2  2.88976487E-02  3.29613686E-04

   3   rms: 0.3189E+00   max: 0.1326E+01   D at   80  2
       a =  3.500      CL =  0.4826
      Cm = -0.0096     CD =  0.00828   =>   CDf =  0.00439    CDp =  0.00389

 MRCHDU: Convergence failed at  81  side 2    Res =  0.1100E+01
 MRCHDU: Convergence failed at  82  side 2    Res =  0.1879E+01
 MRCHDU: Convergence failed at  83  side 2    Res =  0.5653E+01
 Side 1  free  transition at x/c =  0.6307   60
 Side 2 forced transition at x/c =  1.0000   77

   4   rms: 0.1118E+00   max: 0.9906E+00   C at   77  2
       a =  3.500      CL =  0.5447
      Cm = -0.0187     CD =  0.00946   =>   CDf =  0.00561    CDp =  0.00385

 Side 1  free  transition at x/c =  0.6311   61
 Side 2 forced transition at x/c =  1.0000   76

   5   rms: 0.2597E-01   max: 0.1811E+00   D at   69  2
       a =  3.500      CL =  0.5451
      Cm = -0.0183     CD =  0.00957   =>   CDf =  0.00547    CDp =  0.00409

 Side 1  free  transition at x/c =  0.6327   61
 Side 2 forced transition at x/c =  1.0000   76

   6   rms: 0.2262E-02   max: 0.1943E-01   D at   67  2
       a =  3.500      CL =  0.5452
      Cm = -0.0182     CD =  0.00961   =>   CDf =  0.00542    CDp =  0.00419

 Side 1  free  transition at x/c =  0.6324   61
 Side 2 forced transition at x/c =  1.0000   76

   7   rms: 0.4484E-04   max: 0.3529E-03   D at   66  2
       a =  3.500      CL =  0.5452
      Cm = -0.0182     CD =  0.00962   =>   CDf =  0.00542    CDp =  0.00419
 plradd ia,ip,cpol           16           0  1.51603678E-02

 Point added to stored polar  1
 Point written to save file  rc12n1_Re300k.base.pol                          
 Dump file unspecified or not available
 Calculating wake trajectory ...
 Calculating source influence matrix ...

 Solving BL system ...

 Side 1  free  transition at x/c =  0.6324   61
 Side 2 forced transition at x/c =  1.0000   76

   1   rms: 0.9244E-01   max: 0.4836E+00   T at   61  1
       a =  4.000      CL =  0.5952
      Cm = -0.0170     CD =  0.00937   =>   CDf =  0.00543    CDp =  0.00394

 Side 1  free  transition at x/c =  0.6075   59
 Side 2 forced transition at x/c =  1.0000   76

   2   rms: 0.2854E-01   max: -.3154E+00   D at   60  1
       a =  4.000      CL =  0.5954
      Cm = -0.0171     CD =  0.00941   =>   CDf =  0.00541    CDp =  0.00400

 Side 1  free  transition at x/c =  0.6065   59
 Side 2 forced transition at x/c =  1.0000   76

   3   rms: 0.2407E-02   max: -.2997E-01   D at   62  1
       a =  4.000      CL =  0.5954
      Cm = -0.0172     CD =  0.00947   =>   CDf =  0.00543    CDp =  0.00404

 Side 1  free  transition at x/c =  0.6056   59
 Side 2 forced transition at x/c =  1.0000   76

   4   rms: 0.6237E-04   max: -.6207E-03   D at   62  1
       a =  4.000      CL =  0.5954
      Cm = -0.0172     CD =  0.00947   =>   CDf =  0.00543    CDp =  0.00403
 plradd ia,ip,cpol           17           0  1.51603678E-02

 Point added to stored polar  1
 Point written to save file  rc12n1_Re300k.base.pol                          
 Dump file unspecified or not available
 Calculating wake trajectory ...
 Calculating source influence matrix ...

 Solving BL system ...

 Side 1  free  transition at x/c =  0.6056   59
 Side 2 forced transition at x/c =  1.0000   76

   1   rms: 0.8650E-01   max: -.9252E-01   D at   69  2
       a =  4.500      CL =  0.6460
      Cm = -0.0163     CD =  0.00938   =>   CDf =  0.00535    CDp =  0.00403

 Side 1  free  transition at x/c =  0.5758   58
 Side 2 forced transition at x/c =  1.0000   75

   2   rms: 0.2697E-01   max: -.3464E+00   D at   59  1
       a =  4.500      CL =  0.6459
      Cm = -0.0162     CD =  0.00942   =>   CDf =  0.00545    CDp =  0.00397

 Side 1  free  transition at x/c =  0.5790   58
 Side 2 forced transition at x/c =  1.0000   75

   3   rms: 0.3364E-02   max: 0.4761E-01   D at   59  1
       a =  4.500      CL =  0.6460
      Cm = -0.0163     CD =  0.00945   =>   CDf =  0.00540    CDp =  0.00405

 Side 1  free  transition at x/c =  0.5777   58
 Side 2 forced transition at x/c =  1.0000   75

   4   rms: 0.5829E-04   max: -.6851E-03   D at   58  1
       a =  4.500      CL =  0.6460
      Cm = -0.0163     CD =  0.00945   =>   CDf =  0.00541    CDp =  0.00404
 plradd ia,ip,cpol           18           0  6.24026218E-03

 Point added to stored polar  1
 Point written to save file  rc12n1_Re300k.base.pol                          
 Dump file unspecified or not available
 Calculating wake trajectory ...
 Calculating source influence matrix ...

 Solving BL system ...

 Side 1  free  transition at x/c =  0.5777   58
 Side 2 forced transition at x/c =  1.0000   75

   1   rms: 0.8409E-01   max: -.8922E-01   D at   70  2
       a =  5.000      CL =  0.6969
      Cm = -0.0156     CD =  0.00947   =>   CDf =  0.00541    CDp =  0.00406

 Side 1  free  transition at x/c =  0.5347   55
 Side 2 forced transition at x/c =  1.0000   75

   2   rms: 0.2090E-01   max: -.3317E+00   D at   56  1
       a =  5.000      CL =  0.6957
      Cm = -0.0152     CD =  0.00963   =>   CDf =  0.00554    CDp =  0.00409

 Side 1  free  transition at x/c =  0.5444   56
 Side 2 forced transition at x/c =  1.0000   75

   3   rms: 0.7986E-02   max: 0.1087E+00   C at   56  1
       a =  5.000      CL =  0.6961
      Cm = -0.0153     CD =  0.00952   =>   CDf =  0.00536    CDp =  0.00416

 Side 1  free  transition at x/c =  0.5421   56
 Side 2 forced transition at x/c =  1.0000   75

   4   rms: 0.6103E-03   max: -.7627E-02   D at   59  1
       a =  5.000      CL =  0.6961
      Cm = -0.0153     CD =  0.00953   =>   CDf =  0.00540    CDp =  0.00413

 Side 1  free  transition at x/c =  0.5419   56
 Side 2 forced transition at x/c =  1.0000   75

   5   rms: 0.3030E-05   max: -.3409E-04   D at   59  1
       a =  5.000      CL =  0.6961
      Cm = -0.0153     CD =  0.00953   =>   CDf =  0.00541    CDp =  0.00412
 plradd ia,ip,cpol           19           0  6.24026218E-03

 Point added to stored polar  1
 Point written to save file  rc12n1_Re300k.base.pol                          
 Dump file unspecified or not available
 Calculating wake trajectory ...
 Calculating source influence matrix ...

 Solving BL system ...

 Side 1  free  transition at x/c =  0.5419   56
 Side 2 forced transition at x/c =  1.0000   75

   1   rms: 0.9694E-01   max: -.5200E+00   D at   57  1   RLX: 0.962
       a =  5.500      CL =  0.7432
      Cm = -0.0141     CD =  0.00971   =>   CDf =  0.00529    CDp =  0.00442

 Side 1  free  transition at x/c =  0.4806   53
 Side 2 forced transition at x/c =  1.0000   74

   2   rms: 0.2780E-01   max: 0.2955E+00   D at   56  1
       a =  5.500      CL =  0.7447
      Cm = -0.0141     CD =  0.00974   =>   CDf =  0.00556    CDp =  0.00418

 Side 1  free  transition at x/c =  0.4852   53
 Side 2 forced transition at x/c =  1.0000   74

   3   rms: 0.5579E-02   max: -.7847E-01   D at   56  1
       a =  5.500      CL =  0.7447
      Cm = -0.0141     CD =  0.00980   =>   CDf =  0.00547    CDp =  0.00433

 Side 1  free  transition at x/c =  0.4827   53
 Side 2 forced transition at x/c =  1.0000   74

   4   rms: 0.2030E-03   max: -.4241E-02   D at   56  1
       a =  5.500      CL =  0.7447
      Cm = -0.0141     CD =  0.00980   =>   CDf =  0.00549    CDp =  0.00431

 Side 1  free  transition at x/c =  0.4827   53
 Side 2 forced transition at x/c =  1.0000   74

   5   rms: 0.7734E-06   max: -.8463E-05   D at   56  1
       a =  5.500      CL =  0.7447
      Cm = -0.0141     CD =  0.00980   =>   CDf =  0.00549    CDp =  0.00431
 plradd ia,ip,cpol           20           0  6.24026218E-03

 Point added to stored polar  1
 Point written to save file  rc12n1_Re300k.base.pol                          
 Dump file unspecified or not available
 Calculating wake trajectory ...
 Calculating source influence matrix ...

 Solving BL system ...

 Side 1  free  transition at x/c =  0.4827   53
 Side 2 forced transition at x/c =  1.0000   74

   1   rms: 0.1178E+00   max: 0.1276E+01   C at   53  1   RLX: 0.748
       a =  6.000      CL =  0.7792
      Cm = -0.0130     CD =  0.01022   =>   CDf =  0.00550    CDp =  0.00473

 Side 1  free  transition at x/c =  0.3987   47
 Side 2 forced transition at x/c =  1.0000   74

   2   rms: 0.2984E-01   max: -.2162E+00   D at   48  1
       a =  6.000      CL =  0.7893
      Cm = -0.0126     CD =  0.01059   =>   CDf =  0.00585    CDp =  0.00473

 Side 1  free  transition at x/c =  0.3729   45
 Side 2 forced transition at x/c =  1.0000   74

   3   rms: 0.6504E-02   max: -.1125E+00   C at   45  1
       a =  6.000      CL =  0.7885
      Cm = -0.0126     CD =  0.01069   =>   CDf =  0.00594    CDp =  0.00475

 Side 1  free  transition at x/c =  0.3760   45
 Side 2 forced transition at x/c =  1.0000   74

   4   rms: 0.3007E-02   max: -.5395E-01   C at   45  1
       a =  6.000      CL =  0.7885
      Cm = -0.0126     CD =  0.01069   =>   CDf =  0.00593    CDp =  0.00476

 Side 1  free  transition at x/c =  0.3760   45
 Side 2 forced transition at x/c =  1.0000   74

   5   rms: 0.3156E-02   max: -.5650E-01   C at   45  1
       a =  6.000      CL =  0.7885
      Cm = -0.0126     CD =  0.01069   =>   CDf =  0.00593    CDp =  0.00476

 Side 1  free  transition at x/c =  0.3760   45
 Side 2 forced transition at x/c =  1.0000   74

   6   rms: 0.3152E-02   max: -.5643E-01   C at   45  1
       a =  6.000      CL =  0.7885
      Cm = -0.0126     CD =  0.01069   =>   CDf =  0.00593    CDp =  0.00476

 Side 1  free  transition at x/c =  0.3760   45
 Side 2 forced transition at x/c =  1.0000   74

   7   rms: 0.3151E-02   max: -.5642E-01   C at   45  1
       a =  6.000      CL =  0.7885
      Cm = -0.0126     CD =  0.01069   =>   CDf =  0.00593    CDp =  0.00476

 Side 1  free  transition at x/c =  0.3760   45
 Side 2 forced transition at x/c =  1.0000   74

   8   rms: 0.3152E-02   max: -.5644E-01   C at   45  1
       a =  6.000      CL =  0.7885
      Cm = -0.0126     CD =  0.01069   =>   CDf =  0.00593    CDp =  0.00476

 Side 1  free  transition at x/c =  0.3760   45
 Side 2 forced transition at x/c =  1.0000   74

   9   rms: 0.3152E-02   max: -.5643E-01   C at   45  1
       a =  6.000      CL =  0.7885
      Cm = -0.0126     CD =  0.01069   =>   CDf =  0.00593    CDp =  0.00476

 Side 1  free  transition at x/c =  0.3760   45
 Side 2 forced transition at x/c =  1.0000   74

  10   rms: 0.3152E-02   max: -.5644E-01   C at   45  1
       a =  6.000      CL =  0.7885
      Cm = -0.0126     CD =  0.01069   =>   CDf =  0.00593    CDp =  0.00476

 Side 1  free  transition at x/c =  0.3760   45
 Side 2 forced transition at x/c =  1.0000   74

  11   rms: 0.3152E-02   max: -.5643E-01   C at   45  1
       a =  6.000      CL =  0.7885
      Cm = -0.0126     CD =  0.01069   =>   CDf =  0.00593    CDp =  0.00476

 Side 1  free  transition at x/c =  0.3760   45
 Side 2 forced transition at x/c =  1.0000   74

  12   rms: 0.3152E-02   max: -.5644E-01   C at   45  1
       a =  6.000      CL =  0.7885
      Cm = -0.0126     CD =  0.01069   =>   CDf =  0.00593    CDp =  0.00476

 Side 1  free  transition at x/c =  0.3760   45
 Side 2 forced transition at x/c =  1.0000   74

  13   rms: 0.3152E-02   max: -.5643E-01   C at   45  1
       a =  6.000      CL =  0.7885
      Cm = -0.0126     CD =  0.01069   =>   CDf =  0.00593    CDp =  0.00476

 Side 1  free  transition at x/c =  0.3760   45
 Side 2 forced transition at x/c =  1.0000   74

  14   rms: 0.3151E-02   max: -.5642E-01   C at   45  1
       a =  6.000      CL =  0.7885
      Cm = -0.0126     CD =  0.01069   =>   CDf =  0.00593    CDp =  0.00476

 Side 1  free  transition at x/c =  0.3760   45
 Side 2 forced transition at x/c =  1.0000   74

  15   rms: 0.3151E-02   max: -.5642E-01   C at   45  1
       a =  6.000      CL =  0.7885
      Cm = -0.0126     CD =  0.01069   =>   CDf =  0.00593    CDp =  0.00476

 Side 1  free  transition at x/c =  0.3760   45
 Side 2 forced transition at x/c =  1.0000   74

  16   rms: 0.3152E-02   max: -.5644E-01   C at   45  1
       a =  6.000      CL =  0.7885
      Cm = -0.0126     CD =  0.01069   =>   CDf =  0.00593    CDp =  0.00476

 Side 1  free  transition at x/c =  0.3760   45
 Side 2 forced transition at x/c =  1.0000   74

  17   rms: 0.3151E-02   max: -.5642E-01   C at   45  1
       a =  6.000      CL =  0.7885
      Cm = -0.0126     CD =  0.01069   =>   CDf =  0.00593    CDp =  0.00476

 Side 1  free  transition at x/c =  0.3760   45
 Side 2 forced transition at x/c =  1.0000   74

  18   rms: 0.3151E-02   max: -.5643E-01   C at   45  1
       a =  6.000      CL =  0.7885
      Cm = -0.0126     CD =  0.01069   =>   CDf =  0.00593    CDp =  0.00476

 Side 1  free  transition at x/c =  0.3760   45
 Side 2 forced transition at x/c =  1.0000   74

  19   rms: 0.3151E-02   max: -.5642E-01   C at   45  1
       a =  6.000      CL =  0.7885
      Cm = -0.0126     CD =  0.01069   =>   CDf =  0.00593    CDp =  0.00476

 Side 1  free  transition at x/c =  0.3760   45
 Side 2 forced transition at x/c =  1.0000   74

  20   rms: 0.3152E-02   max: -.5643E-01   C at   45  1
       a =  6.000      CL =  0.7885
      Cm = -0.0126     CD =  0.01069   =>   CDf =  0.00593    CDp =  0.00476

 Side 1  free  transition at x/c =  0.3760   45
 Side 2 forced transition at x/c =  1.0000   74

  21   rms: 0.3152E-02   max: -.5643E-01   C at   45  1
       a =  6.000      CL =  0.7885
      Cm = -0.0126     CD =  0.01069   =>   CDf =  0.00593    CDp =  0.00476

 Side 1  free  transition at x/c =  0.3760   45
 Side 2 forced transition at x/c =  1.0000   74

  22   rms: 0.3152E-02   max: -.5644E-01   C at   45  1
       a =  6.000      CL =  0.7885
      Cm = -0.0126     CD =  0.01069   =>   CDf =  0.00593    CDp =  0.00476

 Side 1  free  transition at x/c =  0.3760   45
 Side 2 forced transition at x/c =  1.0000   74

  23   rms: 0.3151E-02   max: -.5643E-01   C at   45  1
       a =  6.000      CL =  0.7885
      Cm = -0.0126     CD =  0.01069   =>   CDf =  0.00593    CDp =  0.00476

 Side 1  free  transition at x/c =  0.3760   45
 Side 2 forced transition at x/c =  1.0000   74

  24   rms: 0.3152E-02   max: -.5643E-01   C at   45  1
       a =  6.000      CL =  0.7885
      Cm = -0.0126     CD =  0.01069   =>   CDf =  0.00593    CDp =  0.00476

 Side 1  free  transition at x/c =  0.3760   45
 Side 2 forced transition at x/c =  1.0000   74

  25   rms: 0.3152E-02   max: -.5643E-01   C at   45  1
       a =  6.000      CL =  0.7885
      Cm = -0.0126     CD =  0.01069   =>   CDf =  0.00593    CDp =  0.00476

 Side 1  free  transition at x/c =  0.3760   45
 Side 2 forced transition at x/c =  1.0000   74

  26   rms: 0.3151E-02   max: -.5642E-01   C at   45  1
       a =  6.000      CL =  0.7885
      Cm = -0.0126     CD =  0.01069   =>   CDf =  0.00593    CDp =  0.00476

 Side 1  free  transition at x/c =  0.3760   45
 Side 2 forced transition at x/c =  1.0000   74

  27   rms: 0.3151E-02   max: -.5642E-01   C at   45  1
       a =  6.000      CL =  0.7885
      Cm = -0.0126     CD =  0.01069   =>   CDf =  0.00593    CDp =  0.00476

 Side 1  free  transition at x/c =  0.3760   45
 Side 2 forced transition at x/c =  1.0000   74

  28   rms: 0.3152E-02   max: -.5644E-01   C at   45  1
       a =  6.000      CL =  0.7885
      Cm = -0.0126     CD =  0.01069   =>   CDf =  0.00593    CDp =  0.00476

 Side 1  free  transition at x/c =  0.3760   45
 Side 2 forced transition at x/c =  1.0000   74

  29   rms: 0.3151E-02   max: -.5642E-01   C at   45  1
       a =  6.000      CL =  0.7885
      Cm = -0.0126     CD =  0.01069   =>   CDf =  0.00593    CDp =  0.00476

 Side 1  free  transition at x/c =  0.3760   45
 Side 2 forced transition at x/c =  1.0000   74

  30   rms: 0.3152E-02   max: -.5643E-01   C at   45  1
       a =  6.000      CL =  0.7885
      Cm = -0.0126     CD =  0.01069   =>   CDf =  0.00593    CDp =  0.00476

 Side 1  free  transition at x/c =  0.3760   45
 Side 2 forced transition at x/c =  1.0000   74

  31   rms: 0.3152E-02   max: -.5644E-01   C at   45  1
       a =  6.000      CL =  0.7885
      Cm = -0.0126     CD =  0.01069   =>   CDf =  0.00593    CDp =  0.00476

 Side 1  free  transition at x/c =  0.3760   45
 Side 2 forced transition at x/c =  1.0000   74

  32   rms: 0.3151E-02   max: -.5642E-01   C at   45  1
       a =  6.000      CL =  0.7885
      Cm = -0.0126     CD =  0.01069   =>   CDf =  0.00593    CDp =  0.00476

 Side 1  free  transition at x/c =  0.3760   45
 Side 2 forced transition at x/c =  1.0000   74

  33   rms: 0.3152E-02   max: -.5644E-01   C at   45  1
       a =  6.000      CL =  0.7885
      Cm = -0.0126     CD =  0.01069   =>   CDf =  0.00593    CDp =  0.00476

 Side 1  free  transition at x/c =  0.3760   45
 Side 2 forced transition at x/c =  1.0000   74

  34   rms: 0.3152E-02   max: -.5644E-01   C at   45  1
       a =  6.000      CL =  0.7885
      Cm = -0.0126     CD =  0.01069   =>   CDf =  0.00593    CDp =  0.00476

 Side 1  free  transition at x/c =  0.3760   45
 Side 2 forced transition at x/c =  1.0000   74

  35   rms: 0.3150E-02   max: -.5640E-01   C at   45  1
       a =  6.000      CL =  0.7885
      Cm = -0.0126     CD =  0.01069   =>   CDf =  0.00593    CDp =  0.00476

 Side 1  free  transition at x/c =  0.3760   45
 Side 2 forced transition at x/c =  1.0000   74

  36   rms: 0.3152E-02   max: -.5644E-01   C at   45  1
       a =  6.000      CL =  0.7885
      Cm = -0.0126     CD =  0.01069   =>   CDf =  0.00593    CDp =  0.00476

 Side 1  free  transition at x/c =  0.3760   45
 Side 2 forced transition at x/c =  1.0000   74

  37   rms: 0.3151E-02   max: -.5642E-01   C at   45  1
       a =  6.000      CL =  0.7885
      Cm = -0.0126     CD =  0.01069   =>   CDf =  0.00593    CDp =  0.00476

 Side 1  free  transition at x/c =  0.3760   45
 Side 2 forced transition at x/c =  1.0000   74

  38   rms: 0.3152E-02   max: -.5643E-01   C at   45  1
       a =  6.000      CL =  0.7885
      Cm = -0.0126     CD =  0.01069   =>   CDf =  0.00593    CDp =  0.00476

 Side 1  free  transition at x/c =  0.3760   45
 Side 2 forced transition at x/c =  1.0000   74

  39   rms: 0.3152E-02   max: -.5643E-01   C at   45  1
       a =  6.000      CL =  0.7885
      Cm = -0.0126     CD =  0.01069   =>   CDf =  0.00593    CDp =  0.00476

 Side 1  free  transition at x/c =  0.3760   45
 Side 2 forced transition at x/c =  1.0000   74

  40   rms: 0.3151E-02   max: -.5642E-01   C at   45  1
       a =  6.000      CL =  0.7885
      Cm = -0.0126     CD =  0.01069   =>   CDf =  0.00593    CDp =  0.00476

 Side 1  free  transition at x/c =  0.3760   45
 Side 2 forced transition at x/c =  1.0000   74

  41   rms: 0.3152E-02   max: -.5643E-01   C at   45  1
       a =  6.000      CL =  0.7885
      Cm = -0.0126     CD =  0.01069   =>   CDf =  0.00593    CDp =  0.00476

 Side 1  free  transition at x/c =  0.3760   45
 Side 2 forced transition at x/c =  1.0000   74

  42   rms: 0.3152E-02   max: -.5643E-01   C at   45  1
       a =  6.000      CL =  0.7885
      Cm = -0.0126     CD =  0.01069   =>   CDf =  0.00593    CDp =  0.00476

 Side 1  free  transition at x/c =  0.3760   45
 Side 2 forced transition at x/c =  1.0000   74

  43   rms: 0.3152E-02   max: -.5643E-01   C at   45  1
       a =  6.000      CL =  0.7885
      Cm = -0.0126     CD =  0.01069   =>   CDf =  0.00593    CDp =  0.00476

 Side 1  free  transition at x/c =  0.3760   45
 Side 2 forced transition at x/c =  1.0000   74

  44   rms: 0.3151E-02   max: -.5642E-01   C at   45  1
       a =  6.000      CL =  0.7885
      Cm = -0.0126     CD =  0.01069   =>   CDf =  0.00593    CDp =  0.00476

 Side 1  free  transition at x/c =  0.3760   45
 Side 2 forced transition at x/c =  1.0000   74

  45   rms: 0.3152E-02   max: -.5643E-01   C at   45  1
       a =  6.000      CL =  0.7885
      Cm = -0.0126     CD =  0.01069   =>   CDf =  0.00593    CDp =  0.00476

 Side 1  free  transition at x/c =  0.3760   45
 Side 2 forced transition at x/c =  1.0000   74

  46   rms: 0.3152E-02   max: -.5643E-01   C at   45  1
       a =  6.000      CL =  0.7885
      Cm = -0.0126     CD =  0.01069   =>   CDf =  0.00593    CDp =  0.00476

 Side 1  free  transition at x/c =  0.3760   45
 Side 2 forced transition at x/c =  1.0000   74

  47   rms: 0.3151E-02   max: -.5642E-01   C at   45  1
       a =  6.000      CL =  0.7885
      Cm = -0.0126     CD =  0.01069   =>   CDf =  0.00593    CDp =  0.00476

 Side 1  free  transition at x/c =  0.3760   45
 Side 2 forced transition at x/c =  1.0000   74

  48   rms: 0.3152E-02   max: -.5643E-01   C at   45  1
       a =  6.000      CL =  0.7885
      Cm = -0.0126     CD =  0.01069   =>   CDf =  0.00593    CDp =  0.00476

 Side 1  free  transition at x/c =  0.3760   45
 Side 2 forced transition at x/c =  1.0000   74

  49   rms: 0.3151E-02   max: -.5642E-01   C at   45  1
       a =  6.000      CL =  0.7885
      Cm = -0.0126     CD =  0.01069   =>   CDf =  0.00593    CDp =  0.00476

 Side 1  free  transition at x/c =  0.3760   45
 Side 2 forced transition at x/c =  1.0000   74

  50   rms: 0.3151E-02   max: -.5643E-01   C at   45  1
       a =  6.000      CL =  0.7885
      Cm = -0.0126     CD =  0.01069   =>   CDf =  0.00593    CDp =  0.00476

 Side 1  free  transition at x/c =  0.3760   45
 Side 2 forced transition at x/c =  1.0000   74

  51   rms: 0.3151E-02   max: -.5642E-01   C at   45  1
       a =  6.000      CL =  0.7885
      Cm = -0.0126     CD =  0.01069   =>   CDf =  0.00593    CDp =  0.00476

 Side 1  free  transition at x/c =  0.3760   45
 Side 2 forced transition at x/c =  1.0000   74

  52   rms: 0.3152E-02   max: -.5644E-01   C at   45  1
       a =  6.000      CL =  0.7885
      Cm = -0.0126     CD =  0.01069   =>   CDf =  0.00593    CDp =  0.00476

 Side 1  free  transition at x/c =  0.3760   45
 Side 2 forced transition at x/c =  1.0000   74

  53   rms: 0.3151E-02   max: -.5642E-01   C at   45  1
       a =  6.000      CL =  0.7885
      Cm = -0.0126     CD =  0.01069   =>   CDf =  0.00593    CDp =  0.00476

 Side 1  free  transition at x/c =  0.3760   45
 Side 2 forced transition at x/c =  1.0000   74

  54   rms: 0.3152E-02   max: -.5644E-01   C at   45  1
       a =  6.000      CL =  0.7885
      Cm = -0.0126     CD =  0.01069   =>   CDf =  0.00593    CDp =  0.00476

 Side 1  free  transition at x/c =  0.3760   45
 Side 2 forced transition at x/c =  1.0000   74

  55   rms: 0.3152E-02   max: -.5644E-01   C at   45  1
       a =  6.000      CL =  0.7885
      Cm = -0.0126     CD =  0.01069   =>   CDf =  0.00593    CDp =  0.00476

 Side 1  free  transition at x/c =  0.3760   45
 Side 2 forced transition at x/c =  1.0000   74

  56   rms: 0.3152E-02   max: -.5643E-01   C at   45  1
       a =  6.000      CL =  0.7885
      Cm = -0.0126     CD =  0.01069   =>   CDf =  0.00593    CDp =  0.00476

 Side 1  free  transition at x/c =  0.3760   45
 Side 2 forced transition at x/c =  1.0000   74

  57   rms: 0.3151E-02   max: -.5643E-01   C at   45  1
       a =  6.000      CL =  0.7885
      Cm = -0.0126     CD =  0.01069   =>   CDf =  0.00593    CDp =  0.00476

 Side 1  free  transition at x/c =  0.3760   45
 Side 2 forced transition at x/c =  1.0000   74

  58   rms: 0.3152E-02   max: -.5643E-01   C at   45  1
       a =  6.000      CL =  0.7885
      Cm = -0.0126     CD =  0.01069   =>   CDf =  0.00593    CDp =  0.00476

 Side 1  free  transition at x/c =  0.3760   45
 Side 2 forced transition at x/c =  1.0000   74

  59   rms: 0.3151E-02   max: -.5642E-01   C at   45  1
       a =  6.000      CL =  0.7885
      Cm = -0.0126     CD =  0.01069   =>   CDf =  0.00593    CDp =  0.00476

 Side 1  free  transition at x/c =  0.3760   45
 Side 2 forced transition at x/c =  1.0000   74

  60   rms: 0.3151E-02   max: -.5642E-01   C at   45  1
       a =  6.000      CL =  0.7885
      Cm = -0.0126     CD =  0.01069   =>   CDf =  0.00593    CDp =  0.00476

 Side 1  free  transition at x/c =  0.3760   45
 Side 2 forced transition at x/c =  1.0000   74

  61   rms: 0.3151E-02   max: -.5643E-01   C at   45  1
       a =  6.000      CL =  0.7885
      Cm = -0.0126     CD =  0.01069   =>   CDf =  0.00593    CDp =  0.00476

 Side 1  free  transition at x/c =  0.3760   45
 Side 2 forced transition at x/c =  1.0000   74

  62   rms: 0.3151E-02   max: -.5642E-01   C at   45  1
       a =  6.000      CL =  0.7885
      Cm = -0.0126     CD =  0.01069   =>   CDf =  0.00593    CDp =  0.00476

 Side 1  free  transition at x/c =  0.3760   45
 Side 2 forced transition at x/c =  1.0000   74

  63   rms: 0.3152E-02   max: -.5644E-01   C at   45  1
       a =  6.000      CL =  0.7885
      Cm = -0.0126     CD =  0.01069   =>   CDf =  0.00593    CDp =  0.00476

 Side 1  free  transition at x/c =  0.3760   45
 Side 2 forced transition at x/c =  1.0000   74

  64   rms: 0.3152E-02   max: -.5643E-01   C at   45  1
       a =  6.000      CL =  0.7885
      Cm = -0.0126     CD =  0.01069   =>   CDf =  0.00593    CDp =  0.00476

 Side 1  free  transition at x/c =  0.3760   45
 Side 2 forced transition at x/c =  1.0000   74

  65   rms: 0.3151E-02   max: -.5642E-01   C at   45  1
       a =  6.000      CL =  0.7885
      Cm = -0.0126     CD =  0.01069   =>   CDf =  0.00593    CDp =  0.00476

 Side 1  free  transition at x/c =  0.3760   45
 Side 2 forced transition at x/c =  1.0000   74

  66   rms: 0.3152E-02   max: -.5644E-01   C at   45  1
       a =  6.000      CL =  0.7885
      Cm = -0.0126     CD =  0.01069   =>   CDf =  0.00593    CDp =  0.00476

 Side 1  free  transition at x/c =  0.3760   45
 Side 2 forced transition at x/c =  1.0000   74

  67   rms: 0.3152E-02   max: -.5643E-01   C at   45  1
       a =  6.000      CL =  0.7885
      Cm = -0.0126     CD =  0.01069   =>   CDf =  0.00593    CDp =  0.00476

 Side 1  free  transition at x/c =  0.3760   45
 Side 2 forced transition at x/c =  1.0000   74

  68   rms: 0.3151E-02   max: -.5642E-01   C at   45  1
       a =  6.000      CL =  0.7885
      Cm = -0.0126     CD =  0.01069   =>   CDf =  0.00593    CDp =  0.00476

 Side 1  free  transition at x/c =  0.3760   45
 Side 2 forced transition at x/c =  1.0000   74

  69   rms: 0.3152E-02   max: -.5644E-01   C at   45  1
       a =  6.000      CL =  0.7885
      Cm = -0.0126     CD =  0.01069   =>   CDf =  0.00593    CDp =  0.00476

 Side 1  free  transition at x/c =  0.3760   45
 Side 2 forced transition at x/c =  1.0000   74

  70   rms: 0.3151E-02   max: -.5642E-01   C at   45  1
       a =  6.000      CL =  0.7885
      Cm = -0.0126     CD =  0.01069   =>   CDf =  0.00593    CDp =  0.00476

 Side 1  free  transition at x/c =  0.3760   45
 Side 2 forced transition at x/c =  1.0000   74

  71   rms: 0.3151E-02   max: -.5642E-01   C at   45  1
       a =  6.000      CL =  0.7885
      Cm = -0.0126     CD =  0.01069   =>   CDf =  0.00593    CDp =  0.00476

 Side 1  free  transition at x/c =  0.3760   45
 Side 2 forced transition at x/c =  1.0000   74

  72   rms: 0.3151E-02   max: -.5642E-01   C at   45  1
       a =  6.000      CL =  0.7885
      Cm = -0.0126     CD =  0.01069   =>   CDf =  0.00593    CDp =  0.00476

 Side 1  free  transition at x/c =  0.3760   45
 Side 2 forced transition at x/c =  1.0000   74

  73   rms: 0.3151E-02   max: -.5642E-01   C at   45  1
       a =  6.000      CL =  0.7885
      Cm = -0.0126     CD =  0.01069   =>   CDf =  0.00593    CDp =  0.00476

 Side 1  free  transition at x/c =  0.3760   45
 Side 2 forced transition at x/c =  1.0000   74

  74   rms: 0.3152E-02   max: -.5643E-01   C at   45  1
       a =  6.000      CL =  0.7885
      Cm = -0.0126     CD =  0.01069   =>   CDf =  0.00593    CDp =  0.00476

 Side 1  free  transition at x/c =  0.3760   45
 Side 2 forced transition at x/c =  1.0000   74

  75   rms: 0.3152E-02   max: -.5644E-01   C at   45  1
       a =  6.000      CL =  0.7885
      Cm = -0.0126     CD =  0.01069   =>   CDf =  0.00593    CDp =  0.00476

 Side 1  free  transition at x/c =  0.3760   45
 Side 2 forced transition at x/c =  1.0000   74

  76   rms: 0.3151E-02   max: -.5642E-01   C at   45  1
       a =  6.000      CL =  0.7885
      Cm = -0.0126     CD =  0.01069   =>   CDf =  0.00593    CDp =  0.00476

 Side 1  free  transition at x/c =  0.3760   45
 Side 2 forced transition at x/c =  1.0000   74

  77   rms: 0.3152E-02   max: -.5644E-01   C at   45  1
       a =  6.000      CL =  0.7885
      Cm = -0.0126     CD =  0.01069   =>   CDf =  0.00593    CDp =  0.00476

 Side 1  free  transition at x/c =  0.3760   45
 Side 2 forced transition at x/c =  1.0000   74

  78   rms: 0.3151E-02   max: -.5642E-01   C at   45  1
       a =  6.000      CL =  0.7885
      Cm = -0.0126     CD =  0.01069   =>   CDf =  0.00593    CDp =  0.00476

 Side 1  free  transition at x/c =  0.3760   45
 Side 2 forced transition at x/c =  1.0000   74

  79   rms: 0.3152E-02   max: -.5645E-01   C at   45  1
       a =  6.000      CL =  0.7885
      Cm = -0.0126     CD =  0.01069   =>   CDf =  0.00593    CDp =  0.00476

 Side 1  free  transition at x/c =  0.3760   45
 Side 2 forced transition at x/c =  1.0000   74

  80   rms: 0.3151E-02   max: -.5641E-01   C at   45  1
       a =  6.000      CL =  0.7885
      Cm = -0.0126     CD =  0.01069   =>   CDf =  0.00593    CDp =  0.00476

 Side 1  free  transition at x/c =  0.3760   45
 Side 2 forced transition at x/c =  1.0000   74

  81   rms: 0.3151E-02   max: -.5642E-01   C at   45  1
       a =  6.000      CL =  0.7885
      Cm = -0.0126     CD =  0.01069   =>   CDf =  0.00593    CDp =  0.00476

 Side 1  free  transition at x/c =  0.3760   45
 Side 2 forced transition at x/c =  1.0000   74

  82   rms: 0.3152E-02   max: -.5644E-01   C at   45  1
       a =  6.000      CL =  0.7885
      Cm = -0.0126     CD =  0.01069   =>   CDf =  0.00593    CDp =  0.00476

 Side 1  free  transition at x/c =  0.3760   45
 Side 2 forced transition at x/c =  1.0000   74

  83   rms: 0.3152E-02   max: -.5643E-01   C at   45  1
       a =  6.000      CL =  0.7885
      Cm = -0.0126     CD =  0.01069   =>   CDf =  0.00593    CDp =  0.00476

 Side 1  free  transition at x/c =  0.3760   45
 Side 2 forced transition at x/c =  1.0000   74

  84   rms: 0.3151E-02   max: -.5642E-01   C at   45  1
       a =  6.000      CL =  0.7885
      Cm = -0.0126     CD =  0.01069   =>   CDf =  0.00593    CDp =  0.00476

 Side 1  free  transition at x/c =  0.3760   45
 Side 2 forced transition at x/c =  1.0000   74

  85   rms: 0.3152E-02   max: -.5644E-01   C at   45  1
       a =  6.000      CL =  0.7885
      Cm = -0.0126     CD =  0.01069   =>   CDf =  0.00593    CDp =  0.00476

 Side 1  free  transition at x/c =  0.3760   45
 Side 2 forced transition at x/c =  1.0000   74

  86   rms: 0.3151E-02   max: -.5643E-01   C at   45  1
       a =  6.000      CL =  0.7885
      Cm = -0.0126     CD =  0.01069   =>   CDf =  0.00593    CDp =  0.00476

 Side 1  free  transition at x/c =  0.3760   45
 Side 2 forced transition at x/c =  1.0000   74

  87   rms: 0.3152E-02   max: -.5644E-01   C at   45  1
       a =  6.000      CL =  0.7885
      Cm = -0.0126     CD =  0.01069   =>   CDf =  0.00593    CDp =  0.00476

 Side 1  free  transition at x/c =  0.3760   45
 Side 2 forced transition at x/c =  1.0000   74

  88   rms: 0.3151E-02   max: -.5642E-01   C at   45  1
       a =  6.000      CL =  0.7885
      Cm = -0.0126     CD =  0.01069   =>   CDf =  0.00593    CDp =  0.00476

 Side 1  free  transition at x/c =  0.3760   45
 Side 2 forced transition at x/c =  1.0000   74

  89   rms: 0.3151E-02   max: -.5642E-01   C at   45  1
       a =  6.000      CL =  0.7885
      Cm = -0.0126     CD =  0.01069   =>   CDf =  0.00593    CDp =  0.00476

 Side 1  free  transition at x/c =  0.3760   45
 Side 2 forced transition at x/c =  1.0000   74

  90   rms: 0.3151E-02   max: -.5642E-01   C at   45  1
       a =  6.000      CL =  0.7885
      Cm = -0.0126     CD =  0.01069   =>   CDf =  0.00593    CDp =  0.00476

 Side 1  free  transition at x/c =  0.3760   45
 Side 2 forced transition at x/c =  1.0000   74

  91   rms: 0.3152E-02   max: -.5644E-01   C at   45  1
       a =  6.000      CL =  0.7885
      Cm = -0.0126     CD =  0.01069   =>   CDf =  0.00593    CDp =  0.00476

 Side 1  free  transition at x/c =  0.3760   45
 Side 2 forced transition at x/c =  1.0000   74

  92   rms: 0.3152E-02   max: -.5643E-01   C at   45  1
       a =  6.000      CL =  0.7885
      Cm = -0.0126     CD =  0.01069   =>   CDf =  0.00593    CDp =  0.00476

 Side 1  free  transition at x/c =  0.3760   45
 Side 2 forced transition at x/c =  1.0000   74

  93   rms: 0.3152E-02   max: -.5643E-01   C at   45  1
       a =  6.000      CL =  0.7885
      Cm = -0.0126     CD =  0.01069   =>   CDf =  0.00593    CDp =  0.00476

 Side 1  free  transition at x/c =  0.3760   45
 Side 2 forced transition at x/c =  1.0000   74

  94   rms: 0.3152E-02   max: -.5643E-01   C at   45  1
       a =  6.000      CL =  0.7885
      Cm = -0.0126     CD =  0.01069   =>   CDf =  0.00593    CDp =  0.00476

 Side 1  free  transition at x/c =  0.3760   45
 Side 2 forced transition at x/c =  1.0000   74

  95   rms: 0.3151E-02   max: -.5643E-01   C at   45  1
       a =  6.000      CL =  0.7885
      Cm = -0.0126     CD =  0.01069   =>   CDf =  0.00593    CDp =  0.00476

 Side 1  free  transition at x/c =  0.3760   45
 Side 2 forced transition at x/c =  1.0000   74

  96   rms: 0.3152E-02   max: -.5644E-01   C at   45  1
       a =  6.000      CL =  0.7885
      Cm = -0.0126     CD =  0.01069   =>   CDf =  0.00593    CDp =  0.00476

 Side 1  free  transition at x/c =  0.3760   45
 Side 2 forced transition at x/c =  1.0000   74

  97   rms: 0.3151E-02   max: -.5643E-01   C at   45  1
       a =  6.000      CL =  0.7885
      Cm = -0.0126     CD =  0.01069   =>   CDf =  0.00593    CDp =  0.00476

 Side 1  free  transition at x/c =  0.3760   45
 Side 2 forced transition at x/c =  1.0000   74

  98   rms: 0.3152E-02   max: -.5643E-01   C at   45  1
       a =  6.000      CL =  0.7885
      Cm = -0.0126     CD =  0.01069   =>   CDf =  0.00593    CDp =  0.00476

 Side 1  free  transition at x/c =  0.3760   45
 Side 2 forced transition at x/c =  1.0000   74

  99   rms: 0.3152E-02   max: -.5643E-01   C at   45  1
       a =  6.000      CL =  0.7885
      Cm = -0.0126     CD =  0.01069   =>   CDf =  0.00593    CDp =  0.00476

 Side 1  free  transition at x/c =  0.3760   45
 Side 2 forced transition at x/c =  1.0000   74

 100   rms: 0.3152E-02   max: -.5643E-01   C at   45  1
       a =  6.000      CL =  0.7885
      Cm = -0.0126     CD =  0.01069   =>   CDf =  0.00593    CDp =  0.00476

 Side 1  free  transition at x/c =  0.3760   45
 Side 2 forced transition at x/c =  1.0000   74

 101   rms: 0.3152E-02   max: -.5643E-01   C at   45  1
       a =  6.000      CL =  0.7885
      Cm = -0.0126     CD =  0.01069   =>   CDf =  0.00593    CDp =  0.00476

 Side 1  free  transition at x/c =  0.3760   45
 Side 2 forced transition at x/c =  1.0000   74

 102   rms: 0.3152E-02   max: -.5643E-01   C at   45  1
       a =  6.000      CL =  0.7885
      Cm = -0.0126     CD =  0.01069   =>   CDf =  0.00593    CDp =  0.00476

 Side 1  free  transition at x/c =  0.3760   45
 Side 2 forced transition at x/c =  1.0000   74

 103   rms: 0.3152E-02   max: -.5643E-01   C at   45  1
       a =  6.000      CL =  0.7885
      Cm = -0.0126     CD =  0.01069   =>   CDf =  0.00593    CDp =  0.00476

 Side 1  free  transition at x/c =  0.3760   45
 Side 2 forced transition at x/c =  1.0000   74

 104   rms: 0.3151E-02   max: -.5642E-01   C at   45  1
       a =  6.000      CL =  0.7885
      Cm = -0.0126     CD =  0.01069   =>   CDf =  0.00593    CDp =  0.00476

 Side 1  free  transition at x/c =  0.3760   45
 Side 2 forced transition at x/c =  1.0000   74

 105   rms: 0.3151E-02   max: -.5642E-01   C at   45  1
       a =  6.000      CL =  0.7885
      Cm = -0.0126     CD =  0.01069   =>   CDf =  0.00593    CDp =  0.00476

 Side 1  free  transition at x/c =  0.3760   45
 Side 2 forced transition at x/c =  1.0000   74

 106   rms: 0.3151E-02   max: -.5642E-01   C at   45  1
       a =  6.000      CL =  0.7885
      Cm = -0.0126     CD =  0.01069   =>   CDf =  0.00593    CDp =  0.00476

 Side 1  free  transition at x/c =  0.3760   45
 Side 2 forced transition at x/c =  1.0000   74

 107   rms: 0.3151E-02   max: -.5642E-01   C at   45  1
       a =  6.000      CL =  0.7885
      Cm = -0.0126     CD =  0.01069   =>   CDf =  0.00593    CDp =  0.00476

 Side 1  free  transition at x/c =  0.3760   45
 Side 2 forced transition at x/c =  1.0000   74

 108   rms: 0.3152E-02   max: -.5644E-01   C at   45  1
       a =  6.000      CL =  0.7885
      Cm = -0.0126     CD =  0.01069   =>   CDf =  0.00593    CDp =  0.00476

 Side 1  free  transition at x/c =  0.3760   45
 Side 2 forced transition at x/c =  1.0000   74

 109   rms: 0.3151E-02   max: -.5642E-01   C at   45  1
       a =  6.000      CL =  0.7885
      Cm = -0.0126     CD =  0.01069   =>   CDf =  0.00593    CDp =  0.00476

 Side 1  free  transition at x/c =  0.3760   45
 Side 2 forced transition at x/c =  1.0000   74

 110   rms: 0.3152E-02   max: -.5644E-01   C at   45  1
       a =  6.000      CL =  0.7885
      Cm = -0.0126     CD =  0.01069   =>   CDf =  0.00593    CDp =  0.00476

 Side 1  free  transition at x/c =  0.3760   45
 Side 2 forced transition at x/c =  1.0000   74

 111   rms: 0.3152E-02   max: -.5643E-01   C at   45  1
       a =  6.000      CL =  0.7885
      Cm = -0.0126     CD =  0.01069   =>   CDf =  0.00593    CDp =  0.00476

 Side 1  free  transition at x/c =  0.3760   45
 Side 2 forced transition at x/c =  1.0000   74

 112   rms: 0.3152E-02   max: -.5643E-01   C at   45  1
       a =  6.000      CL =  0.7885
      Cm = -0.0126     CD =  0.01069   =>   CDf =  0.00593    CDp =  0.00476

 Side 1  free  transition at x/c =  0.3760   45
 Side 2 forced transition at x/c =  1.0000   74

 113   rms: 0.3152E-02   max: -.5644E-01   C at   45  1
       a =  6.000      CL =  0.7885
      Cm = -0.0126     CD =  0.01069   =>   CDf =  0.00593    CDp =  0.00476

 Side 1  free  transition at x/c =  0.3760   45
 Side 2 forced transition at x/c =  1.0000   74

 114   rms: 0.3152E-02   max: -.5643E-01   C at   45  1
       a =  6.000      CL =  0.7885
      Cm = -0.0126     CD =  0.01069   =>   CDf =  0.00593    CDp =  0.00476

 Side 1  free  transition at x/c =  0.3760   45
 Side 2 forced transition at x/c =  1.0000   74

 115   rms: 0.3152E-02   max: -.5643E-01   C at   45  1
       a =  6.000      CL =  0.7885
      Cm = -0.0126     CD =  0.01069   =>   CDf =  0.00593    CDp =  0.00476

 Side 1  free  transition at x/c =  0.3760   45
 Side 2 forced transition at x/c =  1.0000   74

 116   rms: 0.3152E-02   max: -.5644E-01   C at   45  1
       a =  6.000      CL =  0.7885
      Cm = -0.0126     CD =  0.01069   =>   CDf =  0.00593    CDp =  0.00476

 Side 1  free  transition at x/c =  0.3760   45
 Side 2 forced transition at x/c =  1.0000   74

 117   rms: 0.3151E-02   max: -.5643E-01   C at   45  1
       a =  6.000      CL =  0.7885
      Cm = -0.0126     CD =  0.01069   =>   CDf =  0.00593    CDp =  0.00476

 Side 1  free  transition at x/c =  0.3760   45
 Side 2 forced transition at x/c =  1.0000   74

 118   rms: 0.3152E-02   max: -.5644E-01   C at   45  1
       a =  6.000      CL =  0.7885
      Cm = -0.0126     CD =  0.01069   =>   CDf =  0.00593    CDp =  0.00476

 Side 1  free  transition at x/c =  0.3760   45
 Side 2 forced transition at x/c =  1.0000   74

 119   rms: 0.3151E-02   max: -.5642E-01   C at   45  1
       a =  6.000      CL =  0.7885
      Cm = -0.0126     CD =  0.01069   =>   CDf =  0.00593    CDp =  0.00476

 Side 1  free  transition at x/c =  0.3760   45
 Side 2 forced transition at x/c =  1.0000   74

 120   rms: 0.3151E-02   max: -.5642E-01   C at   45  1
       a =  6.000      CL =  0.7885
      Cm = -0.0126     CD =  0.01069   =>   CDf =  0.00593    CDp =  0.00476

 Side 1  free  transition at x/c =  0.3760   45
 Side 2 forced transition at x/c =  1.0000   74

 121   rms: 0.3152E-02   max: -.5643E-01   C at   45  1
       a =  6.000      CL =  0.7885
      Cm = -0.0126     CD =  0.01069   =>   CDf =  0.00593    CDp =  0.00476

 Side 1  free  transition at x/c =  0.3760   45
 Side 2 forced transition at x/c =  1.0000   74

 122   rms: 0.3152E-02   max: -.5643E-01   C at   45  1
       a =  6.000      CL =  0.7885
      Cm = -0.0126     CD =  0.01069   =>   CDf =  0.00593    CDp =  0.00476

 Side 1  free  transition at x/c =  0.3760   45
 Side 2 forced transition at x/c =  1.0000   74

 123   rms: 0.3152E-02   max: -.5643E-01   C at   45  1
       a =  6.000      CL =  0.7885
      Cm = -0.0126     CD =  0.01069   =>   CDf =  0.00593    CDp =  0.00476

 Side 1  free  transition at x/c =  0.3760   45
 Side 2 forced transition at x/c =  1.0000   74

 124   rms: 0.3151E-02   max: -.5643E-01   C at   45  1
       a =  6.000      CL =  0.7885
      Cm = -0.0126     CD =  0.01069   =>   CDf =  0.00593    CDp =  0.00476

 Side 1  free  transition at x/c =  0.3760   45
 Side 2 forced transition at x/c =  1.0000   74

 125   rms: 0.3152E-02   max: -.5644E-01   C at   45  1
       a =  6.000      CL =  0.7885
      Cm = -0.0126     CD =  0.01069   =>   CDf =  0.00593    CDp =  0.00476

 Side 1  free  transition at x/c =  0.3760   45
 Side 2 forced transition at x/c =  1.0000   74

 126   rms: 0.3151E-02   max: -.5642E-01   C at   45  1
       a =  6.000      CL =  0.7885
      Cm = -0.0126     CD =  0.01069   =>   CDf =  0.00593    CDp =  0.00476

 Side 1  free  transition at x/c =  0.3760   45
 Side 2 forced transition at x/c =  1.0000   74

 127   rms: 0.3152E-02   max: -.5643E-01   C at   45  1
       a =  6.000      CL =  0.7885
      Cm = -0.0126     CD =  0.01069   =>   CDf =  0.00593    CDp =  0.00476

 Side 1  free  transition at x/c =  0.3760   45
 Side 2 forced transition at x/c =  1.0000   74

 128   rms: 0.3152E-02   max: -.5644E-01   C at   45  1
       a =  6.000      CL =  0.7885
      Cm = -0.0126     CD =  0.01069   =>   CDf =  0.00593    CDp =  0.00476

 Side 1  free  transition at x/c =  0.3760   45
 Side 2 forced transition at x/c =  1.0000   74

 129   rms: 0.3152E-02   max: -.5643E-01   C at   45  1
       a =  6.000      CL =  0.7885
      Cm = -0.0126     CD =  0.01069   =>   CDf =  0.00593    CDp =  0.00476

 Side 1  free  transition at x/c =  0.3760   45
 Side 2 forced transition at x/c =  1.0000   74

 130   rms: 0.3152E-02   max: -.5644E-01   C at   45  1
       a =  6.000      CL =  0.7885
      Cm = -0.0126     CD =  0.01069   =>   CDf =  0.00593    CDp =  0.00476

 Side 1  free  transition at x/c =  0.3760   45
 Side 2 forced transition at x/c =  1.0000   74

 131   rms: 0.3152E-02   max: -.5644E-01   C at   45  1
       a =  6.000      CL =  0.7885
      Cm = -0.0126     CD =  0.01069   =>   CDf =  0.00593    CDp =  0.00476

 Side 1  free  transition at x/c =  0.3760   45
 Side 2 forced transition at x/c =  1.0000   74

 132   rms: 0.3151E-02   max: -.5643E-01   C at   45  1
       a =  6.000      CL =  0.7885
      Cm = -0.0126     CD =  0.01069   =>   CDf =  0.00593    CDp =  0.00476

[...]
       a = 16.000      CL =  0.8560
      Cm = -0.0111     CD =  0.14161   =>   CDf =  0.00308    CDp =  0.13853

 Side 1  free  transition at x/c =  0.0253   24
 Side 2 forced transition at x/c =  1.0000   69

  82   rms: 0.3313E-01   max: 0.1823E+00   D at   34  1
       a = 16.000      CL =  0.8570
      Cm = -0.0109     CD =  0.14101   =>   CDf =  0.00309    CDp =  0.13792

 Side 1  free  transition at x/c =  0.0253   24
 Side 2 forced transition at x/c =  1.0000   69

  83   rms: 0.3190E-01   max: 0.1651E+00   D at   33  1
       a = 16.000      CL =  0.8560
      Cm = -0.0111     CD =  0.14161   =>   CDf =  0.00308    CDp =  0.13853

 Side 1  free  transition at x/c =  0.0253   24
 Side 2 forced transition at x/c =  1.0000   69

  84   rms: 0.3312E-01   max: 0.1824E+00   D at   34  1
       a = 16.000      CL =  0.8570
      Cm = -0.0109     CD =  0.14101   =>   CDf =  0.00309    CDp =  0.13792

 Side 1  free  transition at x/c =  0.0253   24
 Side 2 forced transition at x/c =  1.0000   69

  85   rms: 0.3187E-01   max: 0.1651E+00   D at   33  1
       a = 16.000      CL =  0.8560
      Cm = -0.0111     CD =  0.14161   =>   CDf =  0.00308    CDp =  0.13853

 Side 1  free  transition at x/c =  0.0253   24
 Side 2 forced transition at x/c =  1.0000   69

  86   rms: 0.3323E-01   max: 0.1833E+00   D at   34  1
       a = 16.000      CL =  0.8570
      Cm = -0.0109     CD =  0.14102   =>   CDf =  0.00309    CDp =  0.13793

 Side 1  free  transition at x/c =  0.0253   24
 Side 2 forced transition at x/c =  1.0000   69

  87   rms: 0.3174E-01   max: 0.1646E+00   D at   33  1
       a = 16.000      CL =  0.8560
      Cm = -0.0111     CD =  0.14156   =>   CDf =  0.00308    CDp =  0.13847

 Side 1  free  transition at x/c =  0.0253   24
 Side 2 forced transition at x/c =  1.0000   69

  88   rms: 0.3302E-01   max: 0.1818E+00   D at   34  1
       a = 16.000      CL =  0.8570
      Cm = -0.0109     CD =  0.14099   =>   CDf =  0.00309    CDp =  0.13790

 Side 1  free  transition at x/c =  0.0253   24
 Side 2 forced transition at x/c =  1.0000   69

  89   rms: 0.3186E-01   max: 0.1651E+00   D at   33  1
       a = 16.000      CL =  0.8560
      Cm = -0.0111     CD =  0.14160   =>   CDf =  0.00308    CDp =  0.13852

 Side 1  free  transition at x/c =  0.0253   24
 Side 2 forced transition at x/c =  1.0000   69

  90   rms: 0.3294E-01   max: 0.1810E+00   D at   34  1
       a = 16.000      CL =  0.8569
      Cm = -0.0109     CD =  0.14095   =>   CDf =  0.00309    CDp =  0.13786

 Side 1  free  transition at x/c =  0.0253   24
 Side 2 forced transition at x/c =  1.0000   69

  91   rms: 0.3186E-01   max: 0.1654E+00   D at   33  1
       a = 16.000      CL =  0.8560
      Cm = -0.0111     CD =  0.14158   =>   CDf =  0.00308    CDp =  0.13850

 Side 1  free  transition at x/c =  0.0253   24
 Side 2 forced transition at x/c =  1.0000   69

  92   rms: 0.3307E-01   max: 0.1818E+00   D at   34  1
       a = 16.000      CL =  0.8570
      Cm = -0.0109     CD =  0.14101   =>   CDf =  0.00309    CDp =  0.13792

 Side 1  free  transition at x/c =  0.0253   24
 Side 2 forced transition at x/c =  1.0000   69

  93   rms: 0.3182E-01   max: 0.1650E+00   D at   33  1
       a = 16.000      CL =  0.8560
      Cm = -0.0111     CD =  0.14157   =>   CDf =  0.00308    CDp =  0.13849

 Side 1  free  transition at x/c =  0.0253   24
 Side 2 forced transition at x/c =  1.0000   69

  94   rms: 0.3296E-01   max: 0.1811E+00   D at   34  1
       a = 16.000      CL =  0.8569
      Cm = -0.0109     CD =  0.14099   =>   CDf =  0.00309    CDp =  0.13790

 Side 1  free  transition at x/c =  0.0253   24
 Side 2 forced transition at x/c =  1.0000   69

  95   rms: 0.3185E-01   max: 0.1654E+00   D at   33  1
       a = 16.000      CL =  0.8560
      Cm = -0.0111     CD =  0.14158   =>   CDf =  0.00308    CDp =  0.13849

 Side 1  free  transition at x/c =  0.0253   24
 Side 2 forced transition at x/c =  1.0000   69

  96   rms: 0.3304E-01   max: 0.1815E+00   D at   34  1
       a = 16.000      CL =  0.8570
      Cm = -0.0109     CD =  0.14100   =>   CDf =  0.00309    CDp =  0.13791

 Side 1  free  transition at x/c =  0.0253   24
 Side 2 forced transition at x/c =  1.0000   69

  97   rms: 0.3187E-01   max: 0.1655E+00   D at   33  1
       a = 16.000      CL =  0.8560
      Cm = -0.0111     CD =  0.14158   =>   CDf =  0.00308    CDp =  0.13850

 Side 1  free  transition at x/c =  0.0253   24
 Side 2 forced transition at x/c =  1.0000   69

  98   rms: 0.3299E-01   max: 0.1811E+00   D at   34  1
       a = 16.000      CL =  0.8569
      Cm = -0.0109     CD =  0.14099   =>   CDf =  0.00309    CDp =  0.13790

 Side 1  free  transition at x/c =  0.0253   24
 Side 2 forced transition at x/c =  1.0000   69

  99   rms: 0.3192E-01   max: 0.1656E+00   D at   33  1
       a = 16.000      CL =  0.8560
      Cm = -0.0111     CD =  0.14161   =>   CDf =  0.00308    CDp =  0.13853

 Side 1  free  transition at x/c =  0.0253   24
 Side 2 forced transition at x/c =  1.0000   69

 100   rms: 0.3314E-01   max: 0.1824E+00   D at   34  1
       a = 16.000      CL =  0.8570
      Cm = -0.0109     CD =  0.14100   =>   CDf =  0.00309    CDp =  0.13791

 Side 1  free  transition at x/c =  0.0253   24
 Side 2 forced transition at x/c =  1.0000   69

 101   rms: 0.3185E-01   max: 0.1651E+00   D at   33  1
       a = 16.000      CL =  0.8560
      Cm = -0.0111     CD =  0.14159   =>   CDf =  0.00308    CDp =  0.13851

 Side 1  free  transition at x/c =  0.0253   24
 Side 2 forced transition at x/c =  1.0000   69

 102   rms: 0.3306E-01   max: 0.1819E+00   D at   34  1
       a = 16.000      CL =  0.8570
      Cm = -0.0109     CD =  0.14100   =>   CDf =  0.00309    CDp =  0.13791

 Side 1  free  transition at x/c =  0.0253   24
 Side 2 forced transition at x/c =  1.0000   69

 103   rms: 0.3200E-01   max: 0.1660E+00   D at   33  1
       a = 16.000      CL =  0.8560
      Cm = -0.0111     CD =  0.14162   =>   CDf =  0.00308    CDp =  0.13854

 Side 1  free  transition at x/c =  0.0253   24
 Side 2 forced transition at x/c =  1.0000   69

 104   rms: 0.3343E-01   max: 0.1845E+00   D at   34  1
       a = 16.000      CL =  0.8570
      Cm = -0.0109     CD =  0.14108   =>   CDf =  0.00309    CDp =  0.13799

 Side 1  free  transition at x/c =  0.0253   24
 Side 2 forced transition at x/c =  1.0000   69

 105   rms: 0.3190E-01   max: 0.1650E+00   D at   33  1
       a = 16.000      CL =  0.8560
      Cm = -0.0111     CD =  0.14162   =>   CDf =  0.00308    CDp =  0.13854

 Side 1  free  transition at x/c =  0.0253   24
 Side 2 forced transition at x/c =  1.0000   69

 106   rms: 0.3326E-01   max: 0.1837E+00   D at   34  1
       a = 16.000      CL =  0.8570
      Cm = -0.0109     CD =  0.14101   =>   CDf =  0.00309    CDp =  0.13792

 Side 1  free  transition at x/c =  0.0253   24
 Side 2 forced transition at x/c =  1.0000   69

 107   rms: 0.3181E-01   max: 0.1644E+00   D at   33  1
       a = 16.000      CL =  0.8560
      Cm = -0.0111     CD =  0.14164   =>   CDf =  0.00308    CDp =  0.13855

 Side 1  free  transition at x/c =  0.0253   24
 Side 2 forced transition at x/c =  1.0000   69

 108   rms: 0.3359E-01   max: 0.1862E+00   D at   34  1
       a = 16.000      CL =  0.8571
      Cm = -0.0109     CD =  0.14109   =>   CDf =  0.00309    CDp =  0.13800

 Side 1  free  transition at x/c =  0.0253   24
 Side 2 forced transition at x/c =  1.0000   69

 109   rms: 0.3182E-01   max: 0.1645E+00   D at   33  1
       a = 16.000      CL =  0.8560
      Cm = -0.0111     CD =  0.14161   =>   CDf =  0.00308    CDp =  0.13853

 Side 1  free  transition at x/c =  0.0253   24
 Side 2 forced transition at x/c =  1.0000   69

 110   rms: 0.3325E-01   max: 0.1839E+00   D at   34  1
       a = 16.000      CL =  0.8570
      Cm = -0.0109     CD =  0.14099   =>   CDf =  0.00309    CDp =  0.13791

 Side 1  free  transition at x/c =  0.0253   24
 Side 2 forced transition at x/c =  1.0000   69

 111   rms: 0.3168E-01   max: 0.1638E+00   D at   33  1
       a = 16.000      CL =  0.8560
      Cm = -0.0111     CD =  0.14159   =>   CDf =  0.00308    CDp =  0.13851

 Side 1  free  transition at x/c =  0.0253   24
 Side 2 forced transition at x/c =  1.0000   69

 112   rms: 0.3299E-01   max: 0.1821E+00   D at   34  1
       a = 16.000      CL =  0.8570
      Cm = -0.0108     CD =  0.14093   =>   CDf =  0.00309    CDp =  0.13784

 Side 1  free  transition at x/c =  0.0253   24
 Side 2 forced transition at x/c =  1.0000   69

 113   rms: 0.3181E-01   max: 0.1649E+00   D at   33  1
       a = 16.000      CL =  0.8560
      Cm = -0.0111     CD =  0.14159   =>   CDf =  0.00308    CDp =  0.13851

 Side 1  free  transition at x/c =  0.0253   24
 Side 2 forced transition at x/c =  1.0000   69

 114   rms: 0.3298E-01   max: 0.1813E+00   D at   34  1
       a = 16.000      CL =  0.8569
      Cm = -0.0108     CD =  0.14098   =>   CDf =  0.00309    CDp =  0.13789

 Side 1  free  transition at x/c =  0.0253   24
 Side 2 forced transition at x/c =  1.0000   69

 115   rms: 0.3193E-01   max: 0.1652E+00   D at   33  1
       a = 16.000      CL =  0.8560
      Cm = -0.0111     CD =  0.14162   =>   CDf =  0.00308    CDp =  0.13854

 Side 1  free  transition at x/c =  0.0253   24
 Side 2 forced transition at x/c =  1.0000   69

 116   rms: 0.3305E-01   max: 0.1819E+00   D at   34  1
       a = 16.000      CL =  0.8570
      Cm = -0.0109     CD =  0.14098   =>   CDf =  0.00309    CDp =  0.13789

 Side 1  free  transition at x/c =  0.0253   24
 Side 2 forced transition at x/c =  1.0000   69

 117   rms: 0.3188E-01   max: 0.1654E+00   D at   33  1
       a = 16.000      CL =  0.8560
      Cm = -0.0111     CD =  0.14160   =>   CDf =  0.00308    CDp =  0.13852

 Side 1  free  transition at x/c =  0.0253   24
 Side 2 forced transition at x/c =  1.0000   69

 118   rms: 0.3285E-01   max: 0.1803E+00   D at   34  1
       a = 16.000      CL =  0.8569
      Cm = -0.0109     CD =  0.14093   =>   CDf =  0.00309    CDp =  0.13784

 Side 1  free  transition at x/c =  0.0253   24
 Side 2 forced transition at x/c =  1.0000   69

 119   rms: 0.3189E-01   max: 0.1656E+00   D at   33  1
       a = 16.000      CL =  0.8560
      Cm = -0.0111     CD =  0.14158   =>   CDf =  0.00308    CDp =  0.13850

 Side 1  free  transition at x/c =  0.0253   24
 Side 2 forced transition at x/c =  1.0000   69

 120   rms: 0.3289E-01   max: 0.1802E+00   D at   34  1
       a = 16.000      CL =  0.8569
      Cm = -0.0108     CD =  0.14096   =>   CDf =  0.00309    CDp =  0.13787

 Side 1  free  transition at x/c =  0.0253   24
 Side 2 forced transition at x/c =  1.0000   69

 121   rms: 0.3206E-01   max: 0.1662E+00   D at   33  1
       a = 16.000      CL =  0.8560
      Cm = -0.0111     CD =  0.14163   =>   CDf =  0.00308    CDp =  0.13855

 Side 1  free  transition at x/c =  0.0253   24
 Side 2 forced transition at x/c =  1.0000   69

 122   rms: 0.3298E-01   max: 0.1810E+00   D at   34  1
       a = 16.000      CL =  0.8569
      Cm = -0.0108     CD =  0.14097   =>   CDf =  0.00309    CDp =  0.13788

 Side 1  free  transition at x/c =  0.0253   24
 Side 2 forced transition at x/c =  1.0000   69

 123   rms: 0.3200E-01   max: 0.1660E+00   D at   33  1
       a = 16.000      CL =  0.8560
      Cm = -0.0111     CD =  0.14162   =>   CDf =  0.00308    CDp =  0.13854

 Side 1  free  transition at x/c =  0.0253   24
 Side 2 forced transition at x/c =  1.0000   69

 124   rms: 0.3300E-01   max: 0.1814E+00   D at   34  1
       a = 16.000      CL =  0.8570
      Cm = -0.0109     CD =  0.14094   =>   CDf =  0.00309    CDp =  0.13785

 Side 1  free  transition at x/c =  0.0253   24
 Side 2 forced transition at x/c =  1.0000   69

 125   rms: 0.3188E-01   max: 0.1655E+00   D at   33  1
       a = 16.000      CL =  0.8560
      Cm = -0.0111     CD =  0.14159   =>   CDf =  0.00308    CDp =  0.13851

 Side 1  free  transition at x/c =  0.0253   24
 Side 2 forced transition at x/c =  1.0000   69

 126   rms: 0.3330E-01   max: 0.1836E+00   D at   34  1
       a = 16.000      CL =  0.8570
      Cm = -0.0109     CD =  0.14105   =>   CDf =  0.00309    CDp =  0.13796

 Side 1  free  transition at x/c =  0.0253   24
 Side 2 forced transition at x/c =  1.0000   69

 127   rms: 0.3176E-01   max: 0.1645E+00   D at   33  1
       a = 16.000      CL =  0.8560
      Cm = -0.0111     CD =  0.14157   =>   CDf =  0.00308    CDp =  0.13849

 Side 1  free  transition at x/c =  0.0253   24
 Side 2 forced transition at x/c =  1.0000   69

 128   rms: 0.3308E-01   max: 0.1824E+00   D at   34  1
       a = 16.000      CL =  0.8570
      Cm = -0.0109     CD =  0.14099   =>   CDf =  0.00309    CDp =  0.13790

 Side 1  free  transition at x/c =  0.0253   24
 Side 2 forced transition at x/c =  1.0000   69

 129   rms: 0.3180E-01   max: 0.1648E+00   D at   33  1
       a = 16.000      CL =  0.8560
      Cm = -0.0111     CD =  0.14160   =>   CDf =  0.00308    CDp =  0.13851

 Side 1  free  transition at x/c =  0.0253   24
 Side 2 forced transition at x/c =  1.0000   69

 130   rms: 0.3286E-01   max: 0.1807E+00   D at   34  1
       a = 16.000      CL =  0.8569
      Cm = -0.0109     CD =  0.14091   =>   CDf =  0.00309    CDp =  0.13782

 Side 1  free  transition at x/c =  0.0253   24
 Side 2 forced transition at x/c =  1.0000   69

 131   rms: 0.3186E-01   max: 0.1656E+00   D at   33  1
       a = 16.000      CL =  0.8560
      Cm = -0.0111     CD =  0.14158   =>   CDf =  0.00308    CDp =  0.13850

 Side 1  free  transition at x/c =  0.0253   24
 Side 2 forced transition at x/c =  1.0000   69

 132   rms: 0.3290E-01   max: 0.1806E+00   D at   34  1
       a = 16.000      CL =  0.8569
      Cm = -0.0109     CD =  0.14094   =>   CDf =  0.00309    CDp =  0.13785

 Side 1  free  transition at x/c =  0.0253   24
 Side 2 forced transition at x/c =  1.0000   69

 133   rms: 0.3197E-01   max: 0.1662E+00   D at   33  1
       a = 16.000      CL =  0.8560
      Cm = -0.0111     CD =  0.14160   =>   CDf =  0.00308    CDp =  0.13852

 Side 1  free  transition at x/c =  0.0253   24
 Side 2 forced transition at x/c =  1.0000   69

 134   rms: 0.3315E-01   max: 0.1824E+00   D at   34  1
       a = 16.000      CL =  0.8570
      Cm = -0.0109     CD =  0.14101   =>   CDf =  0.00309    CDp =  0.13792

 Side 1  free  transition at x/c =  0.0253   24
 Side 2 forced transition at x/c =  1.0000   69

 135   rms: 0.3179E-01   max: 0.1651E+00   D at   33  1
       a = 16.000      CL =  0.8560
      Cm = -0.0111     CD =  0.14156   =>   CDf =  0.00308    CDp =  0.13847

 Side 1  free  transition at x/c =  0.0253   24
 Side 2 forced transition at x/c =  1.0000   69

 136   rms: 0.3302E-01   max: 0.1816E+00   D at   34  1
       a = 16.000      CL =  0.8570
      Cm = -0.0109     CD =  0.14099   =>   CDf =  0.00309    CDp =  0.13790

 Side 1  free  transition at x/c =  0.0253   24
 Side 2 forced transition at x/c =  1.0000   69

 137   rms: 0.3189E-01   max: 0.1655E+00   D at   33  1
       a = 16.000      CL =  0.8560
      Cm = -0.0111     CD =  0.14160   =>   CDf =  0.00308    CDp =  0.13852

 Side 1  free  transition at x/c =  0.0253   24
 Side 2 forced transition at x/c =  1.0000   69

 138   rms: 0.3309E-01   max: 0.1820E+00   D at   34  1
       a = 16.000      CL =  0.8570
      Cm = -0.0108     CD =  0.14100   =>   CDf =  0.00309    CDp =  0.13791

 Side 1  free  transition at x/c =  0.0253   24
 Side 2 forced transition at x/c =  1.0000   69

 139   rms: 0.3206E-01   max: 0.1658E+00   D at   33  1
       a = 16.000      CL =  0.8560
      Cm = -0.0111     CD =  0.14167   =>   CDf =  0.00308    CDp =  0.13858

 Side 1  free  transition at x/c =  0.0253   24
 Side 2 forced transition at x/c =  1.0000   69

 140   rms: 0.3309E-01   max: 0.1822E+00   D at   34  1
       a = 16.000      CL =  0.8570
      Cm = -0.0109     CD =  0.14095   =>   CDf =  0.00309    CDp =  0.13786

 Side 1  free  transition at x/c =  0.0253   24
 Side 2 forced transition at x/c =  1.0000   69

 141   rms: 0.3180E-01   max: 0.1655E+00   D at   33  1
       a = 16.000      CL =  0.8560
      Cm = -0.0111     CD =  0.14155   =>   CDf =  0.00308    CDp =  0.13847

 Side 1  free  transition at x/c =  0.0253   24
 Side 2 forced transition at x/c =  1.0000   69

 142   rms: 0.3306E-01   max: 0.1818E+00   D at   34  1
       a = 16.000      CL =  0.8570
      Cm = -0.0109     CD =  0.14100   =>   CDf =  0.00309    CDp =  0.13791

 Side 1  free  transition at x/c =  0.0253   24
 Side 2 forced transition at x/c =  1.0000   69

 143   rms: 0.3176E-01   max: 0.1648E+00   D at   33  1
       a = 16.000      CL =  0.8560
      Cm = -0.0111     CD =  0.14156   =>   CDf =  0.00308    CDp =  0.13847

 Side 1  free  transition at x/c =  0.0253   24
 Side 2 forced transition at x/c =  1.0000   69

 144   rms: 0.3294E-01   max: 0.1809E+00   D at   34  1
       a = 16.000      CL =  0.8569
      Cm = -0.0109     CD =  0.14098   =>   CDf =  0.00309    CDp =  0.13789

 Side 1  free  transition at x/c =  0.0253   24
 Side 2 forced transition at x/c =  1.0000   69

 145   rms: 0.3192E-01   max: 0.1656E+00   D at   33  1
       a = 16.000      CL =  0.8560
      Cm = -0.0111     CD =  0.14162   =>   CDf =  0.00308    CDp =  0.13854

 Side 1  free  transition at x/c =  0.0253   24
 Side 2 forced transition at x/c =  1.0000   69

 146   rms: 0.3306E-01   max: 0.1817E+00   D at   34  1
       a = 16.000      CL =  0.8570
      Cm = -0.0109     CD =  0.14098   =>   CDf =  0.00309    CDp =  0.13789

 Side 1  free  transition at x/c =  0.0253   24
 Side 2 forced transition at x/c =  1.0000   69

 147   rms: 0.3184E-01   max: 0.1652E+00   D at   33  1
       a = 16.000      CL =  0.8560
      Cm = -0.0111     CD =  0.14159   =>   CDf =  0.00308    CDp =  0.13851

 Side 1  free  transition at x/c =  0.0253   24
 Side 2 forced transition at x/c =  1.0000   69

 148   rms: 0.3300E-01   max: 0.1816E+00   D at   34  1
       a = 16.000      CL =  0.8570
      Cm = -0.0109     CD =  0.14097   =>   CDf =  0.00309    CDp =  0.13788

 Side 1  free  transition at x/c =  0.0253   24
 Side 2 forced transition at x/c =  1.0000   69

 149   rms: 0.3190E-01   max: 0.1656E+00   D at   33  1
       a = 16.000      CL =  0.8560
      Cm = -0.0111     CD =  0.14160   =>   CDf =  0.00308    CDp =  0.13852

 Side 1  free  transition at x/c =  0.0253   24
 Side 2 forced transition at x/c =  1.0000   69

 150   rms: 0.3305E-01   max: 0.1817E+00   D at   34  1
       a = 16.000      CL =  0.8570
      Cm = -0.0109     CD =  0.14098   =>   CDf =  0.00309    CDp =  0.13789

 Side 1  free  transition at x/c =  0.0253   24
 Side 2 forced transition at x/c =  1.0000   69

 151   rms: 0.3200E-01   max: 0.1658E+00   D at   33  1
       a = 16.000      CL =  0.8560
      Cm = -0.0111     CD =  0.14164   =>   CDf =  0.00308    CDp =  0.13856

 Side 1  free  transition at x/c =  0.0253   24
 Side 2 forced transition at x/c =  1.0000   69

 152   rms: 0.3289E-01   max: 0.1805E+00   D at   34  1
       a = 16.000      CL =  0.8569
      Cm = -0.0108     CD =  0.14092   =>   CDf =  0.00309    CDp =  0.13783

 Side 1  free  transition at x/c =  0.0253   24
 Side 2 forced transition at x/c =  1.0000   69

 153   rms: 0.3197E-01   max: 0.1661E+00   D at   33  1
       a = 16.000      CL =  0.8560
      Cm = -0.0111     CD =  0.14161   =>   CDf =  0.00308    CDp =  0.13852

 Side 1  free  transition at x/c =  0.0253   24
 Side 2 forced transition at x/c =  1.0000   69

 154   rms: 0.3274E-01   max: 0.1791E+00   D at   34  1
       a = 16.000      CL =  0.8569
      Cm = -0.0108     CD =  0.14091   =>   CDf =  0.00309    CDp =  0.13782

 Side 1  free  transition at x/c =  0.0253   24
 Side 2 forced transition at x/c =  1.0000   69

 155   rms: 0.3211E-01   max: 0.1667E+00   D at   33  1
       a = 16.000      CL =  0.8560
      Cm = -0.0112     CD =  0.14163   =>   CDf =  0.00308    CDp =  0.13855
 VISCAL:  Convergence failed

.OPERva   c>  
 Polar accumulation disabled

.OPERv   c>  
 XFOIL   c>  
 XFOIL   c>  