
 ===================================================
  XFOIL Version 6.99
  Copyright (C) 2000   Mark Drela, Harold Youngren

  This software comes with ABSOLUTELY NO WARRANTY,
    subject to the GNU General Public License.

  Caveat computor
 ===================================================

 File  xfoil.def  not found

   QUIT    Exit program

  .OPER    Direct operating point(s)
  .MDES    Complex mapping design routine
  .QDES    Surface speed design routine
  .GDES    Geometry design routine

   SAVE f  Write airfoil to labeled coordinate file
   PSAV f  Write airfoil to plain coordinate file
   ISAV f  Write airfoil to ISES coordinate file
   MSAV f  Write airfoil to MSES coordinate file
   REVE    Reverse written-airfoil node ordering

   LOAD f  Read buffer airfoil from coordinate file
   NACA i  Set NACA 4,5-digit airfoil and buffer airfoil
   INTE    Set buffer airfoil by interpolating two airfoils
   NORM    Buffer airfoil normalization toggle
   XYCM rr Change CM reference location, currently  0.25000 0.00000

   BEND    Display structural properties of current airfoil

   PCOP    Set current-airfoil panel nodes directly from buffer airfoil points
   PANE    Set current-airfoil panel nodes ( 160 ) based on curvature
  .PPAR    Show/change paneling

  .PLOP    Plotting options

   WDEF f  Write  current-settings file
   RDEF f  Reread current-settings file
   NAME s  Specify new airfoil name
   NINC    Increment name version number

   Z       Zoom    | (available in all menus)
   U       Unzoom  | 

 XFOIL   c>  
 Labeled airfoil file.  Name:  RG-12                                           

 Number of input coordinate points:  62
 Counterclockwise ordering
 Max thickness =     0.092659  at x =   0.309
 Max camber    =     0.013855  at x =   0.358

  LE  x,y  =  -0.00000  -0.00002  |   Chord =   1.00000
  TE  x,y  =   1.00000   0.00000  |

 Current airfoil nodes set from buffer airfoil nodes (  62 )

 XFOIL   c>  
 XFOIL   c>  
 Sharp trailing edge

 Paneling parameters used...
   Number of panel nodes       160
   Panel bunching parameter    1.000
   TE/LE panel density ratio   0.150
   Refined-area/LE panel density ratio    0.200
   Top    side refined area x/c limits  1.000 1.000
   Bottom side refined area x/c limits  1.000 1.000

 XFOIL   c>  
.OPERi   c>  
 Xtr/c     =  1.0000    top    side
 Xtr/c     =  1.0000    bottom side
 Ncrit     =    9.00   ( 0.070 % turb. level )
 Vacc      =  0.0100

 Klag  =  5.6000     Uxwt  =    1.00
 A     =  6.7000     B     =  0.7500       KCt = 0.01485
 CtiniK=  1.8000     CtiniX=  3.3000

..VPAR   c>  
..VPAR   c>  
.OPERi   c>  
 M  =    0.0000
 Re =    150000

.OPERv   c>  
.OPERv   c>  
.OPERv   c>  
 Polar  1 newly created for accumulation
 Airfoil archived with polar: RG-12                                           

Enter  polar save filename  OR  <return> for no file   s>  
 New polar save file available

Enter  polar dump filename  OR  <return> for no file   s>  
 Polar dump file will NOT be written

 Polar accumulation enabled

.OPERva   c>   Calculating unit vorticity distributions ...
 Calculating wake trajectory ...
 Calculating source influence matrix ...

 Solving BL system ...

 Initializing BL ...
    side            1  ...
 MRCHUE: Inverse mode at  68     Hk =   3.885
 MRCHUE: Inverse mode at  69     Hk =   4.125
 MRCHUE: Inverse mode at  70     Hk =   4.362
 MRCHUE: Inverse mode at  71     Hk =   4.596
 MRCHUE: Inverse mode at  72     Hk =   4.825
 MRCHUE: Inverse mode at  73     Hk =   5.048
 MRCHUE: Inverse mode at  74     Hk =   5.267
 MRCHUE: Convergence failed at  75  side 1    Res =  0.1822E+01
 MRCHUE: Convergence failed at  76  side 1    Res =  0.1659E+01
 MRCHUE: Inverse mode at  77     Hk =   5.362
    side            2  ...
 MRCHUE: Inverse mode at  10     Hk =   4.065
 MRCHUE: Inverse mode at  11     Hk =   4.919
 MRCHUE: Inverse mode at  12     Hk =   5.820
 MRCHUE: Inverse mode at  13     Hk =   6.798
 MRCHUE: Inverse mode at  14     Hk =   7.890
 MRCHUE: Inverse mode at  15     Hk =   9.059
 MRCHUE: Inverse mode at  16     Hk =  10.182
 MRCHUE: Inverse mode at  17     Hk =   8.710
 MRCHUE: Inverse mode at  18     Hk =   5.056
 MRCHUE: Inverse mode at  19     Hk =   3.205

 MRCHDU: Convergence failed at  76  side 1    Res =  0.3936E+01
 MRCHDU: Convergence failed at  77  side 1    Res =  0.3248E+01
 Side 1 forced transition at x/c =  1.0000   77
 Side 2  free  transition at x/c =  0.0604   17

   1   rms: 0.2797E+00   max: 0.2328E+01   C at   77  1   RLX: 0.406
       a = -4.000      CL = -0.3358
      Cm = -0.0348     CD =  0.01482   =>   CDf =  0.00825    CDp =  0.00657

 Side 1 forced transition at x/c =  1.0000   77
 Side 2  free  transition at x/c =  0.0497   16

   2   rms: 0.1161E+00   max: -.5916E+00   D at   85  2   RLX: 0.845
       a = -4.000      CL = -0.4130
      Cm = -0.0130     CD =  0.01669   =>   CDf =  0.00825    CDp =  0.00843

 Side 1 forced transition at x/c =  1.0000   77
 Side 2  free  transition at x/c =  0.0478   16

   3   rms: 0.4360E-01   max: -.2539E+00   D at   19  2
       a = -4.000      CL = -0.3880
      Cm = -0.0169     CD =  0.01682   =>   CDf =  0.00830    CDp =  0.00851

 Side 1 forced transition at x/c =  1.0000   77
 Side 2  free  transition at x/c =  0.0519   17

   4   rms: 0.3322E-01   max: -.1258E+00   T at   17  2
       a = -4.000      CL = -0.3846
      Cm = -0.0176     CD =  0.01639   =>   CDf =  0.00840    CDp =  0.00799

 Side 1 forced transition at x/c =  1.0000   77
 Side 2  free  transition at x/c =  0.0539   17

   5   rms: 0.7110E-02   max: 0.6634E-01   D at   17  2
       a = -4.000      CL = -0.3846
      Cm = -0.0176     CD =  0.01664   =>   CDf =  0.00832    CDp =  0.00832

 Side 1 forced transition at x/c =  1.0000   77
 Side 2  free  transition at x/c =  0.0535   17

   6   rms: 0.1140E-03   max: -.8644E-03   D at   18  2
       a = -4.000      CL = -0.3845
      Cm = -0.0176     CD =  0.01664   =>   CDf =  0.00834    CDp =  0.00830

 Side 1 forced transition at x/c =  1.0000   77
 Side 2  free  transition at x/c =  0.0535   17

   7   rms: 0.1616E-05   max: 0.5408E-05   D at   73  1
       a = -4.000      CL = -0.3845
      Cm = -0.0176     CD =  0.01664   =>   CDf =  0.00834    CDp =  0.00830
 plradd ia,ip,cpol            1           0  9.82122845E-04

 Point added to stored polar  1
 Point written to save file  rg12_Re150k.base.pol                            
 Dump file unspecified or not available
 Calculating wake trajectory ...
 Calculating source influence matrix ...

 Solving BL system ...

 Side 1 forced transition at x/c =  1.0000   77
 Side 2  free  transition at x/c =  0.0535   17

   1   rms: 0.2181E+00   max: -.1634E+01   T at   17  2   RLX: 0.306
       a = -3.500      CL = -0.3728
      Cm = -0.0170     CD =  0.01524   =>   CDf =  0.00834    CDp =  0.00690

 Side 1 forced transition at x/c =  1.0000   77
 Side 2  free  transition at x/c =  0.0635   17

   2   rms: 0.1275E+00   max: -.1934E+01   T at   17  2   RLX: 0.258
       a = -3.500      CL = -0.3639
      Cm = -0.0167     CD =  0.01658   =>   CDf =  0.00834    CDp =  0.00824

 MRCHDU: Convergence failed at  19  side 2    Res =  0.3268E+01
 MRCHDU: Convergence failed at  20  side 2    Res =  0.3293E+01
 MRCHDU: Convergence failed at  21  side 2    Res =  0.3468E+01
 MRCHDU: Convergence failed at  22  side 2    Res =  0.3752E+01
 MRCHDU: Convergence failed at  23  side 2    Res =  0.4976E+01
 MRCHDU: Convergence failed at  24  side 2    Res =  0.6129E+01
 MRCHDU: Convergence failed at  25  side 2    Res =  0.7188E+01
 MRCHDU: Convergence failed at  26  side 2    Res =  0.8033E+01
 MRCHDU: Convergence failed at  27  side 2    Res =  0.8591E+01
 MRCHDU: Convergence failed at  28  side 2    Res =  0.8798E+01
 MRCHDU: Convergence failed at  29  side 2    Res =  0.8376E+01
 MRCHDU: Convergence failed at  30  side 2    Res =  0.7449E+01
 MRCHDU: Convergence failed at  31  side 2    Res =  0.7283E+01
 MRCHDU: Convergence failed at  32  side 2    Res =  0.6706E+01
 MRCHDU: Convergence failed at  33  side 2    Res =  0.6573E+01
 MRCHDU: Convergence failed at  34  side 2    Res =  0.6109E+01
 MRCHDU: Convergence failed at  35  side 2    Res =  0.4051E+02
 MRCHDU: Convergence failed at  36  side 2    Res =  0.5109E+02
 MRCHDU: Convergence failed at  37  side 2    Res =  0.7226E+02
 MRCHDU: Convergence failed at  38  side 2    Res =  0.9101E+02
 MRCHDU: Convergence failed at  39  side 2    Res =  0.1651E+03
 MRCHDU: Convergence failed at  40  side 2    Res =  0.3585E+03
 MRCHDU: Convergence failed at  41  side 2    Res =  0.6244E+03
 MRCHDU: Convergence failed at  42  side 2    Res =  0.1446E+03
 MRCHDU: Convergence failed at  43  side 2    Res =  0.8794E+02
 MRCHDU: Convergence failed at  44  side 2    Res =  0.6649E+02
 MRCHDU: Convergence failed at  45  side 2    Res =  0.5433E+02
 MRCHDU: Convergence failed at  46  side 2    Res =  0.4564E+02
 MRCHDU: Convergence failed at  47  side 2    Res =  0.4044E+02
 MRCHDU: Convergence failed at  48  side 2    Res =  0.3642E+02
 MRCHDU: Convergence failed at  49  side 2    Res =  0.3333E+02
 MRCHDU: Convergence failed at  50  side 2    Res =  0.3089E+02
 MRCHDU: Convergence failed at  51  side 2    Res =  0.2886E+02
 MRCHDU: Convergence failed at  52  side 2    Res =  0.2771E+02
 MRCHDU: Convergence failed at  53  side 2    Res =  0.2628E+02
 MRCHDU: Convergence failed at  54  side 2    Res =  0.2503E+02
 MRCHDU: Convergence failed at  55  side 2    Res =  0.1121E+02
 MRCHDU: Convergence failed at  56  side 2    Res =  0.1140E+02
 MRCHDU: Convergence failed at  57  side 2    Res =  0.1165E+02
 MRCHDU: Convergence failed at  58  side 2    Res =  0.1170E+02
 MRCHDU: Convergence failed at  59  side 2    Res =  0.1213E+02
 MRCHDU: Convergence failed at  60  side 2    Res =  0.1453E+02
 MRCHDU: Convergence failed at  61  side 2    Res =  0.1502E+02
 MRCHDU: Convergence failed at  62  side 2    Res =  0.1579E+02
 MRCHDU: Convergence failed at  63  side 2    Res =  0.1883E+02
 MRCHDU: Convergence failed at  64  side 2    Res =  0.1952E+02
 MRCHDU: Convergence failed at  65  side 2    Res =  0.1995E+02
 MRCHDU: Convergence failed at  66  side 2    Res =  0.2053E+02
 MRCHDU: Convergence failed at  67  side 2    Res =  0.2128E+02
 MRCHDU: Convergence failed at  68  side 2    Res =  0.2095E+02
 MRCHDU: Convergence failed at  69  side 2    Res =  0.2542E+02
 MRCHDU: Convergence failed at  70  side 2    Res =  0.3072E+02
 MRCHDU: Convergence failed at  71  side 2    Res =  0.2314E+02
 MRCHDU: Convergence failed at  72  side 2    Res =  0.3191E+02
 MRCHDU: Convergence failed at  73  side 2    Res =  0.5744E+02
 MRCHDU: Convergence failed at  74  side 2    Res =  0.2474E+02
 MRCHDU: Convergence failed at  75  side 2    Res =  0.3235E+03
 MRCHDU: Convergence failed at  76  side 2    Res =  0.3478E+02
 MRCHDU: Convergence failed at  77  side 2    Res =  0.2881E+02
 MRCHDU: Convergence failed at  78  side 2    Res =  0.3582E+02
 MRCHDU: Convergence failed at  79  side 2    Res =  0.1911E+02
 MRCHDU: Convergence failed at  80  side 2    Res =  0.3056E+02
 MRCHDU: Convergence failed at  81  side 2    Res =  0.3313E+02
 MRCHDU: Convergence failed at  82  side 2    Res =  0.1755E+02
 MRCHDU: Convergence failed at  83  side 2    Res =  0.4164E+02
 MRCHDU: Convergence failed at  84  side 2    Res =  0.3910E+02
 MRCHDU: Convergence failed at  85  side 2    Res =  0.2018E+02
 Side 1 forced transition at x/c =  1.0000   77
 Side 2  free  transition at x/c =  0.0758   18

   3   rms: 0.7674E+00   max: -.8094E+01   T at   18  2   RLX: 0.062
       a = -3.500      CL = -1.0913
      Cm =  0.2426     CD =  0.00775   =>   CDf =  0.00293    CDp =  0.00481

 Side 1 forced transition at x/c =  1.0000   77
 Side 2  free  transition at x/c =  0.0910   19

   4   rms: 0.4014E+00   max: -.1377E+01   T at   19  2   RLX: 0.363
       a = -3.500      CL = -0.6763
      Cm =  0.0934     CD =  0.02077   =>   CDf =  0.00824    CDp =  0.01253

 MRCHDU: Convergence failed at  58  side 2    Res =  0.4108E-01
 Side 1 forced transition at x/c =  1.0000   77
 Side 2  free  transition at x/c =  0.1108   21

   5   rms: 0.4330E+00   max: -.2324E+01   D at   24  2   RLX: 0.215
       a = -3.500      CL = -0.5984
      Cm =  0.0609     CD =  0.01916   =>   CDf =  0.00753    CDp =  0.01164

 MRCHDU: Convergence failed at  26  side 2    Res =  0.2136E+01
 MRCHDU: Convergence failed at  58  side 2    Res =  0.4325E-01
 Side 1 forced transition at x/c =  1.0000   77
 Side 2  free  transition at x/c =  0.1044   20

   6   rms: 0.5734E+00   max: 0.4332E+01   T at   20  2   RLX: 0.117
       a = -3.500      CL = -0.5937
      Cm =  0.0551     CD =  0.01899   =>   CDf =  0.00741    CDp =  0.01159

 MRCHDU: Convergence failed at  58  side 2    Res =  0.1936E-02
 Side 1 forced transition at x/c =  1.0000   77
 Side 2  free  transition at x/c =  0.0874   19

   7   rms: 0.3656E+00   max: 0.1739E+01   T at   19  2   RLX: 0.298
       a = -3.500      CL = -0.5458
      Cm =  0.0388     CD =  0.01769   =>   CDf =  0.00753    CDp =  0.01016

 MRCHDU: Convergence failed at  58  side 2    Res =  0.3980E-02
 Side 1 forced transition at x/c =  1.0000   77
 Side 2  free  transition at x/c =  0.0738   18

   8   rms: 0.3285E+00   max: -.1265E+01   D at   54  2   RLX: 0.395
       a = -3.500      CL = -0.4667
      Cm =  0.0142     CD =  0.01658   =>   CDf =  0.00763    CDp =  0.00896

 Side 1 forced transition at x/c =  1.0000   77
 Side 2  free  transition at x/c =  0.0856   19

   9   rms: 0.5734E+00   max: 0.5388E+01   T at   19  2   RLX: 0.159
       a = -3.500      CL = -0.4910
      Cm =  0.0154     CD =  0.01647   =>   CDf =  0.00787    CDp =  0.00860

 MRCHDU: Convergence failed at  19  side 2    Res =  0.7810E+01
 MRCHDU: Convergence failed at  20  side 2    Res =  0.6926E+01
 MRCHDU: Convergence failed at  21  side 2    Res =  0.1543E+02
 Side 1 forced transition at x/c =  1.0000   77
 Side 2  free  transition at x/c =  0.0660   18

  10   rms: 0.4376E+00   max: 0.4680E+01   T at   18  2   RLX: 0.321
       a = -3.500      CL = -0.5230
      Cm =  0.0156     CD =  0.01580   =>   CDf =  0.00788    CDp =  0.00792

 MRCHDU: Convergence failed at  18  side 2    Res =  0.1302E+02
 MRCHDU: Convergence failed at  19  side 2    Res =  0.4021E+01
 Side 1 forced transition at x/c =  1.0000   77
 Side 2  free  transition at x/c =  0.0529   17

  11   rms: 0.2034E+00   max: -.8131E+00   D at   84  2   RLX: 0.615
       a = -3.500      CL = -0.4688
      Cm =  0.0043     CD =  0.01639   =>   CDf =  0.00826    CDp =  0.00812

 Side 1 forced transition at x/c =  1.0000   77
 Side 2  free  transition at x/c =  0.0549   17

  12   rms: 0.1325E+00   max: -.1035E+01   T at   17  2   RLX: 0.483
       a = -3.500      CL = -0.4206
      Cm = -0.0025     CD =  0.01634   =>   CDf =  0.00835    CDp =  0.00799

 Side 1 forced transition at x/c =  1.0000   77
 Side 2  free  transition at x/c =  0.0641   17

  13   rms: 0.2532E+00   max: -.2820E+01   T at   17  2   RLX: 0.177
       a = -3.500      CL = -0.4054
      Cm = -0.0039     CD =  0.01924   =>   CDf =  0.00864    CDp =  0.01060

 MRCHDU: Convergence failed at  18  side 2    Res =  0.2484E+01
 MRCHDU: Convergence failed at  19  side 2    Res =  0.1060E+02
 MRCHDU: Convergence failed at  20  side 2    Res =  0.5843E+01
 MRCHDU: Convergence failed at  21  side 2    Res =  0.1401E+02
 MRCHDU: Convergence failed at  22  side 2    Res =  0.1842E+02
 MRCHDU: Convergence failed at  23  side 2    Res =  0.4725E+02
 MRCHDU: Convergence failed at  24  side 2    Res =  0.5161E+02
 MRCHDU: Convergence failed at  25  side 2    Res =  0.4742E+02
 MRCHDU: Convergence failed at  26  side 2    Res =  0.4776E+02
 MRCHDU: Convergence failed at  27  side 2    Res =  0.5079E+02
 MRCHDU: Convergence failed at  28  side 2    Res =  0.4670E+02
 MRCHDU: Convergence failed at  29  side 2    Res =  0.4213E+02
 MRCHDU: Convergence failed at  30  side 2    Res =  0.3794E+02
 MRCHDU: Convergence failed at  31  side 2    Res =  0.3477E+02
 MRCHDU: Convergence failed at  32  side 2    Res =  0.3199E+02
 MRCHDU: Convergence failed at  33  side 2    Res =  0.2994E+02
 MRCHDU: Convergence failed at  34  side 2    Res =  0.2816E+02
 MRCHDU: Convergence failed at  35  side 2    Res =  0.2650E+02
 MRCHDU: Convergence failed at  36  side 2    Res =  0.2534E+02
 MRCHDU: Convergence failed at  37  side 2    Res =  0.2431E+02
 MRCHDU: Convergence failed at  38  side 2    Res =  0.2346E+02
 MRCHDU: Convergence failed at  39  side 2    Res =  0.2284E+02
 MRCHDU: Convergence failed at  40  side 2    Res =  0.2227E+02
 MRCHDU: Convergence failed at  41  side 2    Res =  0.2186E+02
 MRCHDU: Convergence failed at  42  side 2    Res =  0.2166E+02
 MRCHDU: Convergence failed at  43  side 2    Res =  0.2188E+02
 MRCHDU: Convergence failed at  44  side 2    Res =  0.1768E+02
 MRCHDU: Convergence failed at  45  side 2    Res =  0.1791E+02
 MRCHDU: Convergence failed at  46  side 2    Res =  0.1795E+02
 MRCHDU: Convergence failed at  47  side 2    Res =  0.1782E+02
 MRCHDU: Convergence failed at  48  side 2    Res =  0.1761E+02
 MRCHDU: Convergence failed at  49  side 2    Res =  0.1728E+02
 MRCHDU: Convergence failed at  50  side 2    Res =  0.1703E+02
 MRCHDU: Convergence failed at  51  side 2    Res =  0.1675E+02
 MRCHDU: Convergence failed at  52  side 2    Res =  0.1644E+02
 MRCHDU: Convergence failed at  53  side 2    Res =  0.1610E+02
 MRCHDU: Convergence failed at  54  side 2    Res =  0.1569E+02
 MRCHDU: Convergence failed at  55  side 2    Res =  0.1516E+02
 MRCHDU: Convergence failed at  56  side 2    Res =  0.1460E+02
 MRCHDU: Convergence failed at  57  side 2    Res =  0.1278E+02
 MRCHDU: Convergence failed at  58  side 2    Res =  0.2019E+02
 MRCHDU: Convergence failed at  59  side 2    Res =  0.1970E+02
 MRCHDU: Convergence failed at  60  side 2    Res =  0.1448E+02
 MRCHDU: Convergence failed at  61  side 2    Res =  0.1267E+02
 MRCHDU: Convergence failed at  62  side 2    Res =  0.1386E+02
 MRCHDU: Convergence failed at  63  side 2    Res =  0.1477E+02
 MRCHDU: Convergence failed at  64  side 2    Res =  0.1556E+02
 MRCHDU: Convergence failed at  65  side 2    Res =  0.2443E+02
 MRCHDU: Convergence failed at  66  side 2    Res =  0.2540E+02
 MRCHDU: Convergence failed at  67  side 2    Res =  0.2636E+02
 MRCHDU: Convergence failed at  68  side 2    Res =  0.1742E+02
 MRCHDU: Convergence failed at  69  side 2    Res =  0.1625E+02
 MRCHDU: Convergence failed at  70  side 2    Res =  0.1551E+02
 MRCHDU: Convergence failed at  71  side 2    Res =  0.3972E+02
 MRCHDU: Convergence failed at  72  side 2    Res =  0.3991E+02
 MRCHDU: Convergence failed at  73  side 2    Res =  0.4032E+02
 MRCHDU: Convergence failed at  74  side 2    Res =  0.4090E+02
 MRCHDU: Convergence failed at  75  side 2    Res =  0.3575E+02
 MRCHDU: Convergence failed at  76  side 2    Res =  0.4488E+02
 MRCHDU: Convergence failed at  77  side 2    Res =  0.2722E+02
 MRCHDU: Convergence failed at  78  side 2    Res =  0.5721E+03
 MRCHDU: Convergence failed at  79  side 2    Res =  0.7819E+02
 MRCHDU: Convergence failed at  80  side 2    Res =  0.6333E+02
 MRCHDU: Convergence failed at  81  side 2    Res =  0.5590E+02
 MRCHDU: Convergence failed at  82  side 2    Res =  0.5088E+02
 MRCHDU: Convergence failed at  83  side 2    Res =  0.4610E+02
 MRCHDU: Convergence failed at  84  side 2    Res =  0.4115E+02
 MRCHDU: Convergence failed at  85  side 2    Res =  0.5819E+02
 Side 1 forced transition at x/c =  1.0000   77
 Side 2  free  transition at x/c =  0.0725   18

  14   rms: 0.6620E+00   max: -.2472E+01   T at   18  2   RLX: 0.202
       a = -3.500      CL = -1.0547
      Cm =  0.2244     CD =  0.00759   =>   CDf =  0.00278    CDp =  0.00481

 Side 1 forced transition at x/c =  1.0000   77
 Side 2  free  transition at x/c =  0.1000   20

  15   rms: 0.3743E+00   max: 0.1668E+01   T at   20  2   RLX: 0.312
       a = -3.500      CL = -0.7451
      Cm =  0.1068     CD =  0.01737   =>   CDf =  0.00919    CDp =  0.00819

 Side 1 forced transition at x/c =  1.0000   77
 Side 2  free  transition at x/c =  0.0862   19

  16   rms: 0.3403E+00   max: 0.2160E+01   T at   19  2   RLX: 0.345
       a = -3.500      CL = -0.6449
      Cm =  0.0701     CD =  0.01673   =>   CDf =  0.00863    CDp =  0.00810

 Side 1 forced transition at x/c =  1.0000   77
 Side 2  free  transition at x/c =  0.0689   18

  17   rms: 0.3687E+00   max: 0.2118E+01   T at   18  2   RLX: 0.316
       a = -3.500      CL = -0.5956
      Cm =  0.0491     CD =  0.01634   =>   CDf =  0.00829    CDp =  0.00805

 MRCHDU: Convergence failed at  18  side 2    Res =  0.9386E+01
 MRCHDU: Convergence failed at  19  side 2    Res =  0.6768E+01
 MRCHDU: Convergence failed at  20  side 2    Res =  0.1855E+03
 MRCHDU: Convergence failed at  21  side 2    Res =  0.1370E+02
 MRCHDU: Convergence failed at  22  side 2    Res =  0.4221E+01
 MRCHDU: Convergence failed at  23  side 2    Res =  0.5010E+01
 MRCHDU: Convergence failed at  24  side 2    Res =  0.5460E+01
 MRCHDU: Convergence failed at  25  side 2    Res =  0.5388E+01
 MRCHDU: Convergence failed at  26  side 2    Res =  0.5597E+01
 MRCHDU: Convergence failed at  27  side 2    Res =  0.5528E+01
 MRCHDU: Convergence failed at  28  side 2    Res =  0.5593E+01
 MRCHDU: Convergence failed at  29  side 2    Res =  0.5531E+01
 MRCHDU: Convergence failed at  30  side 2    Res =  0.5462E+01
 MRCHDU: Convergence failed at  31  side 2    Res =  0.5052E+01
 MRCHDU: Convergence failed at  32  side 2    Res =  0.4693E+01
 MRCHDU: Convergence failed at  33  side 2    Res =  0.4400E+01
 MRCHDU: Convergence failed at  34  side 2    Res =  0.1388E+02
 MRCHDU: Convergence failed at  35  side 2    Res =  0.1509E+02
 MRCHDU: Convergence failed at  36  side 2    Res =  0.1684E+02
 MRCHDU: Convergence failed at  37  side 2    Res =  0.1854E+02
 MRCHDU: Convergence failed at  38  side 2    Res =  0.2004E+02
 MRCHDU: Convergence failed at  39  side 2    Res =  0.2209E+02
 MRCHDU: Convergence failed at  40  side 2    Res =  0.2446E+02
 MRCHDU: Convergence failed at  41  side 2    Res =  0.2814E+02
 MRCHDU: Convergence failed at  42  side 2    Res =  0.3114E+02
 MRCHDU: Convergence failed at  43  side 2    Res =  0.3419E+02
 MRCHDU: Convergence failed at  44  side 2    Res =  0.3858E+02
 MRCHDU: Convergence failed at  45  side 2    Res =  0.4001E+02
 MRCHDU: Convergence failed at  46  side 2    Res =  0.4113E+02
 MRCHDU: Convergence failed at  47  side 2    Res =  0.3992E+02
 MRCHDU: Convergence failed at  48  side 2    Res =  0.3587E+02
 MRCHDU: Convergence failed at  49  side 2    Res =  0.2770E+02
 MRCHDU: Convergence failed at  50  side 2    Res =  0.1723E+02
 MRCHDU: Convergence failed at  51  side 2    Res =  0.8848E+01
 MRCHDU: Convergence failed at  52  side 2    Res =  0.1397E+02
 MRCHDU: Convergence failed at  53  side 2    Res =  0.1266E+03
 MRCHDU: Convergence failed at  54  side 2    Res =  0.3686E+02
 MRCHDU: Convergence failed at  55  side 2    Res =  0.2539E+02
 MRCHDU: Convergence failed at  56  side 2    Res =  0.2344E+02
 MRCHDU: Convergence failed at  57  side 2    Res =  0.2357E+02
 MRCHDU: Convergence failed at  58  side 2    Res =  0.2873E+02
 MRCHDU: Convergence failed at  59  side 2    Res =  0.2561E+02
 MRCHDU: Convergence failed at  60  side 2    Res =  0.3060E+03
 MRCHDU: Convergence failed at  61  side 2    Res =  0.6964E+03
 MRCHDU: Convergence failed at  62  side 2    Res =  0.5047E+01
 MRCHDU: Convergence failed at  63  side 2    Res =  0.1024E+02
 MRCHDU: Convergence failed at  64  side 2    Res =  0.8940E+01
 MRCHDU: Convergence failed at  65  side 2    Res =  0.1751E+02
 MRCHDU: Convergence failed at  66  side 2    Res =  0.1174E+02
 MRCHDU: Convergence failed at  67  side 2    Res =  0.1701E+02
 MRCHDU: Convergence failed at  68  side 2    Res =  0.1676E+02
 MRCHDU: Convergence failed at  69  side 2    Res =  0.1230E+02
 MRCHDU: Convergence failed at  70  side 2    Res =  0.2070E+02
 MRCHDU: Convergence failed at  71  side 2    Res =  0.1813E+02
 MRCHDU: Convergence failed at  72  side 2    Res =  0.1939E+02
 MRCHDU: Convergence failed at  73  side 2    Res =  0.2374E+02
 MRCHDU: Convergence failed at  74  side 2    Res =  0.2086E+02
 MRCHDU: Convergence failed at  75  side 2    Res =  0.3456E+02
 MRCHDU: Convergence failed at  76  side 2    Res =  0.2315E+02
 MRCHDU: Convergence failed at  77  side 2    Res =  0.3643E+02
 MRCHDU: Convergence failed at  78  side 2    Res =  0.2287E+02
 MRCHDU: Convergence failed at  79  side 2    Res =  0.2096E+02
 MRCHDU: Convergence failed at  80  side 2    Res =  0.1989E+02
 MRCHDU: Convergence failed at  81  side 2    Res =  0.1900E+02
 MRCHDU: Convergence failed at  82  side 2    Res =  0.1828E+02
 MRCHDU: Convergence failed at  83  side 2    Res =  0.1968E+02
 MRCHDU: Convergence failed at  84  side 2    Res =  0.2197E+02
 MRCHDU: Convergence failed at  85  side 2    Res =  0.2180E+02
 Side 1 forced transition at x/c =  1.0000   77
 Side 2  free  transition at x/c =  0.0584   17

  18   rms: 0.6840E+00   max: -.4863E+01   T at   17  2   RLX: 0.103
       a = -3.500      CL = -1.2180
      Cm =  0.2700     CD =  0.00835   =>   CDf =  0.00278    CDp =  0.00557

 Side 1 forced transition at x/c =  1.0000   77
 Side 2  free  transition at x/c =  0.0751   18

  19   rms: 0.4247E+00   max: -.5037E+00   D at   86  2   RLX: 0.317
       a = -3.500      CL = -0.7745
      Cm =  0.1181     CD =  0.02012   =>   CDf =  0.00763    CDp =  0.01249

 Side 1 forced transition at x/c =  1.0000   77
 Side 2  free  transition at x/c =  0.0908   19

  20   rms: 0.3722E+00   max: -.1559E+01   D at   25  2   RLX: 0.321
       a = -3.500      CL = -0.6365
      Cm =  0.0697     CD =  0.01861   =>   CDf =  0.00754    CDp =  0.01107

 MRCHDU: Convergence failed at  27  side 2    Res =  0.2179E+01
 Side 1 forced transition at x/c =  1.0000   77
 Side 2  free  transition at x/c =  0.0863   19

  21   rms: 0.3964E+00   max: 0.1750E+01   T at   19  2   RLX: 0.296
       a = -3.500      CL = -0.5805
      Cm =  0.0472     CD =  0.01741   =>   CDf =  0.00724    CDp =  0.01017

 Side 1 forced transition at x/c =  1.0000   77
 Side 2  free  transition at x/c =  0.0720   18

  22   rms: 0.3689E+00   max: 0.1896E+01   T at   18  2   RLX: 0.307
       a = -3.500      CL = -0.5448
      Cm =  0.0344     CD =  0.01706   =>   CDf =  0.00752    CDp =  0.00954

 Side 1 forced transition at x/c =  1.0000   77
 Side 2  free  transition at x/c =  0.0604   17

  23   rms: 0.5223E+00   max: 0.4403E+01   T at   17  2   RLX: 0.200
       a = -3.500      CL = -0.5552
      Cm =  0.0300     CD =  0.01725   =>   CDf =  0.00795    CDp =  0.00930

 Side 1 forced transition at x/c =  1.0000   77
 Side 2  free  transition at x/c =  0.0495   16

  24   rms: 0.3384E+00   max: -.1464E+01   D at   75  2   RLX: 0.342
       a = -3.500      CL = -0.5691
      Cm =  0.0282     CD =  0.01746   =>   CDf =  0.00830    CDp =  0.00916

 MRCHDU: Convergence failed at  66  side 2    Res =  0.1891E+02
 Side 1 forced transition at x/c =  1.0000   77
 Side 2  free  transition at x/c =  0.0439   16

  25   rms: 0.3993E+00   max: -.6416E+00   T at   84  2   RLX: 0.240
       a = -3.500      CL = -0.4832
      Cm =  0.0144     CD =  0.01665   =>   CDf =  0.00867    CDp =  0.00798

 Side 1 forced transition at x/c =  1.0000   77
 Side 2  free  transition at x/c =  0.0513   16

  26   rms: 0.3287E+00   max: -.3730E+01   T at   16  2   RLX: 0.134
       a = -3.500      CL = -0.4404
      Cm =  0.0059     CD =  0.01823   =>   CDf =  0.00877    CDp =  0.00946

 MRCHDU: Convergence failed at  18  side 2    Res =  0.3935E+01
 MRCHDU: Convergence failed at  19  side 2    Res =  0.4532E+01
 MRCHDU: Convergence failed at  20  side 2    Res =  0.3004E+01
 MRCHDU: Convergence failed at  21  side 2    Res =  0.4809E+01
 MRCHDU: Convergence failed at  22  side 2    Res =  0.7509E+01
 MRCHDU: Convergence failed at  23  side 2    Res =  0.1054E+02
 MRCHDU: Convergence failed at  24  side 2    Res =  0.2787E+02
 MRCHDU: Convergence failed at  25  side 2    Res =  0.5233E+02
 MRCHDU: Convergence failed at  26  side 2    Res =  0.4946E+02
 MRCHDU: Convergence failed at  27  side 2    Res =  0.4783E+02
 MRCHDU: Convergence failed at  28  side 2    Res =  0.6689E+02
 MRCHDU: Convergence failed at  29  side 2    Res =  0.4881E+02
 MRCHDU: Convergence failed at  30  side 2    Res =  0.2852E+02
 MRCHDU: Convergence failed at  31  side 2    Res =  0.2415E+02
 MRCHDU: Convergence failed at  32  side 2    Res =  0.1895E+02
 MRCHDU: Convergence failed at  33  side 2    Res =  0.1712E+02
 MRCHDU: Convergence failed at  34  side 2    Res =  0.1186E+03
 MRCHDU: Convergence failed at  35  side 2    Res =  0.9264E+02
 MRCHDU: Convergence failed at  36  side 2    Res =  0.6347E+02
 MRCHDU: Convergence failed at  37  side 2    Res =  0.6962E+02
 MRCHDU: Convergence failed at  38  side 2    Res =  0.6633E+02
 MRCHDU: Convergence failed at  39  side 2    Res =  0.7284E+02
 MRCHDU: Convergence failed at  40  side 2    Res =  0.9342E+02
 MRCHDU: Convergence failed at  41  side 2    Res =  0.2300E+02
 MRCHDU: Convergence failed at  42  side 2    Res =  0.2486E+02
 MRCHDU: Convergence failed at  43  side 2    Res =  0.2495E+02
 MRCHDU: Convergence failed at  44  side 2    Res =  0.2440E+02
 MRCHDU: Convergence failed at  45  side 2    Res =  0.2349E+02
 MRCHDU: Convergence failed at  46  side 2    Res =  0.2261E+02
 MRCHDU: Convergence failed at  47  side 2    Res =  0.2131E+02
 MRCHDU: Convergence failed at  48  side 2    Res =  0.1987E+02
 MRCHDU: Convergence failed at  49  side 2    Res =  0.2185E+02
 MRCHDU: Convergence failed at  50  side 2    Res =  0.5330E+02
 MRCHDU: Convergence failed at  51  side 2    Res =  0.3465E+03
 MRCHDU: Convergence failed at  52  side 2    Res =  0.8253E+03
 MRCHDU: Convergence failed at  53  side 2    Res =  0.2757E+02
 MRCHDU: Convergence failed at  54  side 2    Res =  0.1901E+02
 MRCHDU: Convergence failed at  55  side 2    Res =  0.1881E+02
 MRCHDU: Convergence failed at  56  side 2    Res =  0.1849E+02
 MRCHDU: Convergence failed at  57  side 2    Res =  0.2178E+02
 MRCHDU: Convergence failed at  58  side 2    Res =  0.2251E+02
 MRCHDU: Convergence failed at  59  side 2    Res =  0.3390E+02
 MRCHDU: Convergence failed at  60  side 2    Res =  0.2556E+02
 MRCHDU: Convergence failed at  61  side 2    Res =  0.3658E+02
 MRCHDU: Convergence failed at  62  side 2    Res =  0.2589E+02
 MRCHDU: Convergence failed at  63  side 2    Res =  0.2767E+02
 MRCHDU: Convergence failed at  64  side 2    Res =  0.4257E+04
 MRCHDU: Convergence failed at  65  side 2    Res =  0.4375E+03
 MRCHDU: Convergence failed at  66  side 2    Res =  0.1896E+04
 MRCHDU: Convergence failed at  67  side 2    Res =  0.5572E+02
 MRCHDU: Convergence failed at  68  side 2    Res =  0.4299E+02
 MRCHDU: Convergence failed at  69  side 2    Res =  0.2342E+02
 MRCHDU: Convergence failed at  70  side 2    Res =  0.5017E+02
 MRCHDU: Convergence failed at  71  side 2    Res =  0.5424E+02
 MRCHDU: Convergence failed at  72  side 2    Res =  0.5837E+02
 MRCHDU: Convergence failed at  73  side 2    Res =  0.2180E+02
 MRCHDU: Convergence failed at  74  side 2    Res =  0.2855E+02
 MRCHDU: Convergence failed at  75  side 2    Res =  0.2248E+02
 MRCHDU: Convergence failed at  76  side 2    Res =  0.7378E+02
 MRCHDU: Convergence failed at  77  side 2    Res =  0.7863E+02
 MRCHDU: Convergence failed at  78  side 2    Res =  0.5194E+03
 MRCHDU: Convergence failed at  79  side 2    Res =  0.3862E+02
 MRCHDU: Convergence failed at  80  side 2    Res =  0.1075E+03
 MRCHDU: Convergence failed at  81  side 2    Res =  0.2088E+02
 MRCHDU: Convergence failed at  82  side 2    Res =  0.7493E+03
 MRCHDU: Convergence failed at  83  side 2    Res =  0.1631E+03
 MRCHDU: Convergence failed at  84  side 2    Res =  0.2170E+02
 MRCHDU: Convergence failed at  85  side 2    Res =  0.2303E+02
 Side 1 forced transition at x/c =  1.0000   77
 Side 2  free  transition at x/c =  0.0625   17

  27   rms: 0.7866E+00   max: -.7914E+01   T at   17  2   RLX: 0.063
       a = -3.500      CL = -1.2262
      Cm =  0.2802     CD =  0.00772   =>   CDf =  0.00282    CDp =  0.00491

 MRCHDU: Convergence failed at  31  side 2    Res =  0.2136E+00
 MRCHDU: Convergence failed at  32  side 2    Res =  0.2068E+00
 MRCHDU: Convergence failed at  33  side 2    Res =  0.1983E+00
 MRCHDU: Convergence failed at  34  side 2    Res =  0.1925E+00
 MRCHDU: Convergence failed at  35  side 2    Res =  0.1863E+00
 MRCHDU: Convergence failed at  36  side 2    Res =  0.1799E+00
 MRCHDU: Convergence failed at  37  side 2    Res =  0.1733E+00
 MRCHDU: Convergence failed at  38  side 2    Res =  0.1666E+00
 MRCHDU: Convergence failed at  39  side 2    Res =  0.1599E+00
 MRCHDU: Convergence failed at  40  side 2    Res =  0.1528E+00
 MRCHDU: Convergence failed at  41  side 2    Res =  0.1454E+00
 MRCHDU: Convergence failed at  42  side 2    Res =  0.1368E+00
 MRCHDU: Convergence failed at  43  side 2    Res =  0.1283E+00
 MRCHDU: Convergence failed at  44  side 2    Res =  0.1188E+00
 MRCHDU: Convergence failed at  45  side 2    Res =  0.1072E+00
 MRCHDU: Convergence failed at  46  side 2    Res =  0.9279E-01
 MRCHDU: Convergence failed at  70  side 2    Res =  0.1591E+00
 MRCHDU: Convergence failed at  71  side 2    Res =  0.1520E+00
 MRCHDU: Convergence failed at  72  side 2    Res =  0.1452E+00
 MRCHDU: Convergence failed at  73  side 2    Res =  0.1386E+00
 MRCHDU: Convergence failed at  74  side 2    Res =  0.1325E+00
 MRCHDU: Convergence failed at  75  side 2    Res =  0.1269E+00
 MRCHDU: Convergence failed at  76  side 2    Res =  0.1217E+00
 MRCHDU: Convergence failed at  77  side 2    Res =  0.1171E+00
 MRCHDU: Convergence failed at  78  side 2    Res =  0.1134E+00
 MRCHDU: Convergence failed at  79  side 2    Res =  0.1110E+00
 MRCHDU: Convergence failed at  80  side 2    Res =  0.1097E+00
 MRCHDU: Convergence failed at  81  side 2    Res =  0.1091E+00
 MRCHDU: Convergence failed at  82  side 2    Res =  0.1078E+00
 MRCHDU: Convergence failed at  83  side 2    Res =  0.1016E+00
 MRCHDU: Convergence failed at  84  side 2    Res =  0.7817E-01
 MRCHDU: Convergence failed at  85  side 2    Res =  0.1314E-02
 Side 1 forced transition at x/c =  1.0000   77
 Side 2  free  transition at x/c =  0.0735   18

  28   rms: 0.4574E+00   max: -.2574E+01   T at   18  2   RLX: 0.194
       a = -3.500      CL = -0.7039
      Cm =  0.1137     CD =  0.01484   =>   CDf =  0.00458    CDp =  0.01026

 MRCHDU: Convergence failed at  84  side 2    Res =  0.4840E-01
 MRCHDU: Convergence failed at  85  side 2    Res =  0.1199E-02
 Side 1 forced transition at x/c =  1.0000   77
 Side 2  free  transition at x/c =  0.0902   19

  29   rms: 0.5026E+00   max: -.2891E+01   D at   44  2   RLX: 0.173
       a = -3.500      CL = -0.6377
      Cm =  0.1023     CD =  0.01911   =>   CDf =  0.00470    CDp =  0.01440

 MRCHDU: Convergence failed at  84  side 2    Res =  0.2859E-01
 MRCHDU: Convergence failed at  85  side 2    Res =  0.5019E-03
 Side 1 forced transition at x/c =  1.0000   77
 Side 2  free  transition at x/c =  0.0917   20

  30   rms: 0.1002E+01   max: -.6167E+01   D at   44  2   RLX: 0.081
       a = -3.500      CL = -0.6130
      Cm =  0.0936     CD =  0.01925   =>   CDf =  0.00494    CDp =  0.01430

 MRCHDU: Convergence failed at  44  side 2    Res =  0.1828E+00
 MRCHDU: Convergence failed at  45  side 2    Res =  0.5952E+00
 MRCHDU: Convergence failed at  46  side 2    Res =  0.9354E+00
 MRCHDU: Convergence failed at  47  side 2    Res =  0.1251E+01
 MRCHDU: Convergence failed at  48  side 2    Res =  0.8006E+00
 MRCHDU: Convergence failed at  49  side 2    Res =  0.7901E+00
 MRCHDU: Convergence failed at  50  side 2    Res =  0.7769E+00
 MRCHDU: Convergence failed at  51  side 2    Res =  0.7625E+00
 MRCHDU: Convergence failed at  52  side 2    Res =  0.7469E+00
 MRCHDU: Convergence failed at  53  side 2    Res =  0.7307E+00
 MRCHDU: Convergence failed at  54  side 2    Res =  0.7120E+00
 MRCHDU: Convergence failed at  55  side 2    Res =  0.6921E+00
 MRCHDU: Convergence failed at  56  side 2    Res =  0.6717E+00
 MRCHDU: Convergence failed at  57  side 2    Res =  0.6577E+00
 MRCHDU: Convergence failed at  58  side 2    Res =  0.6362E+00
 MRCHDU: Convergence failed at  59  side 2    Res =  0.6146E+00
 MRCHDU: Convergence failed at  60  side 2    Res =  0.5927E+00
 MRCHDU: Convergence failed at  61  side 2    Res =  0.5707E+00
 MRCHDU: Convergence failed at  62  side 2    Res =  0.5485E+00
 MRCHDU: Convergence failed at  63  side 2    Res =  0.5264E+00
 MRCHDU: Convergence failed at  64  side 2    Res =  0.5041E+00
 MRCHDU: Convergence failed at  65  side 2    Res =  0.4812E+00
 MRCHDU: Convergence failed at  66  side 2    Res =  0.4582E+00
 MRCHDU: Convergence failed at  67  side 2    Res =  0.4319E+00
 MRCHDU: Convergence failed at  68  side 2    Res =  0.4084E+00
 MRCHDU: Convergence failed at  69  side 2    Res =  0.4081E+00
 MRCHDU: Convergence failed at  70  side 2    Res =  0.3874E+00
 MRCHDU: Convergence failed at  71  side 2    Res =  0.3668E+00
 MRCHDU: Convergence failed at  72  side 2    Res =  0.3463E+00
 MRCHDU: Convergence failed at  73  side 2    Res =  0.3260E+00
 MRCHDU: Convergence failed at  74  side 2    Res =  0.3059E+00
 MRCHDU: Convergence failed at  75  side 2    Res =  0.2860E+00
 MRCHDU: Convergence failed at  76  side 2    Res =  0.2662E+00
 MRCHDU: Convergence failed at  77  side 2    Res =  0.2466E+00
 MRCHDU: Convergence failed at  78  side 2    Res =  0.2272E+00
 MRCHDU: Convergence failed at  79  side 2    Res =  0.2080E+00
 MRCHDU: Convergence failed at  80  side 2    Res =  0.1889E+00
 MRCHDU: Convergence failed at  81  side 2    Res =  0.1700E+00
 MRCHDU: Convergence failed at  82  side 2    Res =  0.1514E+00
 MRCHDU: Convergence failed at  83  side 2    Res =  0.1334E+00
 MRCHDU: Convergence failed at  84  side 2    Res =  0.6363E+00
 MRCHDU: Convergence failed at  85  side 2    Res =  0.8229E+00
 Side 1 forced transition at x/c =  1.0000   77
 Side 2  free  transition at x/c =  0.0872   19

  31   rms: 0.1055E+01   max: 0.6553E+01   T at   19  2   RLX: 0.122
       a = -3.500      CL = -0.3213
      Cm = -0.0472     CD =  0.01906   =>   CDf =  0.00420    CDp =  0.01486

 Side 1 forced transition at x/c =  1.0000   77
 Side 2  free  transition at x/c =  0.0646   18

  32   rms: 0.5551E+00   max: -.2451E+01   D at   41  2   RLX: 0.204
       a = -3.500      CL = -0.2974
      Cm = -0.0486     CD =  0.01597   =>   CDf =  0.00681    CDp =  0.00915

 Side 1 forced transition at x/c =  1.0000   77
 Side 2  free  transition at x/c =  0.0700   18

  33   rms: 0.3389E+00   max: -.1944E+01   T at   18  2   RLX: 0.257
       a = -3.500      CL = -0.3017
      Cm = -0.0413     CD =  0.01662   =>   CDf =  0.00750    CDp =  0.00912

 Side 1 forced transition at x/c =  1.0000   77
 Side 2  free  transition at x/c =  0.0811   19

  34   rms: 0.2771E+00   max: -.1291E+01   D at   46  2   RLX: 0.387
       a = -3.500      CL = -0.3146
      Cm = -0.0323     CD =  0.01430   =>   CDf =  0.00750    CDp =  0.00681

 Side 1 forced transition at x/c =  1.0000   77
 Side 2  free  transition at x/c =  0.0904   19

  35   rms: 0.1385E+00   max: -.1125E+01   T at   19  2   RLX: 0.445
       a = -3.500      CL = -0.3235
      Cm = -0.0249     CD =  0.01606   =>   CDf =  0.00807    CDp =  0.00799

 Side 1 forced transition at x/c =  1.0000   77
 Side 2  free  transition at x/c =  0.1022   20

  36   rms: 0.8318E-01   max: -.4966E+00   T at   20  2
       a = -3.500      CL = -0.3411
      Cm = -0.0158     CD =  0.01469   =>   CDf =  0.00805    CDp =  0.00664

 MRCHDU: Convergence failed at  22  side 2    Res =  0.1890E+01
 MRCHDU: Convergence failed at  23  side 2    Res =  0.5370E+01
 MRCHDU: Convergence failed at  24  side 2    Res =  0.2592E+02
 MRCHDU: Convergence failed at  25  side 2    Res =  0.5811E+04
 MRCHDU: Convergence failed at  26  side 2    Res =  0.1198E+03
 MRCHDU: Convergence failed at  27  side 2    Res =  0.2353E+03
 MRCHDU: Convergence failed at  28  side 2    Res =  0.4912E+03
 MRCHDU: Convergence failed at  29  side 2    Res =  0.1220E+03
 MRCHDU: Convergence failed at  30  side 2    Res =  0.7547E+02
 MRCHDU: Convergence failed at  31  side 2    Res =  0.5632E+02
 MRCHDU: Convergence failed at  32  side 2    Res =  0.4251E+02
 MRCHDU: Convergence failed at  33  side 2    Res =  0.4045E+02
 MRCHDU: Convergence failed at  34  side 2    Res =  0.8941E+02
 MRCHDU: Convergence failed at  35  side 2    Res =  0.7906E+02
 MRCHDU: Convergence failed at  36  side 2    Res =  0.6494E+02
 MRCHDU: Convergence failed at  37  side 2    Res =  0.4078E+02
 MRCHDU: Convergence failed at  38  side 2    Res =  0.3651E+02
 MRCHDU: Convergence failed at  39  side 2    Res =  0.3378E+02
 MRCHDU: Convergence failed at  40  side 2    Res =  0.3109E+02
 MRCHDU: Convergence failed at  41  side 2    Res =  0.3114E+02
 MRCHDU: Convergence failed at  42  side 2    Res =  0.7003E+02
 MRCHDU: Convergence failed at  43  side 2    Res =  0.1148E+03
 MRCHDU: Convergence failed at  44  side 2    Res =  0.7543E+03
 MRCHDU: Convergence failed at  45  side 2    Res =  0.2507E+03
 MRCHDU: Convergence failed at  46  side 2    Res =  0.1552E+03
 MRCHDU: Convergence failed at  47  side 2    Res =  0.1065E+03
 MRCHDU: Convergence failed at  48  side 2    Res =  0.8032E+02
 MRCHDU: Convergence failed at  49  side 2    Res =  0.7334E+02
 MRCHDU: Convergence failed at  50  side 2    Res =  0.7221E+02
 MRCHDU: Convergence failed at  51  side 2    Res =  0.7082E+02
 MRCHDU: Convergence failed at  52  side 2    Res =  0.2024E+02
 MRCHDU: Convergence failed at  53  side 2    Res =  0.1852E+02
 MRCHDU: Convergence failed at  54  side 2    Res =  0.1724E+02
 MRCHDU: Convergence failed at  55  side 2    Res =  0.1633E+02
 MRCHDU: Convergence failed at  56  side 2    Res =  0.1549E+02
 MRCHDU: Convergence failed at  57  side 2    Res =  0.1475E+02
 MRCHDU: Convergence failed at  58  side 2    Res =  0.1398E+02
 MRCHDU: Convergence failed at  59  side 2    Res =  0.1313E+02
 MRCHDU: Convergence failed at  60  side 2    Res =  0.1235E+02
 MRCHDU: Convergence failed at  61  side 2    Res =  0.1154E+02
 MRCHDU: Convergence failed at  62  side 2    Res =  0.1075E+02
 MRCHDU: Convergence failed at  63  side 2    Res =  0.1007E+02
 MRCHDU: Convergence failed at  64  side 2    Res =  0.8105E+01
 MRCHDU: Convergence failed at  65  side 2    Res =  0.8720E+01
 MRCHDU: Convergence failed at  66  side 2    Res =  0.9377E+01
 MRCHDU: Convergence failed at  67  side 2    Res =  0.1003E+02
 MRCHDU: Convergence failed at  68  side 2    Res =  0.1077E+02
 MRCHDU: Convergence failed at  69  side 2    Res =  0.1149E+02
 MRCHDU: Convergence failed at  70  side 2    Res =  0.1229E+02
 MRCHDU: Convergence failed at  71  side 2    Res =  0.1313E+02
 MRCHDU: Convergence failed at  72  side 2    Res =  0.1393E+02
 MRCHDU: Convergence failed at  73  side 2    Res =  0.1475E+02
 MRCHDU: Convergence failed at  74  side 2    Res =  0.1554E+02
 MRCHDU: Convergence failed at  75  side 2    Res =  0.1629E+02
 MRCHDU: Convergence failed at  76  side 2    Res =  0.1693E+02
 MRCHDU: Convergence failed at  77  side 2    Res =  0.1744E+02
 MRCHDU: Convergence failed at  78  side 2    Res =  0.1774E+02
 MRCHDU: Convergence failed at  79  side 2    Res =  0.1775E+02
 MRCHDU: Convergence failed at  80  side 2    Res =  0.1751E+02
 MRCHDU: Convergence failed at  81  side 2    Res =  0.1701E+02
 MRCHDU: Convergence failed at  82  side 2    Res =  0.1628E+02
 MRCHDU: Convergence failed at  83  side 2    Res =  0.1537E+02
 MRCHDU: Convergence failed at  84  side 2    Res =  0.1399E+02
 MRCHDU: Convergence failed at  85  side 2    Res =  0.1640E+02
 Side 1 forced transition at x/c =  1.0000   77
 Side 2  free  transition at x/c =  0.1209   22

  37   rms: 0.4543E+00   max: 0.1178E+01   D at   90  2   RLX: 0.591
       a = -3.500      CL = -0.5299
      Cm =  0.0604     CD =  0.00984   =>   CDf =  0.00304    CDp =  0.00680

 Side 1 forced transition at x/c =  1.0000   77
 Side 2  free  transition at x/c =  0.1505   24

  38   rms: 0.2027E+00   max: 0.1084E+01   T at   24  2   RLX: 0.861
       a = -3.500      CL = -0.3696
      Cm = -0.0056     CD =  0.01405   =>   CDf =  0.00927    CDp =  0.00477

 Side 1 forced transition at x/c =  1.0000   77
 Side 2  free  transition at x/c =  0.1176   21

  39   rms: 0.4162E-01   max: -.5604E+00   D at   22  2   RLX: 0.892
       a = -3.500      CL = -0.3447
      Cm = -0.0146     CD =  0.01473   =>   CDf =  0.00831    CDp =  0.00642

 Side 1 forced transition at x/c =  1.0000   77
 Side 2  free  transition at x/c =  0.1180   21

  40   rms: 0.9417E-02   max: -.1477E+00   D at   24  2
       a = -3.500      CL = -0.3422
      Cm = -0.0157     CD =  0.01470   =>   CDf =  0.00806    CDp =  0.00664

 Side 1 forced transition at x/c =  1.0000   77
 Side 2  free  transition at x/c =  0.1169   21

  41   rms: 0.7290E-03   max: -.1048E-01   D at   24  2
       a = -3.500      CL = -0.3422
      Cm = -0.0158     CD =  0.01469   =>   CDf =  0.00803    CDp =  0.00666

 Side 1 forced transition at x/c =  1.0000   77
 Side 2  free  transition at x/c =  0.1167   21

  42   rms: 0.5519E-05   max: -.6035E-04   D at   24  2
       a = -3.500      CL = -0.3422
      Cm = -0.0158     CD =  0.01469   =>   CDf =  0.00803    CDp =  0.00665
 plradd ia,ip,cpol            2           0  9.82122845E-04

 Point added to stored polar  1
 Point written to save file  rg12_Re150k.base.pol                            
 Dump file unspecified or not available
 Calculating wake trajectory ...
 Calculating source influence matrix ...

 Solving BL system ...

 Side 1 forced transition at x/c =  1.0000   77
 Side 2  free  transition at x/c =  0.1167   21

   1   rms: 0.2101E+00   max: -.2868E+01   T at   21  2   RLX: 0.174
       a = -3.000      CL = -0.3343
      Cm = -0.0154     CD =  0.01459   =>   CDf =  0.00803    CDp =  0.00656

 MRCHDU: Convergence failed at  23  side 2    Res =  0.1072E+02
 MRCHDU: Convergence failed at  24  side 2    Res =  0.2454E+01
 MRCHDU: Convergence failed at  25  side 2    Res =  0.5958E+01
 MRCHDU: Convergence failed at  26  side 2    Res =  0.1263E+02
 MRCHDU: Convergence failed at  27  side 2    Res =  0.2430E+02
 MRCHDU: Convergence failed at  28  side 2    Res =  0.2808E+02
 MRCHDU: Convergence failed at  29  side 2    Res =  0.2702E+02
 MRCHDU: Convergence failed at  30  side 2    Res =  0.2442E+02
 MRCHDU: Convergence failed at  31  side 2    Res =  0.2051E+02
 MRCHDU: Convergence failed at  32  side 2    Res =  0.1931E+02
 MRCHDU: Convergence failed at  33  side 2    Res =  0.1856E+02
 MRCHDU: Convergence failed at  34  side 2    Res =  0.1798E+02
 MRCHDU: Convergence failed at  35  side 2    Res =  0.1761E+02
 MRCHDU: Convergence failed at  36  side 2    Res =  0.2180E+02
 MRCHDU: Convergence failed at  37  side 2    Res =  0.2127E+02
 MRCHDU: Convergence failed at  38  side 2    Res =  0.2160E+02
 MRCHDU: Convergence failed at  39  side 2    Res =  0.2150E+02
 MRCHDU: Convergence failed at  40  side 2    Res =  0.2030E+02
 MRCHDU: Convergence failed at  41  side 2    Res =  0.1940E+02
 MRCHDU: Convergence failed at  42  side 2    Res =  0.1827E+02
 MRCHDU: Convergence failed at  43  side 2    Res =  0.1738E+02
 MRCHDU: Convergence failed at  44  side 2    Res =  0.1704E+02
 MRCHDU: Convergence failed at  45  side 2    Res =  0.1673E+02
 MRCHDU: Convergence failed at  46  side 2    Res =  0.1642E+02
 MRCHDU: Convergence failed at  47  side 2    Res =  0.1613E+02
 MRCHDU: Convergence failed at  48  side 2    Res =  0.1582E+02
 MRCHDU: Convergence failed at  49  side 2    Res =  0.1525E+02
 MRCHDU: Convergence failed at  50  side 2    Res =  0.1482E+02
 MRCHDU: Convergence failed at  51  side 2    Res =  0.1454E+02
 MRCHDU: Convergence failed at  52  side 2    Res =  0.1453E+02
 MRCHDU: Convergence failed at  53  side 2    Res =  0.1431E+02
 MRCHDU: Convergence failed at  54  side 2    Res =  0.1412E+02
 MRCHDU: Convergence failed at  55  side 2    Res =  0.1387E+02
 MRCHDU: Convergence failed at  56  side 2    Res =  0.1359E+02
 MRCHDU: Convergence failed at  57  side 2    Res =  0.1321E+02
 MRCHDU: Convergence failed at  58  side 2    Res =  0.1276E+02
 MRCHDU: Convergence failed at  59  side 2    Res =  0.1211E+02
 MRCHDU: Convergence failed at  60  side 2    Res =  0.1146E+02
 MRCHDU: Convergence failed at  61  side 2    Res =  0.1074E+02
 MRCHDU: Convergence failed at  62  side 2    Res =  0.1006E+02
 MRCHDU: Convergence failed at  63  side 2    Res =  0.9466E+01
 MRCHDU: Convergence failed at  64  side 2    Res =  0.8941E+01
 MRCHDU: Convergence failed at  65  side 2    Res =  0.8503E+01
 MRCHDU: Convergence failed at  66  side 2    Res =  0.7800E+01
 MRCHDU: Convergence failed at  67  side 2    Res =  0.8367E+01
 MRCHDU: Convergence failed at  68  side 2    Res =  0.8961E+01
 MRCHDU: Convergence failed at  69  side 2    Res =  0.9521E+01
 MRCHDU: Convergence failed at  70  side 2    Res =  0.1016E+02
 MRCHDU: Convergence failed at  71  side 2    Res =  0.1076E+02
 MRCHDU: Convergence failed at  72  side 2    Res =  0.1143E+02
 MRCHDU: Convergence failed at  73  side 2    Res =  0.1203E+02
 MRCHDU: Convergence failed at  74  side 2    Res =  0.1269E+02
 MRCHDU: Convergence failed at  75  side 2    Res =  0.1323E+02
 MRCHDU: Convergence failed at  76  side 2    Res =  0.1369E+02
 MRCHDU: Convergence failed at  77  side 2    Res =  0.1408E+02
 MRCHDU: Convergence failed at  78  side 2    Res =  0.1428E+02
 MRCHDU: Convergence failed at  79  side 2    Res =  0.1426E+02
 MRCHDU: Convergence failed at  80  side 2    Res =  0.1402E+02
 MRCHDU: Convergence failed at  81  side 2    Res =  0.1363E+02
 MRCHDU: Convergence failed at  82  side 2    Res =  0.1306E+02
 MRCHDU: Convergence failed at  83  side 2    Res =  0.1236E+02
 MRCHDU: Convergence failed at  84  side 2    Res =  0.1128E+02
 MRCHDU: Convergence failed at  85  side 2    Res =  0.1309E+02
 Side 1 forced transition at x/c =  1.0000   77
 Side 2  free  transition at x/c =  0.1416   23

   2   rms: 0.4680E+00   max: -.1687E+01   T at   23  2   RLX: 0.296
       a = -3.000      CL = -0.6477
      Cm =  0.1109     CD =  0.00845   =>   CDf =  0.00309    CDp =  0.00535

 Side 1 forced transition at x/c =  1.0000   77
 Side 2  free  transition at x/c =  0.1923   27

   3   rms: 0.2358E+00   max: -.1639E+01   T at   27  2   RLX: 0.305
       a = -3.000      CL = -0.5199
      Cm =  0.0670     CD =  0.01075   =>   CDf =  0.00973    CDp =  0.00101

 Side 1 forced transition at x/c =  1.0000   77
 Side 2  free  transition at x/c =  0.2182   29

   4   rms: 0.2163E+00   max: -.2774E+01   C at   29  2   RLX: 0.180
       a = -3.000      CL = -0.4774
      Cm =  0.0514     CD =  0.01106   =>   CDf =  0.00897    CDp =  0.00209

 Side 1 forced transition at x/c =  1.0000   77
 Side 2  free  transition at x/c =  0.2285   29

   5   rms: 0.1396E+00   max: -.8516E+00   T at   29  2   RLX: 0.587
       a = -3.000      CL = -0.3712
      Cm =  0.0120     CD =  0.01210   =>   CDf =  0.00871    CDp =  0.00339

 Side 1 forced transition at x/c =  1.0000   77
 Side 2  free  transition at x/c =  0.3509   38

   6   rms: 0.2238E+00   max: -.3577E+01   C at   38  2   RLX: 0.140
       a = -3.000      CL = -0.3710
      Cm =  0.0088     CD =  0.01151   =>   CDf =  0.00726    CDp =  0.00425

 Side 1 forced transition at x/c =  1.0000   77
 Side 2  free  transition at x/c =  0.3526   38

   7   rms: 0.7214E-01   max: -.7912E+00   C at   38  2   RLX: 0.632
       a = -3.000      CL = -0.3266
      Cm = -0.0061     CD =  0.01200   =>   CDf =  0.00730    CDp =  0.00470

 Side 1 forced transition at x/c =  1.0000   77
 Side 2  free  transition at x/c =  0.3969   41

   8   rms: 0.2545E-01   max: 0.2635E+00   D at   29  2
       a = -3.000      CL = -0.3028
      Cm = -0.0144     CD =  0.01219   =>   CDf =  0.00690    CDp =  0.00528

 Side 1 forced transition at x/c =  1.0000   78
 Side 2  free  transition at x/c =  0.3669   38

   9   rms: 0.1277E-01   max: -.2018E+00   T at    2  1
       a = -3.000      CL = -0.3021
      Cm = -0.0144     CD =  0.01236   =>   CDf =  0.00669    CDp =  0.00567

 Side 1 forced transition at x/c =  1.0000   78
 Side 2  free  transition at x/c =  0.3581   38

  10   rms: 0.9331E-03   max: -.1272E-01   C at   38  2
       a = -3.000      CL = -0.3020
      Cm = -0.0144     CD =  0.01238   =>   CDf =  0.00672    CDp =  0.00566

 Side 1 forced transition at x/c =  1.0000   78
 Side 2  free  transition at x/c =  0.3585   38

  11   rms: 0.4561E-05   max: 0.5762E-04   C at   38  2
       a = -3.000      CL = -0.3020
      Cm = -0.0144     CD =  0.01238   =>   CDf =  0.00672    CDp =  0.00567
 plradd ia,ip,cpol            3           0  9.82122845E-04

 Point added to stored polar  1
 Point written to save file  rg12_Re150k.base.pol                            
 Dump file unspecified or not available
 Calculating wake trajectory ...
 Calculating source influence matrix ...

 Solving BL system ...

 Side 1 forced transition at x/c =  1.0000   78
 Side 2  free  transition at x/c =  0.3585   38

   1   rms: 0.4934E+00   max: -.7953E+01   C at   38  2   RLX: 0.063
       a = -2.500      CL = -0.2998
      Cm = -0.0143     CD =  0.01220   =>   CDf =  0.00672    CDp =  0.00549

 Side 1 forced transition at x/c =  1.0000   78
 Side 2  free  transition at x/c =  0.3817   39

   2   rms: 0.2811E+00   max: -.4317E+01   C at   39  2   RLX: 0.116
       a = -2.500      CL = -0.2947
      Cm = -0.0142     CD =  0.01211   =>   CDf =  0.00663    CDp =  0.00548

 Side 1 forced transition at x/c =  1.0000   78
 Side 2  free  transition at x/c =  0.4405   44

   3   rms: 0.4392E+00   max: -.6905E+01   C at   44  2   RLX: 0.072
       a = -2.500      CL = -0.2947
      Cm = -0.0136     CD =  0.01178   =>   CDf =  0.00637    CDp =  0.00541

 Side 1 forced transition at x/c =  1.0000   78
 Side 2  free  transition at x/c =  0.4569   45

   4   rms: 0.3622E+00   max: -.5655E+01   C at   45  2   RLX: 0.088
       a = -2.500      CL = -0.2915
      Cm = -0.0137     CD =  0.01171   =>   CDf =  0.00629    CDp =  0.00542

 Side 1 forced transition at x/c =  1.0000   78
 Side 2  free  transition at x/c =  0.4774   46

   5   rms: 0.2831E+00   max: -.4363E+01   C at   46  2   RLX: 0.115
       a = -2.500      CL = -0.2880
      Cm = -0.0136     CD =  0.01162   =>   CDf =  0.00619    CDp =  0.00543

 Side 1 forced transition at x/c =  1.0000   78
 Side 2  free  transition at x/c =  0.5084   48

   6   rms: 0.3130E+00   max: -.4750E+01   C at   48  2   RLX: 0.105
       a = -2.500      CL = -0.2861
      Cm = -0.0133     CD =  0.01148   =>   CDf =  0.00602    CDp =  0.00546

 Side 1 forced transition at x/c =  1.0000   78
 Side 2  free  transition at x/c =  0.5367   50

   7   rms: 0.2899E+00   max: -.4327E+01   C at   50  2   RLX: 0.116
       a = -2.500      CL = -0.2843
      Cm = -0.0129     CD =  0.01137   =>   CDf =  0.00588    CDp =  0.00549

 Side 1 forced transition at x/c =  1.0000   78
 Side 2  free  transition at x/c =  0.5703   53

   8   rms: 0.2419E+00   max: -.3582E+01   C at   53  2   RLX: 0.140
       a = -2.500      CL = -0.2833
      Cm = -0.0122     CD =  0.01125   =>   CDf =  0.00570    CDp =  0.00556

 Side 1 forced transition at x/c =  1.0000   78
 Side 2  free  transition at x/c =  0.6074   55

   9   rms: 0.9155E-01   max: -.1213E+01   C at   55  2   RLX: 0.412
       a = -2.500      CL = -0.2781
      Cm = -0.0112     CD =  0.01120   =>   CDf =  0.00553    CDp =  0.00566

 Side 1 forced transition at x/c =  1.0000   78
 Side 2  free  transition at x/c =  0.7185   63

  10   rms: 0.3957E-01   max: 0.2727E+00   C at   64  2
       a = -2.500      CL = -0.2724
      Cm = -0.0093     CD =  0.01125   =>   CDf =  0.00523    CDp =  0.00601

 MRCHDU: Convergence failed at  69  side 2    Res =  0.6991E+01
 MRCHDU: Convergence failed at  70  side 2    Res =  0.2853E+01
 MRCHDU: Convergence failed at  71  side 2    Res =  0.1660E+01
 MRCHDU: Convergence failed at  72  side 2    Res =  0.1531E+01
 MRCHDU: Convergence failed at  73  side 2    Res =  0.1445E+01
 MRCHDU: Convergence failed at  74  side 2    Res =  0.1902E+01
 MRCHDU: Convergence failed at  75  side 2    Res =  0.2199E+01
 MRCHDU: Convergence failed at  76  side 2    Res =  0.2492E+01
 MRCHDU: Convergence failed at  77  side 2    Res =  0.2795E+01
 MRCHDU: Convergence failed at  78  side 2    Res =  0.3096E+01
 MRCHDU: Convergence failed at  79  side 2    Res =  0.3412E+01
 MRCHDU: Convergence failed at  80  side 2    Res =  0.3769E+01
 MRCHDU: Convergence failed at  81  side 2    Res =  0.4181E+01
 MRCHDU: Convergence failed at  82  side 2    Res =  0.4664E+01
 MRCHDU: Convergence failed at  83  side 2    Res =  0.6375E+01
 MRCHDU: Convergence failed at  84  side 2    Res =  0.4428E+01
 Side 1 forced transition at x/c =  1.0000   78
 Side 2  free  transition at x/c =  0.7779   68

  11   rms: 0.1222E+00   max: 0.7854E+00   C at   68  2
       a = -2.500      CL = -0.2717
      Cm = -0.0096     CD =  0.01083   =>   CDf =  0.00472    CDp =  0.00611

 Side 1 forced transition at x/c =  1.0000   78
 Side 2  free  transition at x/c =  0.7544   66

  12   rms: 0.1375E-01   max: -.1064E+00   D at   83  2
       a = -2.500      CL = -0.2753
      Cm = -0.0082     CD =  0.01123   =>   CDf =  0.00508    CDp =  0.00615

 Side 1 forced transition at x/c =  1.0000   78
 Side 2  free  transition at x/c =  0.7413   65

  13   rms: 0.2574E-02   max: -.2868E-01   C at   65  2
       a = -2.500      CL = -0.2757
      Cm = -0.0081     CD =  0.01125   =>   CDf =  0.00515    CDp =  0.00610

 Side 1 forced transition at x/c =  1.0000   78
 Side 2  free  transition at x/c =  0.7417   65

  14   rms: 0.5118E-04   max: 0.5105E-03   C at   65  2
       a = -2.500      CL = -0.2757
      Cm = -0.0081     CD =  0.01125   =>   CDf =  0.00514    CDp =  0.00611
 plradd ia,ip,cpol            4           0  9.82122845E-04

 Point added to stored polar  1
 Point written to save file  rg12_Re150k.base.pol                            
 Dump file unspecified or not available
 Calculating wake trajectory ...
 Calculating source influence matrix ...

 Solving BL system ...

 Side 1 forced transition at x/c =  1.0000   78
 Side 2  free  transition at x/c =  0.7417   65

   1   rms: 0.1172E+00   max: 0.5360E+00   D at   67  2
       a = -2.000      CL = -0.2477
      Cm = -0.0017     CD =  0.01156   =>   CDf =  0.00513    CDp =  0.00643

 Side 1 forced transition at x/c =  1.0000   78
 Side 2  free  transition at x/c =  0.8289   71

   2   rms: 0.2901E-01   max: 0.3002E+00   D at   72  2
       a = -2.000      CL = -0.2546
      Cm =  0.0001     CD =  0.01156   =>   CDf =  0.00507    CDp =  0.00649

 Side 1 forced transition at x/c =  1.0000   78
 Side 2  free  transition at x/c =  0.8427   72

   3   rms: 0.1209E-01   max: -.1303E+00   D at   74  2
       a = -2.000      CL = -0.2519
      Cm = -0.0009     CD =  0.01155   =>   CDf =  0.00507    CDp =  0.00648

 Side 1 forced transition at x/c =  1.0000   78
 Side 2  free  transition at x/c =  0.8504   73

   4   rms: 0.3185E-02   max: 0.3459E-01   D at   74  2
       a = -2.000      CL = -0.2526
      Cm = -0.0007     CD =  0.01155   =>   CDf =  0.00504    CDp =  0.00651

 Side 1 forced transition at x/c =  1.0000   78
 Side 2  free  transition at x/c =  0.8488   73

   5   rms: 0.2544E-03   max: 0.2300E-02   C at   73  2
       a = -2.000      CL = -0.2526
      Cm = -0.0006     CD =  0.01155   =>   CDf =  0.00504    CDp =  0.00651

 Side 1 forced transition at x/c =  1.0000   78
 Side 2  free  transition at x/c =  0.8487   73

   6   rms: 0.1016E-05   max: -.9469E-05   D at   91  2
       a = -2.000      CL = -0.2526
      Cm = -0.0006     CD =  0.01155   =>   CDf =  0.00504    CDp =  0.00651
 plradd ia,ip,cpol            5           0  2.43452075E-03

 Point added to stored polar  1
 Point written to save file  rg12_Re150k.base.pol                            
 Dump file unspecified or not available
 Calculating wake trajectory ...
 Calculating source influence matrix ...

 Solving BL system ...

 Side 1 forced transition at x/c =  1.0000   78
 Side 2  free  transition at x/c =  0.8487   73

   1   rms: 0.1024E+00   max: -.5808E+00   T at   73  2   RLX: 0.861
       a = -1.500      CL = -0.2390
      Cm =  0.0075     CD =  0.01186   =>   CDf =  0.00504    CDp =  0.00682

 Side 1  free  transition at x/c =  0.9688   75
 Side 2  free  transition at x/c =  0.8908   76

   2   rms: 0.1108E+00   max: -.5513E+00   D at   92  2   RLX: 0.907
       a = -1.500      CL = -0.1864
      Cm = -0.0013     CD =  0.01269   =>   CDf =  0.00530    CDp =  0.00739

 Side 1  free  transition at x/c =  0.9867   78
 Side 2  free  transition at x/c =  0.9252   77

   3   rms: 0.3550E-01   max: 0.2879E+00   D at   78  1
       a = -1.500      CL = -0.1832
      Cm = -0.0017     CD =  0.01219   =>   CDf =  0.00521    CDp =  0.00698

 Side 1  free  transition at x/c =  0.9838   78
 Side 2  free  transition at x/c =  0.9346   78

   4   rms: 0.6511E-02   max: 0.5220E-01   D at   79  2
       a = -1.500      CL = -0.1807
      Cm = -0.0021     CD =  0.01220   =>   CDf =  0.00519    CDp =  0.00701

 Side 1  free  transition at x/c =  0.9841   78
 Side 2  free  transition at x/c =  0.9327   78

   5   rms: 0.8042E-03   max: 0.8154E-02   C at   78  2
       a = -1.500      CL = -0.1805
      Cm = -0.0021     CD =  0.01221   =>   CDf =  0.00519    CDp =  0.00702

 Side 1  free  transition at x/c =  0.9841   78
 Side 2  free  transition at x/c =  0.9324   78

   6   rms: 0.7923E-05   max: 0.5009E-04   C at   78  2
       a = -1.500      CL = -0.1804
      Cm = -0.0021     CD =  0.01221   =>   CDf =  0.00519    CDp =  0.00702
 plradd ia,ip,cpol            6           0  2.43452075E-03

 Point added to stored polar  1
 Point written to save file  rg12_Re150k.base.pol                            
 Dump file unspecified or not available
 Calculating wake trajectory ...
 Calculating source influence matrix ...

 Solving BL system ...

 Side 1  free  transition at x/c =  0.9841   78
 Side 2  free  transition at x/c =  0.9324   78

   1   rms: 0.1432E+00   max: 0.7327E+00   D at   82  2   RLX: 0.835
       a = -1.000      CL = -0.0922
      Cm = -0.0089     CD =  0.01276   =>   CDf =  0.00519    CDp =  0.00757

 Side 1  free  transition at x/c =  0.9776   77
 Side 2  free  transition at x/c =  0.9664   80

   2   rms: 0.3450E-01   max: -.1892E+00   T at   81  2
       a = -1.000      CL = -0.0626
      Cm = -0.0136     CD =  0.01273   =>   CDf =  0.00543    CDp =  0.00730

 Side 1  free  transition at x/c =  0.9769   77
 Side 2  free  transition at x/c =  0.9825   81

   3   rms: 0.1072E-01   max: 0.7709E-01   D at   83  2
       a = -1.000      CL = -0.0538
      Cm = -0.0154     CD =  0.01274   =>   CDf =  0.00550    CDp =  0.00724

 Side 1  free  transition at x/c =  0.9789   77
 Side 2  free  transition at x/c =  0.9804   81

   4   rms: 0.6010E-03   max: 0.4657E-02   D at   83  2
       a = -1.000      CL = -0.0533
      Cm = -0.0155     CD =  0.01276   =>   CDf =  0.00551    CDp =  0.00725

 Side 1  free  transition at x/c =  0.9791   77
 Side 2  free  transition at x/c =  0.9802   81

   5   rms: 0.5651E-05   max: -.4961E-04   D at   89  2
       a = -1.000      CL = -0.0533
      Cm = -0.0155     CD =  0.01276   =>   CDf =  0.00551    CDp =  0.00725
 plradd ia,ip,cpol            7           0  1.94481183E-02

 Point added to stored polar  1
 Point written to save file  rg12_Re150k.base.pol                            
 Dump file unspecified or not available
 Calculating wake trajectory ...
 Calculating source influence matrix ...

 Solving BL system ...

 Side 1  free  transition at x/c =  0.9791   77
 Side 2  free  transition at x/c =  0.9802   81

   1   rms: 0.1418E+00   max: 0.3839E+00   C at   81  2
       a = -0.500      CL =  0.0801
      Cm = -0.0309     CD =  0.01312   =>   CDf =  0.00569    CDp =  0.00742

 Side 1  free  transition at x/c =  0.9740   78
 Side 2 forced transition at x/c =  1.0000   82

   2   rms: 0.1980E-01   max: 0.1996E+00   D at    3  1
       a = -0.500      CL =  0.0787
      Cm = -0.0312     CD =  0.01289   =>   CDf =  0.00577    CDp =  0.00711

 Side 1  free  transition at x/c =  0.9731   78
 Side 2 forced transition at x/c =  1.0000   82

   3   rms: 0.1418E-02   max: -.1404E-01   D at    6  2
       a = -0.500      CL =  0.0787
      Cm = -0.0312     CD =  0.01287   =>   CDf =  0.00578    CDp =  0.00710

 Side 1  free  transition at x/c =  0.9731   78
 Side 2 forced transition at x/c =  1.0000   82

   4   rms: 0.7642E-05   max: -.1126E-03   D at    7  2
       a = -0.500      CL =  0.0787
      Cm = -0.0312     CD =  0.01288   =>   CDf =  0.00578    CDp =  0.00710
 plradd ia,ip,cpol            8           0  0.20566593    

 Point added to stored polar  1
 Point written to save file  rg12_Re150k.base.pol                            
 Dump file unspecified or not available
 Calculating wake trajectory ...
 Calculating source influence matrix ...

 Solving BL system ...

 Side 1  free  transition at x/c =  0.9731   78
 Side 2 forced transition at x/c =  1.0000   82

   1   rms: 0.1139E+00   max: 0.1340E+00   T at   83  2
       a =  0.000      CL =  0.1829
      Cm = -0.0420     CD =  0.01284   =>   CDf =  0.00589    CDp =  0.00695

 Side 1  free  transition at x/c =  0.9574   78
 Side 2 forced transition at x/c =  1.0000   81

   2   rms: 0.1571E-01   max: -.1764E+00   D at   78  1
       a =  0.000      CL =  0.1773
      Cm = -0.0406     CD =  0.01267   =>   CDf =  0.00590    CDp =  0.00677

 Side 1  free  transition at x/c =  0.9554   77
 Side 2 forced transition at x/c =  1.0000   81

   3   rms: 0.2338E-02   max: -.1869E-01   D at   77  1
       a =  0.000      CL =  0.1765
      Cm = -0.0405     CD =  0.01264   =>   CDf =  0.00589    CDp =  0.00675

 Side 1  free  transition at x/c =  0.9553   77
 Side 2 forced transition at x/c =  1.0000   81

   4   rms: 0.5464E-04   max: 0.3794E-03   T at   77  1
       a =  0.000      CL =  0.1765
      Cm = -0.0405     CD =  0.01264   =>   CDf =  0.00589    CDp =  0.00675
 plradd ia,ip,cpol            9           0  0.15128207    

 Point added to stored polar  1
 Point written to save file  rg12_Re150k.base.pol                            
 Dump file unspecified or not available
 Calculating wake trajectory ...
 Calculating source influence matrix ...

 Solving BL system ...

 Side 1  free  transition at x/c =  0.9553   77
 Side 2 forced transition at x/c =  1.0000   81

   1   rms: 0.1043E+00   max: 0.1006E+01   T at   77  1   RLX: 0.636
       a =  0.500      CL =  0.1865
      Cm = -0.0364     CD =  0.01233   =>   CDf =  0.00589    CDp =  0.00644

 Side 1  free  transition at x/c =  0.9199   75
 Side 2 forced transition at x/c =  1.0000   81

   2   rms: 0.1118E+00   max: -.2907E+00   D at   86  2
       a =  0.500      CL =  0.2812
      Cm = -0.0504     CD =  0.01205   =>   CDf =  0.00595    CDp =  0.00610

 Side 1  free  transition at x/c =  0.9433   78
 Side 2 forced transition at x/c =  1.0000   80

   3   rms: 0.1613E-01   max: 0.1178E+00   D at   79  1
       a =  0.500      CL =  0.2831
      Cm = -0.0509     CD =  0.01213   =>   CDf =  0.00593    CDp =  0.00620

 Side 1  free  transition at x/c =  0.9410   77
 Side 2 forced transition at x/c =  1.0000   80

   4   rms: 0.4136E-01   max: 0.2410E+00   T at   77  1
       a =  0.500      CL =  0.2468
      Cm = -0.0440     CD =  0.01231   =>   CDf =  0.00592    CDp =  0.00639

 Side 1  free  transition at x/c =  0.9238   76
 Side 2 forced transition at x/c =  1.0000   80

   5   rms: 0.6793E-01   max: -.3604E+00   T at   76  1
       a =  0.500      CL =  0.3022
      Cm = -0.0544     CD =  0.01199   =>   CDf =  0.00592    CDp =  0.00607

 Side 1  free  transition at x/c =  0.9550   78
 Side 2 forced transition at x/c =  1.0000   80

   6   rms: 0.6992E-01   max: 0.4772E+00   C at   78  1
       a =  0.500      CL =  0.2925
      Cm = -0.0527     CD =  0.01187   =>   CDf =  0.00593    CDp =  0.00594

 Side 1  free  transition at x/c =  0.9455   78
 Side 2 forced transition at x/c =  1.0000   80

   7   rms: 0.2413E-01   max: 0.1291E+00   D at   82  1
       a =  0.500      CL =  0.2806
      Cm = -0.0504     CD =  0.01215   =>   CDf =  0.00592    CDp =  0.00623

 Side 1  free  transition at x/c =  0.9392   77
 Side 2 forced transition at x/c =  1.0000   80

   8   rms: 0.2445E-01   max: 0.1396E+00   T at   77  1
       a =  0.500      CL =  0.2585
      Cm = -0.0462     CD =  0.01224   =>   CDf =  0.00592    CDp =  0.00631

 Side 1  free  transition at x/c =  0.9288   76
 Side 2 forced transition at x/c =  1.0000   80

   9   rms: 0.7193E+00   max: -.4330E+01   T at   76  1   RLX: 0.115
       a =  0.500      CL =  0.3342
      Cm = -0.0599     CD =  0.01271   =>   CDf =  0.00592    CDp =  0.00678

 MRCHDU: Convergence failed at  80  side 1    Res =  0.5554E+01
 MRCHDU: Convergence failed at  81  side 1    Res =  0.3868E+01
 MRCHDU: Convergence failed at  82  side 1    Res =  0.6807E+01
 Side 1  free  transition at x/c =  0.9778   80
 Side 2 forced transition at x/c =  1.0000   80

  10   rms: 0.1715E+00   max: 0.1388E+01   C at   80  1
       a =  0.500      CL =  0.2719
      Cm = -0.0502     CD =  0.01136   =>   CDf =  0.00593    CDp =  0.00543

 Side 1  free  transition at x/c =  0.9237   76
 Side 2 forced transition at x/c =  1.0000   80

  11   rms: 0.4642E-01   max: -.5000E+00   D at   79  1   RLX: 1.000
       a =  0.500      CL =  0.2801
      Cm = -0.0503     CD =  0.01250   =>   CDf =  0.00591    CDp =  0.00659

 Side 1  free  transition at x/c =  0.9393   77
 Side 2 forced transition at x/c =  1.0000   80

  12   rms: 0.2205E-01   max: 0.1638E+00   D at   81  1
       a =  0.500      CL =  0.2726
      Cm = -0.0489     CD =  0.01218   =>   CDf =  0.00592    CDp =  0.00626

 Side 1  free  transition at x/c =  0.9356   77
 Side 2 forced transition at x/c =  1.0000   80

  13   rms: 0.3913E-02   max: 0.2252E-01   D at   82  1
       a =  0.500      CL =  0.2698
      Cm = -0.0483     CD =  0.01217   =>   CDf =  0.00592    CDp =  0.00625

 Side 1  free  transition at x/c =  0.9344   77
 Side 2 forced transition at x/c =  1.0000   80

  14   rms: 0.3130E-03   max: -.1834E-02   D at   82  1
       a =  0.500      CL =  0.2699
      Cm = -0.0483     CD =  0.01216   =>   CDf =  0.00592    CDp =  0.00624

 Side 1  free  transition at x/c =  0.9345   77
 Side 2 forced transition at x/c =  1.0000   80

  15   rms: 0.1691E-05   max: -.1095E-04   D at   82  2
       a =  0.500      CL =  0.2699
      Cm = -0.0483     CD =  0.01216   =>   CDf =  0.00592    CDp =  0.00624
 plradd ia,ip,cpol           10           0  0.13784893    

 Point added to stored polar  1
 Point written to save file  rg12_Re150k.base.pol                            
 Dump file unspecified or not available
 Calculating wake trajectory ...
 Calculating source influence matrix ...

 Solving BL system ...

 Side 1  free  transition at x/c =  0.9345   77
 Side 2 forced transition at x/c =  1.0000   80

   1   rms: 0.1174E+00   max: -.1105E+00   D at   85  2
       a =  1.000      CL =  0.3762
      Cm = -0.0583     CD =  0.01153   =>   CDf =  0.00591    CDp =  0.00562

 Side 1  free  transition at x/c =  0.9166   77
 Side 2 forced transition at x/c =  1.0000   79

   2   rms: 0.1108E-01   max: -.1310E+00   D at   77  1
       a =  1.000      CL =  0.3674
      Cm = -0.0564     CD =  0.01151   =>   CDf =  0.00589    CDp =  0.00562

 Side 1  free  transition at x/c =  0.9132   76
 Side 2 forced transition at x/c =  1.0000   79

   3   rms: 0.4004E-02   max: -.2354E-01   C at   76  1
       a =  1.000      CL =  0.3637
      Cm = -0.0557     CD =  0.01152   =>   CDf =  0.00589    CDp =  0.00563

 Side 1  free  transition at x/c =  0.9118   76
 Side 2 forced transition at x/c =  1.0000   79

   4   rms: 0.8858E-03   max: -.4089E-02   D at   79  1
       a =  1.000      CL =  0.3644
      Cm = -0.0558     CD =  0.01151   =>   CDf =  0.00589    CDp =  0.00562

 Side 1  free  transition at x/c =  0.9122   76
 Side 2 forced transition at x/c =  1.0000   79

   5   rms: 0.2942E-04   max: -.1086E-03   D at   85  2
       a =  1.000      CL =  0.3644
      Cm = -0.0558     CD =  0.01151   =>   CDf =  0.00589    CDp =  0.00562
 plradd ia,ip,cpol           11           0  8.52410942E-02

 Point added to stored polar  1
 Point written to save file  rg12_Re150k.base.pol                            
 Dump file unspecified or not available
 Calculating wake trajectory ...
 Calculating source influence matrix ...

 Solving BL system ...

 Side 1  free  transition at x/c =  0.9122   76
 Side 2 forced transition at x/c =  1.0000   79

   1   rms: 0.8669E-01   max: -.1354E+00   C at   80  2
       a =  1.500      CL =  0.4110
      Cm = -0.0542     CD =  0.01118   =>   CDf =  0.00589    CDp =  0.00529

 Side 1  free  transition at x/c =  0.8640   73
 Side 2 forced transition at x/c =  1.0000   79

   2   rms: 0.6099E-01   max: -.4441E+00   D at   75  1
       a =  1.500      CL =  0.4522
      Cm = -0.0615     CD =  0.01068   =>   CDf =  0.00591    CDp =  0.00477

 Side 1  free  transition at x/c =  0.8836   74
 Side 2 forced transition at x/c =  1.0000   79

   3   rms: 0.1849E-01   max: 0.1096E+00   C at   74  1
       a =  1.500      CL =  0.4422
      Cm = -0.0597     CD =  0.01089   =>   CDf =  0.00584    CDp =  0.00505

 Side 1  free  transition at x/c =  0.8772   74
 Side 2 forced transition at x/c =  1.0000   79

   4   rms: 0.2664E-02   max: -.9466E-02   D at   80  2
       a =  1.500      CL =  0.4394
      Cm = -0.0591     CD =  0.01091   =>   CDf =  0.00586    CDp =  0.00505

 Side 1  free  transition at x/c =  0.8766   74
 Side 2 forced transition at x/c =  1.0000   79

   5   rms: 0.5205E-04   max: -.4233E-03   D at   75  1
       a =  1.500      CL =  0.4394
      Cm = -0.0591     CD =  0.01090   =>   CDf =  0.00587    CDp =  0.00504
 plradd ia,ip,cpol           12           0  7.25539476E-02

 Point added to stored polar  1
 Point written to save file  rg12_Re150k.base.pol                            
 Dump file unspecified or not available
 Calculating wake trajectory ...
 Calculating source influence matrix ...

 Solving BL system ...

 Side 1  free  transition at x/c =  0.8766   74
 Side 2 forced transition at x/c =  1.0000   79

   1   rms: 0.1104E+00   max: -.1181E+00   D at   82  2
       a =  2.000      CL =  0.5218
      Cm = -0.0635     CD =  0.01023   =>   CDf =  0.00575    CDp =  0.00448

 Side 1  free  transition at x/c =  0.8381   72
 Side 2 forced transition at x/c =  1.0000   78

   2   rms: 0.3537E-01   max: -.2600E+00   D at   74  1
       a =  2.000      CL =  0.4919
      Cm = -0.0579     CD =  0.01059   =>   CDf =  0.00578    CDp =  0.00481

 Side 1  free  transition at x/c =  0.8297   71
 Side 2 forced transition at x/c =  1.0000   78

   3   rms: 0.5526E-02   max: -.2973E-01   C at   71  1
       a =  2.000      CL =  0.4954
      Cm = -0.0585     CD =  0.01056   =>   CDf =  0.00591    CDp =  0.00465

 Side 1  free  transition at x/c =  0.8305   71
 Side 2 forced transition at x/c =  1.0000   78

   4   rms: 0.2059E-03   max: 0.1023E-02   D at   73  1
       a =  2.000      CL =  0.4952
      Cm = -0.0585     CD =  0.01057   =>   CDf =  0.00589    CDp =  0.00468

 Side 1  free  transition at x/c =  0.8304   71
 Side 2 forced transition at x/c =  1.0000   78

   5   rms: 0.2273E-05   max: -.1105E-04   T at   71  1
       a =  2.000      CL =  0.4952
      Cm = -0.0585     CD =  0.01057   =>   CDf =  0.00589    CDp =  0.00468
 plradd ia,ip,cpol           13           0  4.80659567E-02

 Point added to stored polar  1
 Point written to save file  rg12_Re150k.base.pol                            
 Dump file unspecified or not available
 Calculating wake trajectory ...
 Calculating source influence matrix ...

 Solving BL system ...

 Side 1  free  transition at x/c =  0.8304   71
 Side 2 forced transition at x/c =  1.0000   78

   1   rms: 0.7919E-01   max: 0.4995E+00   T at   71  1
       a =  2.500      CL =  0.5169
      Cm = -0.0520     CD =  0.01075   =>   CDf =  0.00589    CDp =  0.00486

 Side 1  free  transition at x/c =  0.7683   67
 Side 2 forced transition at x/c =  1.0000   78

   2   rms: 0.6159E-01   max: -.5288E+00   D at   70  1   RLX: 0.946
       a =  2.500      CL =  0.5414
      Cm = -0.0557     CD =  0.01045   =>   CDf =  0.00604    CDp =  0.00441

 Side 1  free  transition at x/c =  0.7826   68
 Side 2 forced transition at x/c =  1.0000   78

   3   rms: 0.9227E-02   max: 0.7675E-01   C at   68  1
       a =  2.500      CL =  0.5388
      Cm = -0.0555     CD =  0.01051   =>   CDf =  0.00594    CDp =  0.00457

 Side 1  free  transition at x/c =  0.7781   68
 Side 2 forced transition at x/c =  1.0000   78

   4   rms: 0.6864E-03   max: -.5257E-02   D at   72  1
       a =  2.500      CL =  0.5382
      Cm = -0.0554     CD =  0.01052   =>   CDf =  0.00598    CDp =  0.00454

 Side 1  free  transition at x/c =  0.7780   68
 Side 2 forced transition at x/c =  1.0000   78

   5   rms: 0.4081E-05   max: -.3138E-04   D at   69  1
       a =  2.500      CL =  0.5383
      Cm = -0.0554     CD =  0.01052   =>   CDf =  0.00598    CDp =  0.00453
 plradd ia,ip,cpol           14           0  3.71005386E-02

 Point added to stored polar  1
 Point written to save file  rg12_Re150k.base.pol                            
 Dump file unspecified or not available
 Calculating wake trajectory ...
 Calculating source influence matrix ...

 Solving BL system ...

 Side 1  free  transition at x/c =  0.7780   68
 Side 2 forced transition at x/c =  1.0000   78

   1   rms: 0.1001E+00   max: -.1207E+00   C at   82  2
       a =  3.000      CL =  0.5897
      Cm = -0.0536     CD =  0.01050   =>   CDf =  0.00578    CDp =  0.00472

 Side 1  free  transition at x/c =  0.7273   65
 Side 2 forced transition at x/c =  1.0000   77
 idif Ue xi dudx           1  0.22734921      2.94625759E-03   77.165421    
 Uenew xinew           2  2.77804816E-03  3.60012054E-05

   2   rms: 0.4956E-01   max: -.6364E+00   T at    2  1   RLX: 0.786
       a =  3.000      CL =  0.5766
      Cm = -0.0514     CD =  0.01076   =>   CDf =  0.00627    CDp =  0.00450

 Side 1  free  transition at x/c =  0.7232   64
 Side 2 forced transition at x/c =  1.0000   78

   3   rms: 0.1341E-01   max: -.1935E+00   D at    2  2
       a =  3.000      CL =  0.5762
      Cm = -0.0514     CD =  0.01065   =>   CDf =  0.00611    CDp =  0.00455

 Side 1  free  transition at x/c =  0.7224   64
 Side 2 forced transition at x/c =  1.0000   78

   4   rms: 0.9311E-03   max: 0.1039E-01   D at    4  2
       a =  3.000      CL =  0.5763
      Cm = -0.0514     CD =  0.01066   =>   CDf =  0.00612    CDp =  0.00454

 Side 1  free  transition at x/c =  0.7224   64
 Side 2 forced transition at x/c =  1.0000   78

   5   rms: 0.3293E-05   max: -.3614E-04   D at    4  2
       a =  3.000      CL =  0.5763
      Cm = -0.0514     CD =  0.01066   =>   CDf =  0.00612    CDp =  0.00454
 plradd ia,ip,cpol           15           0  2.66569257E-02

 Point added to stored polar  1
 Point written to save file  rg12_Re150k.base.pol                            
 Dump file unspecified or not available
 Calculating wake trajectory ...
 Calculating source influence matrix ...

 Solving BL system ...

 Side 1  free  transition at x/c =  0.7224   64
 Side 2 forced transition at x/c =  1.0000   78

   1   rms: 0.1003E+00   max: 0.5127E+00   C at   64  1
       a =  3.500      CL =  0.6203
      Cm = -0.0483     CD =  0.01088   =>   CDf =  0.00588    CDp =  0.00500

 Side 1  free  transition at x/c =  0.6688   61
 Side 2 forced transition at x/c =  1.0000   77

   2   rms: 0.3630E-01   max: 0.3958E+00   D at   64  1
       a =  3.500      CL =  0.6103
[...]
       a = 12.250      CL =  1.9871
      Cm = -0.2787     CD =  0.21983   =>   CDf =  0.00812    CDp =  0.21171

 MRCHDU: Convergence failed at  91  side 2    Res =  0.3709E-01
 Side 1  free  transition at x/c =  0.0240   17
 Side 2 forced transition at x/c =  1.0000   73

  99   rms: 0.1576E+05   max: 0.1748E+06   C at   90  2   RLX: 0.000
       a = 12.250      CL =  1.9870
      Cm = -0.2787     CD =  0.21966   =>   CDf =  0.00812    CDp =  0.21154

 MRCHDU: Convergence failed at  91  side 2    Res =  0.3832E-01
 Side 1  free  transition at x/c =  0.0240   17
 Side 2 forced transition at x/c =  1.0000   73

 100   rms: 0.1119E+04   max: -.1244E+05   C at   90  2   RLX: 0.000
       a = 12.250      CL =  1.9869
      Cm = -0.2786     CD =  0.22009   =>   CDf =  0.00812    CDp =  0.21198

 MRCHDU: Convergence failed at  91  side 2    Res =  0.3769E-01
 Side 1  free  transition at x/c =  0.0240   17
 Side 2 forced transition at x/c =  1.0000   73

 101   rms: 0.2526E+04   max: -.2805E+05   C at   90  2   RLX: 0.000
       a = 12.250      CL =  1.9869
      Cm = -0.2786     CD =  0.21974   =>   CDf =  0.00812    CDp =  0.21163

 MRCHDU: Convergence failed at  91  side 2    Res =  0.3706E-01
 Side 1  free  transition at x/c =  0.0240   17
 Side 2 forced transition at x/c =  1.0000   73

 102   rms: 0.1403E+05   max: 0.1557E+06   C at   90  2   RLX: 0.000
       a = 12.250      CL =  1.9868
      Cm = -0.2786     CD =  0.21956   =>   CDf =  0.00812    CDp =  0.21145

 MRCHDU: Convergence failed at  91  side 2    Res =  0.3830E-01
 Side 1  free  transition at x/c =  0.0240   17
 Side 2 forced transition at x/c =  1.0000   73

 103   rms: 0.8397E+03   max: -.9343E+04   C at   90  2   RLX: 0.000
       a = 12.250      CL =  1.9867
      Cm = -0.2786     CD =  0.22000   =>   CDf =  0.00812    CDp =  0.21189

 MRCHDU: Convergence failed at  91  side 2    Res =  0.3767E-01
 Side 1  free  transition at x/c =  0.0240   17
 Side 2 forced transition at x/c =  1.0000   73

 104   rms: 0.1592E+04   max: -.1768E+05   C at   90  2   RLX: 0.000
       a = 12.250      CL =  1.9866
      Cm = -0.2786     CD =  0.21965   =>   CDf =  0.00811    CDp =  0.21154

 MRCHDU: Convergence failed at  91  side 2    Res =  0.3703E-01
 Side 1  free  transition at x/c =  0.0240   17
 Side 2 forced transition at x/c =  1.0000   73

 105   rms: 0.1923E+05   max: 0.2134E+06   C at   90  2   RLX: 0.000
       a = 12.250      CL =  1.9866
      Cm = -0.2786     CD =  0.21946   =>   CDf =  0.00811    CDp =  0.21134

 MRCHDU: Convergence failed at  91  side 2    Res =  0.3827E-01
 Side 1  free  transition at x/c =  0.0240   17
 Side 2 forced transition at x/c =  1.0000   73

 106   rms: 0.1688E+03   max: -.1879E+04   C at   90  2   RLX: 0.000
       a = 12.250      CL =  1.9862
      Cm = -0.2785     CD =  0.21992   =>   CDf =  0.00811    CDp =  0.21181

 MRCHDU: Convergence failed at  91  side 2    Res =  0.3762E-01
 Side 1  free  transition at x/c =  0.0240   17
 Side 2 forced transition at x/c =  1.0000   73

 107   rms: 0.1067E+04   max: -.1185E+05   C at   90  2   RLX: 0.000
       a = 12.250      CL =  1.9861
      Cm = -0.2784     CD =  0.21953   =>   CDf =  0.00811    CDp =  0.21141

 MRCHDU: Convergence failed at  91  side 2    Res =  0.3698E-01
 Side 1  free  transition at x/c =  0.0240   17
 Side 2 forced transition at x/c =  1.0000   73

 108   rms: 0.3271E+05   max: 0.3630E+06   C at   90  2   RLX: 0.000
       a = 12.250      CL =  1.9860
      Cm = -0.2784     CD =  0.21930   =>   CDf =  0.00811    CDp =  0.21118

 MRCHDU: Convergence failed at  91  side 2    Res =  0.3823E-01
 Side 1  free  transition at x/c =  0.0240   17
 Side 2 forced transition at x/c =  1.0000   73

 109   rms: 0.9083E+02   max: 0.1011E+04   C at   90  2   RLX: 0.001
       a = 12.250      CL =  1.9844
      Cm = -0.2779     CD =  0.21912   =>   CDf =  0.00811    CDp =  0.21101

 MRCHDU: Convergence failed at  91  side 2    Res =  0.3920E-01
 Side 1  free  transition at x/c =  0.0240   17
 Side 2 forced transition at x/c =  1.0000   73

 110   rms: 0.1514E+03   max: -.1697E+04   C at   90  2   RLX: 0.000
       a = 12.250      CL =  1.9832
      Cm = -0.2776     CD =  0.22133   =>   CDf =  0.00811    CDp =  0.21322

 MRCHDU: Convergence failed at  91  side 2    Res =  0.3876E-01
 Side 1  free  transition at x/c =  0.0240   17
 Side 2 forced transition at x/c =  1.0000   73

 111   rms: 0.3535E+03   max: -.3946E+04   C at   90  2   RLX: 0.000
       a = 12.250      CL =  1.9828
      Cm = -0.2775     CD =  0.21959   =>   CDf =  0.00810    CDp =  0.21148

 MRCHDU: Convergence failed at  91  side 2    Res =  0.3817E-01
 Side 1  free  transition at x/c =  0.0240   17
 Side 2 forced transition at x/c =  1.0000   73

 112   rms: 0.6655E+03   max: -.7409E+04   C at   90  2   RLX: 0.000
       a = 12.250      CL =  1.9826
      Cm = -0.2775     CD =  0.21885   =>   CDf =  0.00810    CDp =  0.21075

 MRCHDU: Convergence failed at  91  side 2    Res =  0.3753E-01
 Side 1  free  transition at x/c =  0.0240   17
 Side 2 forced transition at x/c =  1.0000   73

 113   rms: 0.2067E+04   max: -.2297E+05   C at   90  2   RLX: 0.000
       a = 12.250      CL =  1.9826
      Cm = -0.2775     CD =  0.21847   =>   CDf =  0.00810    CDp =  0.21037

 MRCHDU: Convergence failed at  91  side 2    Res =  0.3689E-01
 Side 1  free  transition at x/c =  0.0240   17
 Side 2 forced transition at x/c =  1.0000   73

 114   rms: 0.3544E+05   max: -.3934E+06   C at   90  2   RLX: 0.000
       a = 12.250      CL =  1.9826
      Cm = -0.2775     CD =  0.21820   =>   CDf =  0.00810    CDp =  0.21010

 MRCHDU: Convergence failed at  91  side 2    Res =  0.3626E-01
 Side 1  free  transition at x/c =  0.0240   17
 Side 2 forced transition at x/c =  1.0000   73

 115   rms: 0.9239E+04   max: 0.1025E+06   C at   90  2   RLX: 0.000
       a = 12.250      CL =  1.9825
      Cm = -0.2774     CD =  0.21808   =>   CDf =  0.00810    CDp =  0.20998

 MRCHDU: Convergence failed at  91  side 2    Res =  0.3753E-01
 Side 1  free  transition at x/c =  0.0240   17
 Side 2 forced transition at x/c =  1.0000   73

 116   rms: 0.1955E+04   max: -.2173E+05   C at   90  2   RLX: 0.000
       a = 12.250      CL =  1.9824
      Cm = -0.2774     CD =  0.21844   =>   CDf =  0.00810    CDp =  0.21034

 MRCHDU: Convergence failed at  91  side 2    Res =  0.3688E-01
 Side 1  free  transition at x/c =  0.0240   17
 Side 2 forced transition at x/c =  1.0000   73

 117   rms: 0.1007E+05   max: -.1118E+06   C at   90  2   RLX: 0.000
       a = 12.250      CL =  1.9824
      Cm = -0.2774     CD =  0.21814   =>   CDf =  0.00810    CDp =  0.21004

 MRCHDU: Convergence failed at  91  side 2    Res =  0.3624E-01
 Side 1  free  transition at x/c =  0.0240   17
 Side 2 forced transition at x/c =  1.0000   73

 118   rms: 0.5945E+04   max: 0.6596E+05   C at   90  2   RLX: 0.000
       a = 12.250      CL =  1.9823
      Cm = -0.2774     CD =  0.21800   =>   CDf =  0.00810    CDp =  0.20990

 MRCHDU: Convergence failed at  91  side 2    Res =  0.3752E-01
 Side 1  free  transition at x/c =  0.0240   17
 Side 2 forced transition at x/c =  1.0000   73

 119   rms: 0.1639E+04   max: -.1823E+05   C at   90  2   RLX: 0.000
       a = 12.250      CL =  1.9823
      Cm = -0.2774     CD =  0.21838   =>   CDf =  0.00810    CDp =  0.21029

 MRCHDU: Convergence failed at  91  side 2    Res =  0.3687E-01
 Side 1  free  transition at x/c =  0.0240   17
 Side 2 forced transition at x/c =  1.0000   73

 120   rms: 0.1344E+05   max: -.1493E+06   C at   90  2   RLX: 0.000
       a = 12.250      CL =  1.9823
      Cm = -0.2774     CD =  0.21808   =>   CDf =  0.00810    CDp =  0.20998

 MRCHDU: Convergence failed at  91  side 2    Res =  0.3622E-01
 Side 1  free  transition at x/c =  0.0240   17
 Side 2 forced transition at x/c =  1.0000   73

 121   rms: 0.1315E+05   max: 0.1459E+06   C at   90  2   RLX: 0.000
       a = 12.250      CL =  1.9822
      Cm = -0.2774     CD =  0.21792   =>   CDf =  0.00810    CDp =  0.20983

 MRCHDU: Convergence failed at  91  side 2    Res =  0.3750E-01
 Side 1  free  transition at x/c =  0.0240   17
 Side 2 forced transition at x/c =  1.0000   73

 122   rms: 0.1462E+04   max: -.1626E+05   C at   90  2   RLX: 0.000
       a = 12.250      CL =  1.9821
      Cm = -0.2774     CD =  0.21832   =>   CDf =  0.00810    CDp =  0.21023

 MRCHDU: Convergence failed at  91  side 2    Res =  0.3684E-01
 Side 1  free  transition at x/c =  0.0240   17
 Side 2 forced transition at x/c =  1.0000   73

 123   rms: 0.1204E+05   max: -.1337E+06   C at   90  2   RLX: 0.000
       a = 12.250      CL =  1.9821
      Cm = -0.2774     CD =  0.21800   =>   CDf =  0.00810    CDp =  0.20991

 MRCHDU: Convergence failed at  91  side 2    Res =  0.3619E-01
 Side 1  free  transition at x/c =  0.0240   17
 Side 2 forced transition at x/c =  1.0000   73

 124   rms: 0.1628E+05   max: 0.1806E+06   C at   90  2   RLX: 0.000
       a = 12.250      CL =  1.9820
      Cm = -0.2773     CD =  0.21783   =>   CDf =  0.00810    CDp =  0.20974

 MRCHDU: Convergence failed at  91  side 2    Res =  0.3748E-01
 Side 1  free  transition at x/c =  0.0240   17
 Side 2 forced transition at x/c =  1.0000   73

 125   rms: 0.1534E+04   max: -.1707E+05   C at   90  2   RLX: 0.000
       a = 12.250      CL =  1.9819
      Cm = -0.2773     CD =  0.21827   =>   CDf =  0.00810    CDp =  0.21017

 MRCHDU: Convergence failed at  91  side 2    Res =  0.3682E-01
 Side 1  free  transition at x/c =  0.0240   17
 Side 2 forced transition at x/c =  1.0000   73

 126   rms: 0.9008E+04   max: -.1001E+06   C at   90  2   RLX: 0.000
       a = 12.250      CL =  1.9819
      Cm = -0.2773     CD =  0.21792   =>   CDf =  0.00810    CDp =  0.20982

 MRCHDU: Convergence failed at  91  side 2    Res =  0.3616E-01
 Side 1  free  transition at x/c =  0.0240   17
 Side 2 forced transition at x/c =  1.0000   73

 127   rms: 0.1508E+05   max: 0.1674E+06   C at   90  2   RLX: 0.000
       a = 12.250      CL =  1.9818
      Cm = -0.2773     CD =  0.21773   =>   CDf =  0.00810    CDp =  0.20964

 MRCHDU: Convergence failed at  91  side 2    Res =  0.3745E-01
 Side 1  free  transition at x/c =  0.0240   17
 Side 2 forced transition at x/c =  1.0000   73

 128   rms: 0.1499E+04   max: -.1668E+05   C at   90  2   RLX: 0.000
       a = 12.250      CL =  1.9817
      Cm = -0.2773     CD =  0.21820   =>   CDf =  0.00809    CDp =  0.21010

 MRCHDU: Convergence failed at  91  side 2    Res =  0.3678E-01
 Side 1  free  transition at x/c =  0.0240   17
 Side 2 forced transition at x/c =  1.0000   73

 129   rms: 0.6435E+04   max: -.7150E+05   C at   90  2   RLX: 0.000
       a = 12.250      CL =  1.9817
      Cm = -0.2773     CD =  0.21782   =>   CDf =  0.00809    CDp =  0.20973

 MRCHDU: Convergence failed at  91  side 2    Res =  0.3611E-01
 Side 1  free  transition at x/c =  0.0240   17
 Side 2 forced transition at x/c =  1.0000   73

 130   rms: 0.1660E+05   max: 0.1842E+06   C at   90  2   RLX: 0.000
       a = 12.250      CL =  1.9816
      Cm = -0.2773     CD =  0.21761   =>   CDf =  0.00809    CDp =  0.20952

 MRCHDU: Convergence failed at  91  side 2    Res =  0.3741E-01
 Side 1  free  transition at x/c =  0.0240   17
 Side 2 forced transition at x/c =  1.0000   73

 131   rms: 0.1389E+04   max: -.1546E+05   C at   90  2   RLX: 0.000
       a = 12.250      CL =  1.9815
      Cm = -0.2772     CD =  0.21812   =>   CDf =  0.00809    CDp =  0.21002

 MRCHDU: Convergence failed at  91  side 2    Res =  0.3674E-01
 Side 1  free  transition at x/c =  0.0240   17
 Side 2 forced transition at x/c =  1.0000   73

 132   rms: 0.4053E+04   max: -.4504E+05   C at   90  2   RLX: 0.000
       a = 12.250      CL =  1.9815
      Cm = -0.2772     CD =  0.21771   =>   CDf =  0.00809    CDp =  0.20962

 MRCHDU: Convergence failed at  91  side 2    Res =  0.3607E-01
 Side 1  free  transition at x/c =  0.0240   17
 Side 2 forced transition at x/c =  1.0000   73

 133   rms: 0.2327E+05   max: 0.2583E+06   C at   90  2   RLX: 0.000
       a = 12.250      CL =  1.9814
      Cm = -0.2772     CD =  0.21749   =>   CDf =  0.00809    CDp =  0.20940

 MRCHDU: Convergence failed at  91  side 2    Res =  0.3737E-01
 Side 1  free  transition at x/c =  0.0240   17
 Side 2 forced transition at x/c =  1.0000   73

 134   rms: 0.1136E+04   max: -.1265E+05   C at   90  2   RLX: 0.000
       a = 12.250      CL =  1.9813
      Cm = -0.2772     CD =  0.21803   =>   CDf =  0.00809    CDp =  0.20993

 MRCHDU: Convergence failed at  91  side 2    Res =  0.3669E-01
 Side 1  free  transition at x/c =  0.0240   17
 Side 2 forced transition at x/c =  1.0000   73

 135   rms: 0.2044E+04   max: -.2272E+05   C at   90  2   RLX: 0.000
       a = 12.250      CL =  1.9813
      Cm = -0.2772     CD =  0.21759   =>   CDf =  0.00809    CDp =  0.20949

 MRCHDU: Convergence failed at  91  side 2    Res =  0.3602E-01
 Side 1  free  transition at x/c =  0.0240   17
 Side 2 forced transition at x/c =  1.0000   73

 136   rms: 0.1186E+05   max: 0.1317E+06   C at   90  2   RLX: 0.000
       a = 12.250      CL =  1.9812
      Cm = -0.2772     CD =  0.21737   =>   CDf =  0.00809    CDp =  0.20928

 MRCHDU: Convergence failed at  91  side 2    Res =  0.3732E-01
 Side 1  free  transition at x/c =  0.0240   17
 Side 2 forced transition at x/c =  1.0000   73

 137   rms: 0.3943E+03   max: -.4393E+04   C at   90  2   RLX: 0.000
       a = 12.250      CL =  1.9809
      Cm = -0.2771     CD =  0.21789   =>   CDf =  0.00809    CDp =  0.20980

 MRCHDU: Convergence failed at  91  side 2    Res =  0.3664E-01
 Side 1  free  transition at x/c =  0.0240   17
 Side 2 forced transition at x/c =  1.0000   73

 138   rms: 0.2401E+04   max: -.2669E+05   C at   90  2   RLX: 0.000
       a = 12.250      CL =  1.9809
      Cm = -0.2771     CD =  0.21744   =>   CDf =  0.00809    CDp =  0.20935

 MRCHDU: Convergence failed at  91  side 2    Res =  0.3596E-01
 Side 1  free  transition at x/c =  0.0240   17
 Side 2 forced transition at x/c =  1.0000   73

 139   rms: 0.1301E+05   max: 0.1444E+06   C at   90  2   RLX: 0.000
       a = 12.250      CL =  1.9808
      Cm = -0.2771     CD =  0.21720   =>   CDf =  0.00809    CDp =  0.20911

 MRCHDU: Convergence failed at  91  side 2    Res =  0.3726E-01
 Side 1  free  transition at x/c =  0.0240   17
 Side 2 forced transition at x/c =  1.0000   73

 140   rms: 0.8478E+03   max: -.9447E+04   C at   90  2   RLX: 0.000
       a = 12.250      CL =  1.9806
      Cm = -0.2770     CD =  0.21777   =>   CDf =  0.00809    CDp =  0.20968

 MRCHDU: Convergence failed at  91  side 2    Res =  0.3658E-01
 Side 1  free  transition at x/c =  0.0240   17
 Side 2 forced transition at x/c =  1.0000   73

 141   rms: 0.1574E+04   max: -.1750E+05   C at   90  2   RLX: 0.000
       a = 12.250      CL =  1.9806
      Cm = -0.2770     CD =  0.21727   =>   CDf =  0.00809    CDp =  0.20919

 MRCHDU: Convergence failed at  91  side 2    Res =  0.3589E-01
 Side 1  free  transition at x/c =  0.0240   17
 Side 2 forced transition at x/c =  1.0000   73

 142   rms: 0.2051E+05   max: 0.2277E+06   C at   90  2   RLX: 0.000
       a = 12.250      CL =  1.9805
      Cm = -0.2770     CD =  0.21702   =>   CDf =  0.00809    CDp =  0.20894

 MRCHDU: Convergence failed at  91  side 2    Res =  0.3720E-01
 Side 1  free  transition at x/c =  0.0240   17
 Side 2 forced transition at x/c =  1.0000   73

 143   rms: 0.3365E+03   max: -.3751E+04   C at   90  2   RLX: 0.000
       a = 12.250      CL =  1.9802
      Cm = -0.2769     CD =  0.21763   =>   CDf =  0.00809    CDp =  0.20954

 MRCHDU: Convergence failed at  91  side 2    Res =  0.3652E-01
 Side 1  free  transition at x/c =  0.0240   17
 Side 2 forced transition at x/c =  1.0000   73

 144   rms: 0.1204E+04   max: -.1338E+05   C at   90  2   RLX: 0.000
       a = 12.250      CL =  1.9801
      Cm = -0.2769     CD =  0.21708   =>   CDf =  0.00809    CDp =  0.20900

 MRCHDU: Convergence failed at  91  side 2    Res =  0.3582E-01
 Side 1  free  transition at x/c =  0.0240   17
 Side 2 forced transition at x/c =  1.0000   73

 145   rms: 0.3142E+05   max: 0.3490E+06   C at   90  2   RLX: 0.000
       a = 12.250      CL =  1.9800
      Cm = -0.2769     CD =  0.21683   =>   CDf =  0.00809    CDp =  0.20874

 MRCHDU: Convergence failed at  91  side 2    Res =  0.3713E-01
 Side 1  free  transition at x/c =  0.0240   17
 Side 2 forced transition at x/c =  1.0000   73

 146   rms: 0.6906E+03   max: -.7700E+04   C at   90  2   RLX: 0.000
       a = 12.250      CL =  1.9798
      Cm = -0.2768     CD =  0.21746   =>   CDf =  0.00809    CDp =  0.20937

 MRCHDU: Convergence failed at  91  side 2    Res =  0.3645E-01
 Side 1  free  transition at x/c =  0.0240   17
 Side 2 forced transition at x/c =  1.0000   73

 147   rms: 0.2519E+04   max: -.2802E+05   C at   90  2   RLX: 0.000
       a = 12.250      CL =  1.9798
      Cm = -0.2768     CD =  0.21691   =>   CDf =  0.00808    CDp =  0.20883

 MRCHDU: Convergence failed at  91  side 2    Res =  0.3575E-01
 Side 1  free  transition at x/c =  0.0240   17
 Side 2 forced transition at x/c =  1.0000   73

 148   rms: 0.7287E+05   max: 0.8093E+06   C at   90  2   RLX: 0.000
       a = 12.250      CL =  1.9797
      Cm = -0.2768     CD =  0.21663   =>   CDf =  0.00808    CDp =  0.20855

 MRCHDU: Convergence failed at  91  side 2    Res =  0.3706E-01
 Side 1  free  transition at x/c =  0.0240   17
 Side 2 forced transition at x/c =  1.0000   73

 149   rms: 0.4713E+03   max: -.5256E+04   C at   90  2   RLX: 0.000
       a = 12.250      CL =  1.9794
      Cm = -0.2767     CD =  0.21730   =>   CDf =  0.00808    CDp =  0.20922

 MRCHDU: Convergence failed at  91  side 2    Res =  0.3637E-01
 Side 1  free  transition at x/c =  0.0240   17
 Side 2 forced transition at x/c =  1.0000   73

 150   rms: 0.8132E+03   max: -.9047E+04   C at   90  2   RLX: 0.000
       a = 12.250      CL =  1.9793
      Cm = -0.2767     CD =  0.21672   =>   CDf =  0.00808    CDp =  0.20864

 MRCHDU: Convergence failed at  91  side 2    Res =  0.3567E-01
 Side 1  free  transition at x/c =  0.0240   17
 Side 2 forced transition at x/c =  1.0000   73

 151   rms: 0.1279E+07   max: -.1421E+08   C at   90  2   RLX: 0.000
       a = 12.250      CL =  1.9793
      Cm = -0.2767     CD =  0.21639   =>   CDf =  0.00808    CDp =  0.20831

 MRCHDU: Convergence failed at  91  side 2    Res =  0.3497E-01
 Side 1  free  transition at x/c =  0.0240   17
 Side 2 forced transition at x/c =  1.0000   73

 152   rms: 0.1790E+04   max: 0.1986E+05   C at   90  2   RLX: 0.000
       a = 12.250      CL =  1.9791
      Cm = -0.2767     CD =  0.21628   =>   CDf =  0.00808    CDp =  0.20820

 MRCHDU: Convergence failed at  91  side 2    Res =  0.3632E-01
 Side 1  free  transition at x/c =  0.0240   17
 Side 2 forced transition at x/c =  1.0000   73

 153   rms: 0.4246E+03   max: -.4725E+04   C at   90  2   RLX: 0.000
       a = 12.250      CL =  1.9790
      Cm = -0.2766     CD =  0.21663   =>   CDf =  0.00808    CDp =  0.20855

 MRCHDU: Convergence failed at  91  side 2    Res =  0.3561E-01
 Side 1  free  transition at x/c =  0.0240   17
 Side 2 forced transition at x/c =  1.0000   73

 154   rms: 0.4987E+04   max: -.5541E+05   C at   90  2   RLX: 0.000
       a = 12.250      CL =  1.9790
      Cm = -0.2766     CD =  0.21626   =>   CDf =  0.00808    CDp =  0.20818

 MRCHDU: Convergence failed at  91  side 2    Res =  0.3490E-01
 Side 1  free  transition at x/c =  0.0240   17
 Side 2 forced transition at x/c =  1.0000   73

 155   rms: 0.3372E+04   max: 0.3743E+05   C at   90  2   RLX: 0.000
       a = 12.250      CL =  1.9788
      Cm = -0.2766     CD =  0.21616   =>   CDf =  0.00808    CDp =  0.20808
 VISCAL:  Convergence failed

 Sequence halted since previous  4 points did not converge
 Last-converged  alpha =  11.250    CL =   0.99763

.OPERva   c>  
 Polar accumulation disabled

.OPERv   c>  
 XFOIL   c>  
 XFOIL   c>  