
 ===================================================
  XFOIL Version 6.99
  Copyright (C) 2000   Mark Drela, Harold Youngren

  This software comes with ABSOLUTELY NO WARRANTY,
    subject to the GNU General Public License.

  Caveat computor
 ===================================================

 File  xfoil.def  not found

   QUIT    Exit program

  .OPER    Direct operating point(s)
  .MDES    Complex mapping design routine
  .QDES    Surface speed design routine
  .GDES    Geometry design routine

   SAVE f  Write airfoil to labeled coordinate file
   PSAV f  Write airfoil to plain coordinate file
   ISAV f  Write airfoil to ISES coordinate file
   MSAV f  Write airfoil to MSES coordinate file
   REVE    Reverse written-airfoil node ordering

   LOAD f  Read buffer airfoil from coordinate file
   NACA i  Set NACA 4,5-digit airfoil and buffer airfoil
   INTE    Set buffer airfoil by interpolating two airfoils
   NORM    Buffer airfoil normalization toggle
   XYCM rr Change CM reference location, currently  0.25000 0.00000

   BEND    Display structural properties of current airfoil

   PCOP    Set current-airfoil panel nodes directly from buffer airfoil points
   PANE    Set current-airfoil panel nodes ( 160 ) based on curvature
  .PPAR    Show/change paneling

  .PLOP    Plotting options

   WDEF f  Write  current-settings file
   RDEF f  Reread current-settings file
   NAME s  Specify new airfoil name
   NINC    Increment name version number

   Z       Zoom    | (available in all menus)
   U       Unzoom  | 

 XFOIL   c>  
 Labeled airfoil file.  Name:  AIRFOIL PROFILE12A 9.00%                        

 Number of input coordinate points:  63
 Counterclockwise ordering
 Max thickness =     0.089881  at x =   0.344
 Max camber    =     0.017169  at x =   0.344

  LE  x,y  =  -0.00018   0.00127  |   Chord =   1.00018
  TE  x,y  =   1.00000   0.00000  |

 Current airfoil nodes set from buffer airfoil nodes (  63 )

 WARNING: Poor input coordinate distribution
          Excessive panel angle   53.0  at i =  32
          Repaneling with PANE and/or PPAR suggested
           (doing GDES,CADD before repaneling _may_
            improve excessively coarse LE spacing

 XFOIL   c>  
 XFOIL   c>  
 Sharp trailing edge

 Paneling parameters used...
   Number of panel nodes       160
   Panel bunching parameter    1.000
   TE/LE panel density ratio   0.150
   Refined-area/LE panel density ratio    0.200
   Top    side refined area x/c limits  1.000 1.000
   Bottom side refined area x/c limits  1.000 1.000

 XFOIL   c>  
.OPERi   c>  
 Xtr/c     =  1.0000    top    side
 Xtr/c     =  1.0000    bottom side
 Ncrit     =    9.00   ( 0.070 % turb. level )
 Vacc      =  0.0100

 Klag  =  5.6000     Uxwt  =    1.00
 A     =  6.7000     B     =  0.7500       KCt = 0.01485
 CtiniK=  1.8000     CtiniX=  3.3000

..VPAR   c>  
..VPAR   c>  
.OPERi   c>  
 M  =    0.0000
 Re =    500000

.OPERv   c>  
.OPERv   c>  
.OPERv   c>  
 Polar  1 newly created for accumulation
 Airfoil archived with polar: AIRFOIL PROFILE12A 9.00%                        

Enter  polar save filename  OR  <return> for no file   s>  
 New polar save file available

Enter  polar dump filename  OR  <return> for no file   s>  
 Polar dump file will NOT be written

 Polar accumulation enabled

.OPERva   c>   Calculating unit vorticity distributions ...
 Calculating wake trajectory ...
 Calculating source influence matrix ...

 Solving BL system ...

 Initializing BL ...
    side            1  ...
 MRCHUE: Inverse mode at  69     Hk =   3.834
 MRCHUE: Inverse mode at  70     Hk =   4.275
 MRCHUE: Inverse mode at  71     Hk =   4.708
 MRCHUE: Inverse mode at  72     Hk =   5.132
 MRCHUE: Inverse mode at  73     Hk =   5.544
 MRCHUE: Inverse mode at  74     Hk =   5.944
 MRCHUE: Inverse mode at  75     Hk =   6.332
 MRCHUE: Inverse mode at  76     Hk =   6.666
 MRCHUE: Inverse mode at  77     Hk =   6.834
    side            2  ...
 MRCHUE: Inverse mode at  10     Hk =   4.837
 MRCHUE: Inverse mode at  11     Hk =   6.171
 MRCHUE: Inverse mode at  12     Hk =   7.582
 MRCHUE: Inverse mode at  13     Hk =   9.164
 MRCHUE: Inverse mode at  14     Hk =   8.935
 MRCHUE: Inverse mode at  15     Hk =   2.500

 Side 1 forced transition at x/c =  1.0000   77
 Side 2  free  transition at x/c =  0.0207   14

   1   rms: 0.2933E+00   max: 0.2367E+01   T at   14  2   RLX: 0.234
       a = -4.000      CL = -0.2204
      Cm = -0.0558     CD =  0.00903   =>   CDf =  0.00614    CDp =  0.00289

 Side 1 forced transition at x/c =  1.0000   77
 Side 2  free  transition at x/c =  0.0172   14
 idif Ue xi dudx           1  0.23742144      3.43346596E-03   69.149200    
 Uenew xinew           2  1.92067190E-03  2.77757645E-05

   2   rms: 0.1956E+00   max: 0.1073E+01   T at   14  2   RLX: 0.831
       a = -4.000      CL = -0.3447
      Cm = -0.0240     CD =  0.01069   =>   CDf =  0.00603    CDp =  0.00466

 MRCHDU: Convergence failed at  15  side 2    Res =  0.2578E+03
 MRCHDU: Convergence failed at  16  side 2    Res =  0.7175E+01
 MRCHDU: Convergence failed at  17  side 2    Res =  0.3460E+01
 MRCHDU: Convergence failed at  18  side 2    Res =  0.5646E+01
 MRCHDU: Convergence failed at  19  side 2    Res =  0.6894E+01
 MRCHDU: Convergence failed at  20  side 2    Res =  0.6552E+01
 MRCHDU: Convergence failed at  21  side 2    Res =  0.3988E+02
 MRCHDU: Convergence failed at  22  side 2    Res =  0.6888E+02
 MRCHDU: Convergence failed at  23  side 2    Res =  0.6765E+02
 MRCHDU: Convergence failed at  24  side 2    Res =  0.5245E+02
 MRCHDU: Convergence failed at  25  side 2    Res =  0.7680E+02
 MRCHDU: Convergence failed at  26  side 2    Res =  0.7550E+02
 MRCHDU: Convergence failed at  27  side 2    Res =  0.9698E+02
 MRCHDU: Convergence failed at  28  side 2    Res =  0.4549E+02
 MRCHDU: Convergence failed at  29  side 2    Res =  0.1015E+04
 MRCHDU: Convergence failed at  30  side 2    Res =  0.2655E+02
 MRCHDU: Convergence failed at  31  side 2    Res =  0.2648E+02
 MRCHDU: Convergence failed at  32  side 2    Res =  0.2601E+02
 MRCHDU: Convergence failed at  33  side 2    Res =  0.3374E+02
 MRCHDU: Convergence failed at  34  side 2    Res =  0.3700E+02
 MRCHDU: Convergence failed at  35  side 2    Res =  0.3694E+02
 MRCHDU: Convergence failed at  36  side 2    Res =  0.3860E+02
 MRCHDU: Convergence failed at  37  side 2    Res =  0.2988E+02
 MRCHDU: Convergence failed at  38  side 2    Res =  0.3095E+02
 MRCHDU: Convergence failed at  39  side 2    Res =  0.3222E+02
 MRCHDU: Convergence failed at  40  side 2    Res =  0.3316E+02
 MRCHDU: Convergence failed at  41  side 2    Res =  0.3433E+02
 MRCHDU: Convergence failed at  42  side 2    Res =  0.3535E+02
 MRCHDU: Convergence failed at  43  side 2    Res =  0.3648E+02
 MRCHDU: Convergence failed at  44  side 2    Res =  0.3752E+02
 MRCHDU: Convergence failed at  45  side 2    Res =  0.3863E+02
 MRCHDU: Convergence failed at  46  side 2    Res =  0.3965E+02
 MRCHDU: Convergence failed at  47  side 2    Res =  0.4070E+02
 MRCHDU: Convergence failed at  48  side 2    Res =  0.4168E+02
 MRCHDU: Convergence failed at  49  side 2    Res =  0.4295E+02
 MRCHDU: Convergence failed at  50  side 2    Res =  0.4387E+02
 MRCHDU: Convergence failed at  51  side 2    Res =  0.3491E+02
 MRCHDU: Convergence failed at  52  side 2    Res =  0.3547E+02
 MRCHDU: Convergence failed at  53  side 2    Res =  0.3620E+02
 MRCHDU: Convergence failed at  54  side 2    Res =  0.3675E+02
 MRCHDU: Convergence failed at  55  side 2    Res =  0.3739E+02
 MRCHDU: Convergence failed at  56  side 2    Res =  0.3802E+02
 MRCHDU: Convergence failed at  57  side 2    Res =  0.3881E+02
 MRCHDU: Convergence failed at  58  side 2    Res =  0.3978E+02
 MRCHDU: Convergence failed at  59  side 2    Res =  0.4089E+02
 MRCHDU: Convergence failed at  60  side 2    Res =  0.4245E+02
 MRCHDU: Convergence failed at  61  side 2    Res =  0.4473E+02
 MRCHDU: Convergence failed at  62  side 2    Res =  0.3162E+02
 MRCHDU: Convergence failed at  63  side 2    Res =  0.3349E+02
 MRCHDU: Convergence failed at  64  side 2    Res =  0.3049E+02
 MRCHDU: Convergence failed at  65  side 2    Res =  0.3856E+02
 MRCHDU: Convergence failed at  66  side 2    Res =  0.3821E+02
 MRCHDU: Convergence failed at  67  side 2    Res =  0.4332E+02
 MRCHDU: Convergence failed at  68  side 2    Res =  0.3270E+02
 MRCHDU: Convergence failed at  69  side 2    Res =  0.3514E+02
 MRCHDU: Convergence failed at  70  side 2    Res =  0.3769E+02
 MRCHDU: Convergence failed at  71  side 2    Res =  0.4008E+02
 MRCHDU: Convergence failed at  72  side 2    Res =  0.4231E+02
 MRCHDU: Convergence failed at  73  side 2    Res =  0.4264E+02
 MRCHDU: Convergence failed at  74  side 2    Res =  0.4493E+02
 MRCHDU: Convergence failed at  75  side 2    Res =  0.4723E+02
 MRCHDU: Convergence failed at  76  side 2    Res =  0.5061E+02
 MRCHDU: Convergence failed at  77  side 2    Res =  0.5224E+02
 MRCHDU: Convergence failed at  78  side 2    Res =  0.5332E+02
 MRCHDU: Convergence failed at  79  side 2    Res =  0.5368E+02
 MRCHDU: Convergence failed at  80  side 2    Res =  0.5302E+02
 MRCHDU: Convergence failed at  81  side 2    Res =  0.4978E+02
 MRCHDU: Convergence failed at  82  side 2    Res =  0.4717E+02
 MRCHDU: Convergence failed at  83  side 2    Res =  0.3078E+02
 MRCHDU: Convergence failed at  84  side 2    Res =  0.3001E+02
 MRCHDU: Convergence failed at  85  side 2    Res =  0.1707E+04
 MRCHDU: Convergence failed at  86  side 2    Res =  0.7669E+02
 Side 1  free  transition at x/c =  0.9536   72
 Side 2  free  transition at x/c =  0.0144   14

   3   rms: 0.3912E+01   max: -.6397E+02   T at    2  2   RLX: 0.008
       a = -4.000      CL = -2.4433
      Cm =  0.5949     CD =  0.00724   =>   CDf =  0.00141    CDp =  0.00583

 MRCHDU: Convergence failed at  19  side 2    Res =  0.5944E+00
 MRCHDU: Convergence failed at  20  side 2    Res =  0.5995E+00
 MRCHDU: Convergence failed at  21  side 2    Res =  0.6040E+00
 MRCHDU: Convergence failed at  22  side 2    Res =  0.6075E+00
 MRCHDU: Convergence failed at  23  side 2    Res =  0.6105E+00
 MRCHDU: Convergence failed at  24  side 2    Res =  0.6127E+00
 MRCHDU: Convergence failed at  25  side 2    Res =  0.6143E+00
 MRCHDU: Convergence failed at  26  side 2    Res =  0.6154E+00
 MRCHDU: Convergence failed at  27  side 2    Res =  0.6164E+00
 MRCHDU: Convergence failed at  28  side 2    Res =  0.6169E+00
 MRCHDU: Convergence failed at  29  side 2    Res =  0.6173E+00
 MRCHDU: Convergence failed at  30  side 2    Res =  0.6178E+00
 MRCHDU: Convergence failed at  31  side 2    Res =  0.6181E+00
 MRCHDU: Convergence failed at  32  side 2    Res =  0.6183E+00
 MRCHDU: Convergence failed at  33  side 2    Res =  0.6181E+00
 MRCHDU: Convergence failed at  34  side 2    Res =  0.6176E+00
 MRCHDU: Convergence failed at  35  side 2    Res =  0.6174E+00
 MRCHDU: Convergence failed at  36  side 2    Res =  0.6173E+00
 MRCHDU: Convergence failed at  37  side 2    Res =  0.6170E+00
 MRCHDU: Convergence failed at  38  side 2    Res =  0.6165E+00
 MRCHDU: Convergence failed at  39  side 2    Res =  0.6162E+00
 MRCHDU: Convergence failed at  40  side 2    Res =  0.6157E+00
 MRCHDU: Convergence failed at  41  side 2    Res =  0.6153E+00
 MRCHDU: Convergence failed at  42  side 2    Res =  0.6149E+00
 MRCHDU: Convergence failed at  43  side 2    Res =  0.6144E+00
 MRCHDU: Convergence failed at  44  side 2    Res =  0.6139E+00
 MRCHDU: Convergence failed at  45  side 2    Res =  0.6133E+00
 MRCHDU: Convergence failed at  46  side 2    Res =  0.6127E+00
 MRCHDU: Convergence failed at  47  side 2    Res =  0.6121E+00
 MRCHDU: Convergence failed at  48  side 2    Res =  0.6110E+00
 MRCHDU: Convergence failed at  49  side 2    Res =  0.6105E+00
 MRCHDU: Convergence failed at  50  side 2    Res =  0.6098E+00
 MRCHDU: Convergence failed at  51  side 2    Res =  0.6090E+00
 MRCHDU: Convergence failed at  52  side 2    Res =  0.6082E+00
 MRCHDU: Convergence failed at  53  side 2    Res =  0.6074E+00
 MRCHDU: Convergence failed at  54  side 2    Res =  0.6066E+00
 MRCHDU: Convergence failed at  55  side 2    Res =  0.6057E+00
 MRCHDU: Convergence failed at  56  side 2    Res =  0.6048E+00
 MRCHDU: Convergence failed at  57  side 2    Res =  0.6038E+00
 MRCHDU: Convergence failed at  58  side 2    Res =  0.6027E+00
 MRCHDU: Convergence failed at  59  side 2    Res =  0.6015E+00
 MRCHDU: Convergence failed at  60  side 2    Res =  0.6003E+00
 MRCHDU: Convergence failed at  61  side 2    Res =  0.5990E+00
 MRCHDU: Convergence failed at  62  side 2    Res =  0.5978E+00
 MRCHDU: Convergence failed at  63  side 2    Res =  0.5966E+00
 MRCHDU: Convergence failed at  64  side 2    Res =  0.5954E+00
 MRCHDU: Convergence failed at  65  side 2    Res =  0.5941E+00
 MRCHDU: Convergence failed at  66  side 2    Res =  0.5930E+00
 MRCHDU: Convergence failed at  67  side 2    Res =  0.5916E+00
 MRCHDU: Convergence failed at  68  side 2    Res =  0.5901E+00
 MRCHDU: Convergence failed at  69  side 2    Res =  0.5887E+00
 MRCHDU: Convergence failed at  70  side 2    Res =  0.5874E+00
 MRCHDU: Convergence failed at  71  side 2    Res =  0.5862E+00
 MRCHDU: Convergence failed at  72  side 2    Res =  0.5850E+00
 MRCHDU: Convergence failed at  73  side 2    Res =  0.5839E+00
 MRCHDU: Convergence failed at  74  side 2    Res =  0.5828E+00
 MRCHDU: Convergence failed at  75  side 2    Res =  0.5819E+00
 MRCHDU: Convergence failed at  76  side 2    Res =  0.5809E+00
 MRCHDU: Convergence failed at  77  side 2    Res =  0.5800E+00
 MRCHDU: Convergence failed at  78  side 2    Res =  0.5794E+00
 MRCHDU: Convergence failed at  79  side 2    Res =  0.5790E+00
 MRCHDU: Convergence failed at  80  side 2    Res =  0.5788E+00
 MRCHDU: Convergence failed at  81  side 2    Res =  0.5786E+00
 MRCHDU: Convergence failed at  82  side 2    Res =  0.5777E+00
 MRCHDU: Convergence failed at  83  side 2    Res =  0.5746E+00
 MRCHDU: Convergence failed at  84  side 2    Res =  0.5644E+00
 MRCHDU: Convergence failed at  85  side 2    Res =  0.5079E+00
 Side 1  free  transition at x/c =  0.9543   73
 Side 2  free  transition at x/c =  0.0145   13
 idif Ue xi dudx           1  0.24420252      3.48985195E-03   69.975037    
 Uenew xinew           2  5.88922203E-03  8.41617584E-05

   4   rms: 0.6108E+01   max: 0.1027E+03   T at    2  1   RLX: 0.011
       a = -4.000      CL = -1.3480
      Cm =  0.3061     CD =  0.02088   =>   CDf =  0.00171    CDp =  0.01917

 MRCHDU: Convergence failed at  54  side 2    Res =  0.2722E+00
 MRCHDU: Convergence failed at  55  side 2    Res =  0.2689E+00
 MRCHDU: Convergence failed at  56  side 2    Res =  0.2655E+00
 MRCHDU: Convergence failed at  57  side 2    Res =  0.2619E+00
 MRCHDU: Convergence failed at  58  side 2    Res =  0.2583E+00
 MRCHDU: Convergence failed at  59  side 2    Res =  0.2546E+00
 MRCHDU: Convergence failed at  60  side 2    Res =  0.2511E+00
 MRCHDU: Convergence failed at  61  side 2    Res =  0.2478E+00
 MRCHDU: Convergence failed at  62  side 2    Res =  0.2449E+00
 MRCHDU: Convergence failed at  63  side 2    Res =  0.2423E+00
 MRCHDU: Convergence failed at  64  side 2    Res =  0.2399E+00
 MRCHDU: Convergence failed at  65  side 2    Res =  0.2377E+00
 MRCHDU: Convergence failed at  66  side 2    Res =  0.2353E+00
 MRCHDU: Convergence failed at  67  side 2    Res =  0.2325E+00
 MRCHDU: Convergence failed at  68  side 2    Res =  0.2292E+00
 MRCHDU: Convergence failed at  69  side 2    Res =  0.2256E+00
 MRCHDU: Convergence failed at  70  side 2    Res =  0.2220E+00
 MRCHDU: Convergence failed at  71  side 2    Res =  0.2186E+00
 MRCHDU: Convergence failed at  72  side 2    Res =  0.2152E+00
 MRCHDU: Convergence failed at  73  side 2    Res =  0.2120E+00
 MRCHDU: Convergence failed at  74  side 2    Res =  0.2085E+00
 MRCHDU: Convergence failed at  75  side 2    Res =  0.2050E+00
 MRCHDU: Convergence failed at  76  side 2    Res =  0.2014E+00
 MRCHDU: Convergence failed at  77  side 2    Res =  0.1981E+00
 MRCHDU: Convergence failed at  78  side 2    Res =  0.1947E+00
 MRCHDU: Convergence failed at  79  side 2    Res =  0.1916E+00
 MRCHDU: Convergence failed at  80  side 2    Res =  0.1882E+00
 MRCHDU: Convergence failed at  81  side 2    Res =  0.1847E+00
 MRCHDU: Convergence failed at  82  side 2    Res =  0.1800E+00
 MRCHDU: Convergence failed at  83  side 2    Res =  0.1726E+00
 MRCHDU: Convergence failed at  84  side 2    Res =  0.1568E+00
 MRCHDU: Convergence failed at  85  side 2    Res =  0.1143E+00
 Side 1  free  transition at x/c =  0.9549   72
 Side 2  free  transition at x/c =  0.0146   14

   5   rms: 0.3475E+01   max: -.5020E+02   T at    2  2   RLX: 0.010
       a = -4.000      CL = -0.8598
      Cm =  0.1377     CD =  0.03758   =>   CDf =  0.00192    CDp =  0.03566

 MRCHDU: Convergence failed at  85  side 2    Res =  0.3253E+00
 Side 1  free  transition at x/c =  0.9542   73
 Side 2  free  transition at x/c =  0.0145   13
 idif Ue xi dudx           1  0.25025836      3.59630585E-03   69.587616    
 Uenew xinew           2  1.32644894E-02  1.90615654E-04

   6   rms: 0.9267E+00   max: 0.1080E+02   T at    2  1   RLX: 0.096
       a = -4.000      CL = -0.7524
      Cm =  0.0928     CD =  0.05441   =>   CDf =  0.00173    CDp =  0.05267

 Side 1  free  transition at x/c =  0.9664   73
 Side 2  free  transition at x/c =  0.0147   14

   7   rms: 0.6223E+00   max: 0.2475E+01   D at    2  2   RLX: 0.209
       a = -4.000      CL = -0.6120
      Cm =  0.0468     CD =  0.04490   =>   CDf =  0.00184    CDp =  0.04306

 Side 1  free  transition at x/c =  0.9813   74
 Side 2  free  transition at x/c =  0.0150   15

   8   rms: 0.2582E+01   max: -.6488E+01   D at   19  2   RLX: 0.077
       a = -4.000      CL = -0.5441
      Cm =  0.0026     CD =  0.03673   =>   CDf =  0.00186    CDp =  0.03487

 Side 1  free  transition at x/c =  0.9727   74
 Side 2  free  transition at x/c =  0.0148   15

   9   rms: 0.6960E+00   max: -.3006E+01   D at   19  2   RLX: 0.166
       a = -4.000      CL = -0.4184
      Cm = -0.0439     CD =  0.02733   =>   CDf =  0.00350    CDp =  0.02383

 Side 1  free  transition at x/c =  0.9696   73
 Side 2  free  transition at x/c =  0.0155   15

  10   rms: 0.3898E+01   max: 0.2295E+02   T at   73  1   RLX: 0.025
       a = -4.000      CL = -0.4562
      Cm = -0.0413     CD =  0.02628   =>   CDf =  0.00377    CDp =  0.02252

 Side 1  free  transition at x/c =  0.9548   72
 Side 2  free  transition at x/c =  0.0142   14

  11   rms: 0.6256E+00   max: 0.3434E+01   T at   72  1   RLX: 0.223
       a = -4.000      CL = -0.5013
      Cm = -0.0353     CD =  0.02098   =>   CDf =  0.00380    CDp =  0.01718

 Side 1  free  transition at x/c =  0.9354   71
 Side 2  free  transition at x/c =  0.0124   14

  12   rms: 0.1369E+01   max: -.5352E+01   D at   61  2   RLX: 0.093
       a = -4.000      CL = -0.4974
      Cm = -0.0477     CD =  0.01963   =>   CDf =  0.00382    CDp =  0.01580

 Side 1  free  transition at x/c =  0.9275   70
 Side 2  free  transition at x/c =  0.0119   14
 idif Ue xi dudx           1  0.23480658      4.59945202E-03   51.050991    
 Uenew xinew           2  3.04287620E-04  5.96046448E-06

  13   rms: 0.4722E+01   max: 0.5151E+02   T at   70  1   RLX: 0.015
       a = -4.000      CL = -0.5626
      Cm = -0.0313     CD =  0.02243   =>   CDf =  0.00376    CDp =  0.01866

 Side 1  free  transition at x/c =  0.9082   68
 Side 2  free  transition at x/c =  0.0112   15

  14   rms: 0.7272E+01   max: -.1279E+03   D at    2  2   RLX: 0.004
       a = -4.000      CL = -0.5670
      Cm = -0.0287     CD =  0.02372   =>   CDf =  0.00405    CDp =  0.01967

 Side 1  free  transition at x/c =  0.9081   69
 Side 2  free  transition at x/c =  0.0112   14

  15   rms: 0.1760E+01   max: -.2843E+02   T at    2  1   RLX: 0.018
       a = -4.000      CL = -0.5658
      Cm = -0.0290     CD =  0.02329   =>   CDf =  0.00386    CDp =  0.01942

 Side 1  free  transition at x/c =  0.9080   69
 Side 2  free  transition at x/c =  0.0112   14

  16   rms: 0.6710E+00   max: -.2278E+01   D at   71  2   RLX: 0.220
       a = -4.000      CL = -0.5452
      Cm = -0.0315     CD =  0.01815   =>   CDf =  0.00388    CDp =  0.01426

 Side 1  free  transition at x/c =  0.9081   69
 Side 2  free  transition at x/c =  0.0113   14

  17   rms: 0.4988E+00   max: -.1480E+01   D at   76  2   RLX: 0.338
       a = -4.000      CL = -0.4993
      Cm = -0.0275     CD =  0.01567   =>   CDf =  0.00422    CDp =  0.01145

 Side 1  free  transition at x/c =  0.9167   70
 Side 2  free  transition at x/c =  0.0118   14

  18   rms: 0.5288E+00   max: -.2099E+01   D at   47  2   RLX: 0.238
       a = -4.000      CL = -0.4708
      Cm = -0.0268     CD =  0.01406   =>   CDf =  0.00479    CDp =  0.00927

 Side 1  free  transition at x/c =  0.9196   70
 Side 2  free  transition at x/c =  0.0122   14

  19   rms: 0.5234E+00   max: -.2226E+01   D at   47  2   RLX: 0.225
       a = -4.000      CL = -0.4486
      Cm = -0.0267     CD =  0.01384   =>   CDf =  0.00494    CDp =  0.00890

 MRCHDU: Convergence failed at  42  side 2    Res =  0.4158E+01
 MRCHDU: Convergence failed at  43  side 2    Res =  0.6184E+00
 Side 1  free  transition at x/c =  0.9251   70
 Side 2  free  transition at x/c =  0.0125   14

  20   rms: 0.4273E+00   max: -.2130E+01   T at   70  1   RLX: 0.235
       a = -4.000      CL = -0.4094
      Cm = -0.0305     CD =  0.01343   =>   CDf =  0.00559    CDp =  0.00784

 MRCHDU: Convergence failed at  44  side 2    Res =  0.4456E+00
 Side 1  free  transition at x/c =  0.9449   72
 Side 2  free  transition at x/c =  0.0134   14

  21   rms: 0.3653E+00   max: -.1922E+01   D at   48  2   RLX: 0.260
       a = -4.000      CL = -0.3907
      Cm = -0.0306     CD =  0.01256   =>   CDf =  0.00569    CDp =  0.00687

 MRCHDU: Convergence failed at  45  side 2    Res =  0.6212E+00
 MRCHDU: Convergence failed at  46  side 2    Res =  0.4835E+00
 MRCHDU: Convergence failed at  47  side 2    Res =  0.2091E+00
 MRCHDU: Convergence failed at  48  side 2    Res =  0.2178E+00
 MRCHDU: Convergence failed at  49  side 2    Res =  0.1473E+01
 MRCHDU: Convergence failed at  50  side 2    Res =  0.6241E+00
 MRCHDU: Convergence failed at  51  side 2    Res =  0.5588E+00
 MRCHDU: Convergence failed at  52  side 2    Res =  0.2218E+01
 Side 1  free  transition at x/c =  0.9480   72
 Side 2  free  transition at x/c =  0.0138   14

  22   rms: 0.2616E+00   max: -.9711E+00   D at   86  2   RLX: 0.515
       a = -4.000      CL = -0.3920
      Cm = -0.0219     CD =  0.01233   =>   CDf =  0.00666    CDp =  0.00567

 Side 1  free  transition at x/c =  0.9519   73
 Side 2  free  transition at x/c =  0.0142   13

  23   rms: 0.2599E+00   max: -.3417E+01   D at    2  1   RLX: 0.146
       a = -4.000      CL = -0.3727
      Cm = -0.0242     CD =  0.01277   =>   CDf =  0.00616    CDp =  0.00660

 Side 1  free  transition at x/c =  0.9555   73
 Side 2  free  transition at x/c =  0.0144   13

  24   rms: 0.3073E+00   max: -.2714E+01   T at   73  1   RLX: 0.184
       a = -4.000      CL = -0.3197
      Cm = -0.0341     CD =  0.01240   =>   CDf =  0.00618    CDp =  0.00622

 Side 1  free  transition at x/c =  0.9762   75
 Side 2  free  transition at x/c =  0.0154   14

  25   rms: 0.1171E+00   max: 0.7258E+00   D at   77  1   RLX: 0.947
       a = -4.000      CL = -0.2685
      Cm = -0.0395     CD =  0.01090   =>   CDf =  0.00625    CDp =  0.00465

 Side 1  free  transition at x/c =  0.9758   75
 Side 2  free  transition at x/c =  0.0162   14

  26   rms: 0.1679E-01   max: -.1056E+00   D at   84  2
       a = -4.000      CL = -0.2558
      Cm = -0.0413     CD =  0.01113   =>   CDf =  0.00625    CDp =  0.00488

 Side 1  free  transition at x/c =  0.9773   75
 Side 2  free  transition at x/c =  0.0168   14

  27   rms: 0.2550E-02   max: 0.3566E-01   D at   14  2
       a = -4.000      CL = -0.2553
      Cm = -0.0415     CD =  0.01115   =>   CDf =  0.00624    CDp =  0.00491

 Side 1  free  transition at x/c =  0.9776   75
 Side 2  free  transition at x/c =  0.0167   14

  28   rms: 0.4845E-04   max: 0.6021E-03   D at   14  2
       a = -4.000      CL = -0.2553
      Cm = -0.0415     CD =  0.01115   =>   CDf =  0.00624    CDp =  0.00491
 plradd ia,ip,cpol            1           0  6.29319169E-04

 Point added to stored polar  1
 Point written to save file  rg12a_Re500k.base.pol                           
 Dump file unspecified or not available
 Calculating wake trajectory ...
 Calculating source influence matrix ...

 Solving BL system ...

 Side 1  free  transition at x/c =  0.9776   75
 Side 2  free  transition at x/c =  0.0167   14

   1   rms: 0.1406E+00   max: -.9700E+00   T at   14  2   RLX: 0.515
       a = -3.500      CL = -0.2198
      Cm = -0.0431     CD =  0.01048   =>   CDf =  0.00624    CDp =  0.00425

 Side 1  free  transition at x/c =  0.9734   75
 Side 2  free  transition at x/c =  0.0211   14

   2   rms: 0.7195E-01   max: -.5539E+00   T at   14  2   RLX: 0.903
       a = -3.500      CL = -0.1850
      Cm = -0.0451     CD =  0.01042   =>   CDf =  0.00622    CDp =  0.00419

 Side 1  free  transition at x/c =  0.9717   75
 Side 2  free  transition at x/c =  0.0276   15

   3   rms: 0.3284E-01   max: 0.4906E+00   D at   15  2
       a = -3.500      CL = -0.1815
      Cm = -0.0453     CD =  0.00997   =>   CDf =  0.00632    CDp =  0.00365

 Side 1  free  transition at x/c =  0.9718   75
 Side 2  free  transition at x/c =  0.0354   16

   4   rms: 0.2543E-01   max: 0.2764E+00   D at   16  2
       a = -3.500      CL = -0.1818
      Cm = -0.0453     CD =  0.00986   =>   CDf =  0.00625    CDp =  0.00360

 Side 1  free  transition at x/c =  0.9718   75
 Side 2  free  transition at x/c =  0.0427   17

   5   rms: 0.2780E-02   max: -.2646E-01   C at   17  2
       a = -3.500      CL = -0.1817
      Cm = -0.0453     CD =  0.00989   =>   CDf =  0.00622    CDp =  0.00367

 Side 1  free  transition at x/c =  0.9718   75
 Side 2  free  transition at x/c =  0.0437   17

   6   rms: 0.3695E-03   max: -.5779E-02   D at   17  2
       a = -3.500      CL = -0.1817
      Cm = -0.0453     CD =  0.00989   =>   CDf =  0.00621    CDp =  0.00368

 Side 1  free  transition at x/c =  0.9718   75
 Side 2  free  transition at x/c =  0.0436   17

   7   rms: 0.9554E-05   max: -.1409E-03   D at   17  2
       a = -3.500      CL = -0.1817
      Cm = -0.0453     CD =  0.00989   =>   CDf =  0.00621    CDp =  0.00368
 plradd ia,ip,cpol            2           0  6.29319169E-04

 Point added to stored polar  1
 Point written to save file  rg12a_Re500k.base.pol                           
 Dump file unspecified or not available
 Calculating wake trajectory ...
 Calculating source influence matrix ...

 Solving BL system ...

 Side 1  free  transition at x/c =  0.9718   75
 Side 2  free  transition at x/c =  0.0436   17

   1   rms: 0.5266E+00   max: 0.6186E+01   D at   17  2   RLX: 0.136
       a = -3.000      CL = -0.1720
      Cm = -0.0459     CD =  0.00948   =>   CDf =  0.00621    CDp =  0.00326

 Side 1  free  transition at x/c =  0.9712   75
 Side 2  free  transition at x/c =  0.0816   20

   2   rms: 0.1547E+00   max: 0.1483E+01   D at   20  2   RLX: 0.475
       a = -3.000      CL = -0.1427
      Cm = -0.0485     CD =  0.00921   =>   CDf =  0.00610    CDp =  0.00310

 Side 1  free  transition at x/c =  0.9698   75
 Side 2  free  transition at x/c =  0.1052   20

   3   rms: 0.7904E-01   max: 0.9031E+00   T at   75  1   RLX: 0.575
       a = -3.000      CL = -0.1548
      Cm = -0.0420     CD =  0.00908   =>   CDf =  0.00595    CDp =  0.00313

 Side 1  free  transition at x/c =  0.9518   74
 Side 2  free  transition at x/c =  0.1106   21

   4   rms: 0.1455E+00   max: -.1792E+01   C at   21  2   RLX: 0.279
       a = -3.000      CL = -0.1396
      Cm = -0.0441     CD =  0.00969   =>   CDf =  0.00594    CDp =  0.00375

 Side 1  free  transition at x/c =  0.9571   74
 Side 2  free  transition at x/c =  0.1210   21

   5   rms: 0.1270E+00   max: -.1310E+01   C at   74  1   RLX: 0.382
       a = -3.000      CL = -0.1629
      Cm = -0.0382     CD =  0.00950   =>   CDf =  0.00592    CDp =  0.00357

 Side 1  free  transition at x/c =  0.9427   73
 Side 2  free  transition at x/c =  0.1093   21

   6   rms: 0.9175E+00   max: -.8759E+01   C at   21  2   RLX: 0.057
       a = -3.000      CL = -0.1395
      Cm = -0.0425     CD =  0.01052   =>   CDf =  0.00595    CDp =  0.00457

 Side 1  free  transition at x/c =  0.9581   75
 Side 2  free  transition at x/c =  0.1204   21

   7   rms: 0.4031E-01   max: -.4161E+00   T at   21  2
       a = -3.000      CL = -0.1161
      Cm = -0.0476     CD =  0.00909   =>   CDf =  0.00597    CDp =  0.00312

 MRCHDU: Convergence failed at  22  side 2    Res =  0.2842E+01
 Side 1  free  transition at x/c =  0.9614   75
 Side 2  free  transition at x/c =  0.1875   26

   8   rms: 0.1147E+00   max: -.2350E+01   C at   26  2   RLX: 0.213
       a = -3.000      CL = -0.1252
      Cm = -0.0484     CD =  0.00874   =>   CDf =  0.00572    CDp =  0.00302

 Side 1  free  transition at x/c =  0.9616   75
 Side 2  free  transition at x/c =  0.1899   26

   9   rms: 0.6336E-01   max: -.1194E+01   C at   26  2   RLX: 0.419
       a = -3.000      CL = -0.1217
      Cm = -0.0483     CD =  0.00869   =>   CDf =  0.00567    CDp =  0.00302

 Side 1  free  transition at x/c =  0.9620   75
 Side 2  free  transition at x/c =  0.1996   27

  10   rms: 0.2939E-01   max: -.4709E+00   C at   27  2
       a = -3.000      CL = -0.1164
      Cm = -0.0480     CD =  0.00854   =>   CDf =  0.00560    CDp =  0.00295

 Side 1  free  transition at x/c =  0.9625   75
 Side 2  free  transition at x/c =  0.1867   26

  11   rms: 0.6863E-02   max: -.1249E+00   D at   26  2
       a = -3.000      CL = -0.1159
      Cm = -0.0480     CD =  0.00868   =>   CDf =  0.00563    CDp =  0.00305

 Side 1  free  transition at x/c =  0.9625   75
 Side 2  free  transition at x/c =  0.1778   26

  12   rms: 0.1839E-02   max: -.3134E-01   C at   26  2
       a = -3.000      CL = -0.1158
      Cm = -0.0480     CD =  0.00871   =>   CDf =  0.00566    CDp =  0.00305

 Side 1  free  transition at x/c =  0.9625   75
 Side 2  free  transition at x/c =  0.1783   26

  13   rms: 0.3953E-04   max: 0.6874E-03   C at   26  2
       a = -3.000      CL = -0.1158
      Cm = -0.0480     CD =  0.00871   =>   CDf =  0.00565    CDp =  0.00305
 plradd ia,ip,cpol            3           0  6.29319169E-04

 Point added to stored polar  1
 Point written to save file  rg12a_Re500k.base.pol                           
 Dump file unspecified or not available
 Calculating wake trajectory ...
 Calculating source influence matrix ...

 Solving BL system ...

 Side 1  free  transition at x/c =  0.9625   75
 Side 2  free  transition at x/c =  0.1783   26

   1   rms: 0.3733E+00   max: -.6796E+01   C at   26  2   RLX: 0.074
       a = -2.500      CL = -0.1107
      Cm = -0.0483     CD =  0.00859   =>   CDf =  0.00565    CDp =  0.00294

 Side 1  free  transition at x/c =  0.9620   75
 Side 2  free  transition at x/c =  0.1894   26

   2   rms: 0.2474E+00   max: -.4871E+01   C at   26  2   RLX: 0.103
       a = -2.500      CL = -0.1032
      Cm = -0.0487     CD =  0.00855   =>   CDf =  0.00561    CDp =  0.00293

 Side 1  free  transition at x/c =  0.9613   75
 Side 2  free  transition at x/c =  0.2064   28

   3   rms: 0.2959E+00   max: -.5217E+01   C at   28  2   RLX: 0.096
       a = -2.500      CL = -0.0976
      Cm = -0.0490     CD =  0.00840   =>   CDf =  0.00556    CDp =  0.00285

 Side 1  free  transition at x/c =  0.9608   75
 Side 2  free  transition at x/c =  0.2186   28

   4   rms: 0.2426E+00   max: -.4893E+01   C at   28  2   RLX: 0.102
       a = -2.500      CL = -0.0915
      Cm = -0.0493     CD =  0.00837   =>   CDf =  0.00551    CDp =  0.00286

 Side 1  free  transition at x/c =  0.9603   75
 Side 2  free  transition at x/c =  0.2324   29

   5   rms: 0.2757E+00   max: -.5664E+01   C at   29  2   RLX: 0.088
       a = -2.500      CL = -0.0871
      Cm = -0.0496     CD =  0.00828   =>   CDf =  0.00546    CDp =  0.00282

 Side 1  free  transition at x/c =  0.9600   75
 Side 2  free  transition at x/c =  0.2431   30

   6   rms: 0.2779E+00   max: -.5704E+01   C at   30  2   RLX: 0.088
       a = -2.500      CL = -0.0830
      Cm = -0.0499     CD =  0.00821   =>   CDf =  0.00542    CDp =  0.00279

 Side 1  free  transition at x/c =  0.9597   75
 Side 2  free  transition at x/c =  0.2534   31

   7   rms: 0.2730E+00   max: -.5492E+01   C at   31  2   RLX: 0.091
       a = -2.500      CL = -0.0790
      Cm = -0.0501     CD =  0.00814   =>   CDf =  0.00538    CDp =  0.00276

 Side 1  free  transition at x/c =  0.9594   75
 Side 2  free  transition at x/c =  0.2643   32

   8   rms: 0.2704E+00   max: -.5228E+01   C at   32  2   RLX: 0.096
       a = -2.500      CL = -0.0752
      Cm = -0.0504     CD =  0.00806   =>   CDf =  0.00534    CDp =  0.00272

 Side 1  free  transition at x/c =  0.9592   75
 Side 2  free  transition at x/c =  0.2764   32

   9   rms: 0.2676E+00   max: -.5450E+01   C at   32  2   RLX: 0.092
       a = -2.500      CL = -0.0718
      Cm = -0.0506     CD =  0.00802   =>   CDf =  0.00529    CDp =  0.00272

 Side 1  free  transition at x/c =  0.9590   75
 Side 2  free  transition at x/c =  0.2897   33

  10   rms: 0.3228E+00   max: -.6546E+01   C at   33  2   RLX: 0.076
       a = -2.500      CL = -0.0695
      Cm = -0.0508     CD =  0.00794   =>   CDf =  0.00524    CDp =  0.00270

 Side 1  free  transition at x/c =  0.9588   75
 Side 2  free  transition at x/c =  0.2999   34

  11   rms: 0.2945E+00   max: -.5994E+01   C at   34  2   RLX: 0.083
       a = -2.500      CL = -0.0671
      Cm = -0.0509     CD =  0.00788   =>   CDf =  0.00520    CDp =  0.00268

 Side 1  free  transition at x/c =  0.9587   75
 Side 2  free  transition at x/c =  0.3115   35

  12   rms: 0.2733E+00   max: -.5527E+01   C at   35  2   RLX: 0.090
       a = -2.500      CL = -0.0647
      Cm = -0.0511     CD =  0.00782   =>   CDf =  0.00516    CDp =  0.00266

 Side 1  free  transition at x/c =  0.9585   75
 Side 2  free  transition at x/c =  0.3243   36

  13   rms: 0.2636E+00   max: -.5296E+01   C at   36  2   RLX: 0.094
       a = -2.500      CL = -0.0624
      Cm = -0.0513     CD =  0.00775   =>   CDf =  0.00511    CDp =  0.00264

 Side 1  free  transition at x/c =  0.9584   75
 Side 2  free  transition at x/c =  0.3376   37

  14   rms: 0.2500E+00   max: -.4993E+01   C at   37  2   RLX: 0.100
       a = -2.500      CL = -0.0603
      Cm = -0.0515     CD =  0.00768   =>   CDf =  0.00506    CDp =  0.00262

 Side 1  free  transition at x/c =  0.9582   75
 Side 2  free  transition at x/c =  0.3502   38

  15   rms: 0.2274E+00   max: -.4470E+01   C at   38  2   RLX: 0.112
       a = -2.500      CL = -0.0582
      Cm = -0.0516     CD =  0.00761   =>   CDf =  0.00502    CDp =  0.00260

 Side 1  free  transition at x/c =  0.9581   75
 Side 2  free  transition at x/c =  0.3627   39

  16   rms: 0.2040E+00   max: -.3950E+01   C at   39  2   RLX: 0.127
       a = -2.500      CL = -0.0560
      Cm = -0.0518     CD =  0.00755   =>   CDf =  0.00497    CDp =  0.00258

 Side 1  free  transition at x/c =  0.9580   75
 Side 2  free  transition at x/c =  0.3758   39

  17   rms: 0.1849E+00   max: -.3621E+01   C at   39  2   RLX: 0.138
       a = -2.500      CL = -0.0539
      Cm = -0.0520     CD =  0.00751   =>   CDf =  0.00492    CDp =  0.00259

 Side 1  free  transition at x/c =  0.9579   75
 Side 2  free  transition at x/c =  0.3912   41

  18   rms: 0.1721E+00   max: -.3326E+01   C at   41  2   RLX: 0.150
       a = -2.500      CL = -0.0523
      Cm = -0.0521     CD =  0.00741   =>   CDf =  0.00487    CDp =  0.00255

 Side 1  free  transition at x/c =  0.9578   75
 Side 2  free  transition at x/c =  0.4043   41

  19   rms: 0.1556E+00   max: -.3006E+01   C at   41  2   RLX: 0.166
       a = -2.500      CL = -0.0505
      Cm = -0.0523     CD =  0.00737   =>   CDf =  0.00482    CDp =  0.00255

 Side 1  free  transition at x/c =  0.9577   75
 Side 2  free  transition at x/c =  0.4191   43

  20   rms: 0.1271E+00   max: -.2448E+01   C at   43  2   RLX: 0.204
       a = -2.500      CL = -0.0490
      Cm = -0.0524     CD =  0.00728   =>   CDf =  0.00476    CDp =  0.00251

 Side 1  free  transition at x/c =  0.9576   75
 Side 2  free  transition at x/c =  0.4324   43

  21   rms: 0.1032E+00   max: -.1980E+01   C at   43  2   RLX: 0.253
       a = -2.500      CL = -0.0472
      Cm = -0.0525     CD =  0.00724   =>   CDf =  0.00471    CDp =  0.00252

 Side 1  free  transition at x/c =  0.9575   75
 Side 2  free  transition at x/c =  0.4492   45

  22   rms: 0.8187E-01   max: -.1572E+01   C at   45  2   RLX: 0.318
       a = -2.500      CL = -0.0460
      Cm = -0.0526     CD =  0.00714   =>   CDf =  0.00465    CDp =  0.00249

 Side 1  free  transition at x/c =  0.9574   75
 Side 2  free  transition at x/c =  0.4625   46

  23   rms: 0.5880E-01   max: -.1127E+01   C at   46  2   RLX: 0.444
       a = -2.500      CL = -0.0447
      Cm = -0.0527     CD =  0.00708   =>   CDf =  0.00461    CDp =  0.00247

 Side 1  free  transition at x/c =  0.9573   75
 Side 2  free  transition at x/c =  0.4762   47

  24   rms: 0.3885E-01   max: -.7438E+00   C at   47  2   RLX: 0.672
       a = -2.500      CL = -0.0438
      Cm = -0.0527     CD =  0.00702   =>   CDf =  0.00456    CDp =  0.00246

 Side 1  free  transition at x/c =  0.9572   74
 Side 2  free  transition at x/c =  0.4903   47

  25   rms: 0.1042E+00   max: 0.1844E+01   C at   47  2   RLX: 0.814
       a = -2.500      CL = -0.0647
      Cm = -0.0478     CD =  0.00725   =>   CDf =  0.00450    CDp =  0.00274

 Side 1  free  transition at x/c =  0.9450   74
 Side 2  free  transition at x/c =  0.4234   43

  26   rms: 0.7287E-01   max: -.1224E+01   C at   43  2   RLX: 0.409
       a = -2.500      CL = -0.0601
      Cm = -0.0485     CD =  0.00761   =>   CDf =  0.00476    CDp =  0.00285

 Side 1  free  transition at x/c =  0.9473   74
 Side 2  free  transition at x/c =  0.4404   44

  27   rms: 0.6115E-01   max: -.1084E+01   C at   44  2   RLX: 0.461
       a = -2.500      CL = -0.0558
      Cm = -0.0496     CD =  0.00739   =>   CDf =  0.00469    CDp =  0.00270

 Side 1  free  transition at x/c =  0.9497   74
 Side 2  free  transition at x/c =  0.4571   45

  28   rms: 0.4553E-01   max: -.8174E+00   C at   45  2   RLX: 0.612
       a = -2.500      CL = -0.0518
      Cm = -0.0506     CD =  0.00721   =>   CDf =  0.00462    CDp =  0.00259

 Side 1  free  transition at x/c =  0.9522   74
 Side 2  free  transition at x/c =  0.4726   46

  29   rms: 0.2530E-01   max: -.4511E+00   C at   46  2
       a = -2.500      CL = -0.0477
      Cm = -0.0517     CD =  0.00706   =>   CDf =  0.00457    CDp =  0.00249

 Side 1  free  transition at x/c =  0.9548   74
 Side 2  free  transition at x/c =  0.4879   47

  30   rms: 0.8185E-02   max: -.1476E+00   C at   47  2
       a = -2.500      CL = -0.0462
      Cm = -0.0520     CD =  0.00703   =>   CDf =  0.00451    CDp =  0.00252

 Side 1  free  transition at x/c =  0.9557   74
 Side 2  free  transition at x/c =  0.4931   48

  31   rms: 0.2651E-02   max: -.5007E-01   C at   48  2
       a = -2.500      CL = -0.0459
      Cm = -0.0521     CD =  0.00702   =>   CDf =  0.00449    CDp =  0.00253

 Side 1  free  transition at x/c =  0.9559   74
 Side 2  free  transition at x/c =  0.4944   48

  32   rms: 0.1099E-03   max: -.2052E-02   C at   48  2
       a = -2.500      CL = -0.0459
      Cm = -0.0521     CD =  0.00702   =>   CDf =  0.00449    CDp =  0.00254

 Side 1  free  transition at x/c =  0.9559   74
 Side 2  free  transition at x/c =  0.4944   48

  33   rms: 0.7141E-06   max: -.7509E-05   C at   48  2
       a = -2.500      CL = -0.0459
      Cm = -0.0521     CD =  0.00702   =>   CDf =  0.00449    CDp =  0.00254
 plradd ia,ip,cpol            4           0  6.29319169E-04

 Point added to stored polar  1
 Point written to save file  rg12a_Re500k.base.pol                           
 Dump file unspecified or not available
 Calculating wake trajectory ...
 Calculating source influence matrix ...

 Solving BL system ...

 Side 1  free  transition at x/c =  0.9559   74
 Side 2  free  transition at x/c =  0.4945   48

   1   rms: 0.4691E+00   max: -.8787E+01   C at   48  2   RLX: 0.057
       a = -2.000      CL = -0.0450
      Cm = -0.0516     CD =  0.00693   =>   CDf =  0.00449    CDp =  0.00244

 Side 1  free  transition at x/c =  0.9539   74
 Side 2  free  transition at x/c =  0.5097   49

   2   rms: 0.5771E+00   max: -.1084E+02   C at   49  2   RLX: 0.046
       a = -2.000      CL = -0.0426
      Cm = -0.0517     CD =  0.00687   =>   CDf =  0.00443    CDp =  0.00244

 Side 1  free  transition at x/c =  0.9532   74
 Side 2  free  transition at x/c =  0.5263   50

   3   rms: 0.5398E+00   max: -.1005E+02   C at   50  2   RLX: 0.050
       a = -2.000      CL = -0.0400
      Cm = -0.0517     CD =  0.00680   =>   CDf =  0.00437    CDp =  0.00243

 Side 1  free  transition at x/c =  0.9525   74
 Side 2  free  transition at x/c =  0.5455   51

   4   rms: 0.4560E+00   max: -.8357E+01   C at   51  2   RLX: 0.060
       a = -2.000      CL = -0.0369
      Cm = -0.0518     CD =  0.00672   =>   CDf =  0.00430    CDp =  0.00242

 Side 1  free  transition at x/c =  0.9518   74
 Side 2  free  transition at x/c =  0.5730   53

   5   rms: 0.4363E+00   max: -.7955E+01   C at   53  2   RLX: 0.063
       a = -2.000      CL = -0.0342
      Cm = -0.0517     CD =  0.00660   =>   CDf =  0.00420    CDp =  0.00241

 Side 1  free  transition at x/c =  0.9513   74
 Side 2  free  transition at x/c =  0.6008   55

   6   rms: 0.3653E+00   max: -.6576E+01   C at   55  2   RLX: 0.076
       a = -2.000      CL = -0.0310
      Cm = -0.0517     CD =  0.00649   =>   CDf =  0.00415    CDp =  0.00235

 Side 1  free  transition at x/c =  0.9506   75
 Side 2  free  transition at x/c =  0.6316   56

   7   rms: 0.2815E+00   max: -.4205E+01   C at   56  2   RLX: 0.119
       a = -2.000      CL = -0.0260
      Cm = -0.0516     CD =  0.00639   =>   CDf =  0.00399    CDp =  0.00240

 Side 1  free  transition at x/c =  0.9498   75
 Side 2  free  transition at x/c =  0.6710   59

   8   rms: 0.8785E-01   max: -.6871E+00   C at   59  2   RLX: 0.728
       a = -2.000      CL =  0.0060
      Cm = -0.0530     CD =  0.00622   =>   CDf =  0.00387    CDp =  0.00235

 Side 1  free  transition at x/c =  0.9456   75
 Side 2  free  transition at x/c =  0.7594   65

   9   rms: 0.3504E-01   max: 0.3813E+00   D at   60  2
       a = -2.000      CL =  0.0177
      Cm = -0.0534     CD =  0.00609   =>   CDf =  0.00370    CDp =  0.00239

 Side 1  free  transition at x/c =  0.9450   75
 Side 2  free  transition at x/c =  0.7478   65

  10   rms: 0.1532E-01   max: -.2225E+00   D at   65  2
       a = -2.000      CL =  0.0182
      Cm = -0.0536     CD =  0.00609   =>   CDf =  0.00374    CDp =  0.00235

 Side 1  free  transition at x/c =  0.9450   75
 Side 2  free  transition at x/c =  0.7404   64

  11   rms: 0.1889E-02   max: -.2349E-01   C at   64  2
       a = -2.000      CL =  0.0183
      Cm = -0.0536     CD =  0.00611   =>   CDf =  0.00374    CDp =  0.00237

 Side 1  free  transition at x/c =  0.9450   75
 Side 2  free  transition at x/c =  0.7403   64

  12   rms: 0.2582E-04   max: -.4205E-03   D at   67  2
       a = -2.000      CL =  0.0183
      Cm = -0.0536     CD =  0.00611   =>   CDf =  0.00374    CDp =  0.00237
 plradd ia,ip,cpol            5           0  1.81795866E-03

 Point added to stored polar  1
 Point written to save file  rg12a_Re500k.base.pol                           
 Dump file unspecified or not available
 Calculating wake trajectory ...
 Calculating source influence matrix ...

 Solving BL system ...

 Side 1  free  transition at x/c =  0.9450   75
 Side 2  free  transition at x/c =  0.7403   64

   1   rms: 0.1183E+00   max: 0.4589E+00   D at   65  2
       a = -1.500      CL =  0.0940
      Cm = -0.0573     CD =  0.00587   =>   CDf =  0.00378    CDp =  0.00210

 Side 1  free  transition at x/c =  0.9361   75
 Side 2  free  transition at x/c =  0.7864   66

   2   rms: 0.3049E-01   max: 0.2405E+00   C at   66  2
       a = -1.500      CL =  0.0812
      Cm = -0.0545     CD =  0.00589   =>   CDf =  0.00370    CDp =  0.00219

 Side 1  free  transition at x/c =  0.9266   74
 Side 2  free  transition at x/c =  0.7877   66

   3   rms: 0.1185E-01   max: -.6299E-01   C at   74  1
       a = -1.500      CL =  0.0869
      Cm = -0.0557     CD =  0.00590   =>   CDf =  0.00378    CDp =  0.00212

 Side 1  free  transition at x/c =  0.9312   75
 Side 2  free  transition at x/c =  0.7891   67

   4   rms: 0.3727E-02   max: -.3285E-01   D at   66  2
       a = -1.500      CL =  0.0852
      Cm = -0.0553     CD =  0.00590   =>   CDf =  0.00376    CDp =  0.00214

 Side 1  free  transition at x/c =  0.9302   75
 Side 2  free  transition at x/c =  0.7886   67

   5   rms: 0.1604E-03   max: 0.1532E-02   C at   67  2
       a = -1.500      CL =  0.0851
      Cm = -0.0553     CD =  0.00590   =>   CDf =  0.00375    CDp =  0.00215

 Side 1  free  transition at x/c =  0.9302   75
 Side 2  free  transition at x/c =  0.7886   67

   6   rms: 0.1272E-05   max: -.8982E-05   D at   77  1
       a = -1.500      CL =  0.0851
      Cm = -0.0553     CD =  0.00590   =>   CDf =  0.00375    CDp =  0.00215
 plradd ia,ip,cpol            6           0  1.81795866E-03

 Point added to stored polar  1
 Point written to save file  rg12a_Re500k.base.pol                           
 Dump file unspecified or not available
 Calculating wake trajectory ...
 Calculating source influence matrix ...

 Solving BL system ...

 Side 1  free  transition at x/c =  0.9302   75
 Side 2  free  transition at x/c =  0.7886   67

   1   rms: 0.1368E+00   max: 0.8035E+00   D at   68  2   RLX: 0.883
       a = -1.000      CL =  0.1487
      Cm = -0.0575     CD =  0.00561   =>   CDf =  0.00376    CDp =  0.00185

 Side 1  free  transition at x/c =  0.9176   74
 Side 2  free  transition at x/c =  0.8031   68

   2   rms: 0.1241E+00   max: -.9571E+00   T at   68  2   RLX: 0.522
       a = -1.000      CL =  0.1524
      Cm = -0.0590     CD =  0.00587   =>   CDf =  0.00391    CDp =  0.00196

 Side 1  free  transition at x/c =  0.9129   73
 Side 2  free  transition at x/c =  0.8113   68

   3   rms: 0.6444E-01   max: -.6070E+00   D at   69  2   RLX: 0.824
       a = -1.000      CL =  0.1476
      Cm = -0.0566     CD =  0.00601   =>   CDf =  0.00386    CDp =  0.00215

 Side 1  free  transition at x/c =  0.9050   73
 Side 2  free  transition at x/c =  0.8263   69

   4   rms: 0.1713E-01   max: 0.2079E+00   C at   69  2
       a = -1.000      CL =  0.1470
      Cm = -0.0559     CD =  0.00577   =>   CDf =  0.00373    CDp =  0.00204

 Side 1  free  transition at x/c =  0.9060   73
 Side 2  free  transition at x/c =  0.8224   69

   5   rms: 0.3069E-02   max: -.3736E-01   D at   72  2
       a = -1.000      CL =  0.1465
      Cm = -0.0558     CD =  0.00578   =>   CDf =  0.00375    CDp =  0.00203

 Side 1  free  transition at x/c =  0.9059   73
 Side 2  free  transition at x/c =  0.8214   69

   6   rms: 0.9497E-04   max: -.1557E-02   D at   72  2
       a = -1.000      CL =  0.1465
      Cm = -0.0557     CD =  0.00578   =>   CDf =  0.00376    CDp =  0.00202
 plradd ia,ip,cpol            7           0  0.21105491    

 Point added to stored polar  1
 Point written to save file  rg12a_Re500k.base.pol                           
 Dump file unspecified or not available
 Calculating wake trajectory ...
 Calculating source influence matrix ...

 Solving BL system ...

 Side 1  free  transition at x/c =  0.9059   73
 Side 2  free  transition at x/c =  0.8214   69

   1   rms: 0.1061E+00   max: -.4187E+00   T at   69  2
       a = -0.500      CL =  0.2123
      Cm = -0.0571     CD =  0.00567   =>   CDf =  0.00378    CDp =  0.00189

 Side 1  free  transition at x/c =  0.8756   72
 Side 2  free  transition at x/c =  0.8384   69

   2   rms: 0.1955E-01   max: 0.1596E+00   D at   73  1
       a = -0.500      CL =  0.2060
      Cm = -0.0559     CD =  0.00576   =>   CDf =  0.00390    CDp =  0.00186

 Side 1  free  transition at x/c =  0.8738   71
 Side 2  free  transition at x/c =  0.8444   69

   3   rms: 0.3013E-02   max: -.3791E-01   D at   70  2
       a = -0.500      CL =  0.2065
      Cm = -0.0560     CD =  0.00576   =>   CDf =  0.00388    CDp =  0.00188

 Side 1  free  transition at x/c =  0.8740   71
 Side 2  free  transition at x/c =  0.8446   69

   4   rms: 0.6118E-04   max: 0.1147E-02   D at   70  2
       a = -0.500      CL =  0.2065
      Cm = -0.0560     CD =  0.00576   =>   CDf =  0.00388    CDp =  0.00189
 plradd ia,ip,cpol            8           0  0.18348832    

 Point added to stored polar  1
 Point written to save file  rg12a_Re500k.base.pol                           
 Dump file unspecified or not available
 Calculating wake trajectory ...
 Calculating source influence matrix ...

 Solving BL system ...

 Side 1  free  transition at x/c =  0.8740   71
 Side 2  free  transition at x/c =  0.8446   69

   1   rms: 0.8895E-01   max: -.3795E+00   T at   69  2
       a =  0.000      CL =  0.2574
      Cm = -0.0547     CD =  0.00585   =>   CDf =  0.00388    CDp =  0.00197

 MRCHDU: Convergence failed at  71  side 2    Res =  0.5532E+01
 MRCHDU: Convergence failed at  72  side 2    Res =  0.4222E+01
 MRCHDU: Convergence failed at  73  side 2    Res =  0.2530E+01
 MRCHDU: Convergence failed at  74  side 2    Res =  0.4391E+01
 MRCHDU: Convergence failed at  75  side 2    Res =  0.7506E+01
 MRCHDU: Convergence failed at  76  side 2    Res =  0.1361E+02
 MRCHDU: Convergence failed at  77  side 2    Res =  0.2116E+02
 MRCHDU: Convergence failed at  78  side 2    Res =  0.2758E+02
 MRCHDU: Convergence failed at  79  side 2    Res =  0.2727E+02
 MRCHDU: Convergence failed at  80  side 2    Res =  0.1997E+02
 MRCHDU: Convergence failed at  81  side 2    Res =  0.1149E+02
 Side 1  free  transition at x/c =  0.8229   68
 Side 2  free  transition at x/c =  0.8667   71

   2   rms: 0.1392E+00   max: 0.8109E+00   T at   79  2   RLX: 0.703
       a =  0.000      CL =  0.2389
      Cm = -0.0473     CD =  0.00541   =>   CDf =  0.00380    CDp =  0.00160

 Side 1  free  transition at x/c =  0.8296   68
 Side 2  free  transition at x/c =  0.8647   71

   3   rms: 0.3251E-01   max: -.3276E+00   D at   72  2
       a =  0.000      CL =  0.2602
      Cm = -0.0549     CD =  0.00584   =>   CDf =  0.00407    CDp =  0.00176

 Side 1  free  transition at x/c =  0.8330   69
 Side 2  free  transition at x/c =  0.8633   71

   4   rms: 0.2841E-02   max: -.3603E-01   C at   69  1
       a =  0.000      CL =  0.2599
      Cm = -0.0548     CD =  0.00583   =>   CDf =  0.00401    CDp =  0.00182

 Side 1  free  transition at x/c =  0.8328   69
 Side 2  free  transition at x/c =  0.8632   71

   5   rms: 0.1035E-03   max: 0.1590E-02   C at   69  1
       a =  0.000      CL =  0.2599
      Cm = -0.0548     CD =  0.00583   =>   CDf =  0.00399    CDp =  0.00183

 Side 1  free  transition at x/c =  0.8327   69
 Side 2  free  transition at x/c =  0.8632   71

   6   rms: 0.9887E-06   max: 0.1103E-04   C at   69  1
       a =  0.000      CL =  0.2599
      Cm = -0.0548     CD =  0.00583   =>   CDf =  0.00399    CDp =  0.00183
 plradd ia,ip,cpol            9           0  0.15616518    

 Point added to stored polar  1
 Point written to save file  rg12a_Re500k.base.pol                           
 Dump file unspecified or not available
 Calculating wake trajectory ...
 Calculating source influence matrix ...

 Solving BL system ...

 Side 1  free  transition at x/c =  0.8327   69
 Side 2  free  transition at x/c =  0.8632   71

   1   rms: 0.1017E+00   max: 0.8012E+00   C at   69  1
       a =  0.500      CL =  0.3132
      Cm = -0.0535     CD =  0.00597   =>   CDf =  0.00398    CDp =  0.00199

 Side 1  free  transition at x/c =  0.7862   66
 Side 2  free  transition at x/c =  0.8774   71

   2   rms: 0.2613E-01   max: 0.2736E+00   D at   69  1
       a =  0.500      CL =  0.3102
      Cm = -0.0530     CD =  0.00594   =>   CDf =  0.00419    CDp =  0.00176

 Side 1  free  transition at x/c =  0.7886   66
 Side 2  free  transition at x/c =  0.8814   71

   3   rms: 0.3811E-02   max: -.5079E-01   D at   69  1
       a =  0.500      CL =  0.3103
      Cm = -0.0531     CD =  0.00596   =>   CDf =  0.00413    CDp =  0.00183

 Side 1  free  transition at x/c =  0.7869   66
 Side 2  free  transition at x/c =  0.8815   71

   4   rms: 0.9228E-04   max: -.1860E-02   D at   69  1
       a =  0.500      CL =  0.3103
      Cm = -0.0531     CD =  0.00596   =>   CDf =  0.00414    CDp =  0.00182
 plradd ia,ip,cpol           10           0  0.14261061    

 Point added to stored polar  1
 Point written to save file  rg12a_Re500k.base.pol                           
 Dump file unspecified or not available
 Calculating wake trajectory ...
 Calculating source influence matrix ...

 Solving BL system ...

 Side 1  free  transition at x/c =  0.7869   66
 Side 2  free  transition at x/c =  0.8815   71

   1   rms: 0.8958E-01   max: -.3362E+00   T at   71  2
       a =  1.000      CL =  0.3598
      Cm = -0.0513     CD =  0.00607   =>   CDf =  0.00414    CDp =  0.00193

 Side 1  free  transition at x/c =  0.7322   62
 Side 2  free  transition at x/c =  0.9001   72

   2   rms: 0.2236E-01   max: 0.2408E+00   D at   65  1
       a =  1.000      CL =  0.3587
      Cm = -0.0510     CD =  0.00617   =>   CDf =  0.00441    CDp =  0.00176

 Side 1  free  transition at x/c =  0.7430   63
 Side 2  free  transition at x/c =  0.9017   73

   3   rms: 0.9143E-02   max: 0.1436E+00   C at   63  1
       a =  1.000      CL =  0.3587
      Cm = -0.0510     CD =  0.00614   =>   CDf =  0.00428    CDp =  0.00187

 Side 1  free  transition at x/c =  0.7397   63
 Side 2  free  transition at x/c =  0.9015   73

   4   rms: 0.7301E-03   max: -.8021E-02   D at   65  1
       a =  1.000      CL =  0.3587
      Cm = -0.0510     CD =  0.00614   =>   CDf =  0.00429    CDp =  0.00185

 Side 1  free  transition at x/c =  0.7394   63
 Side 2  free  transition at x/c =  0.9014   73

   5   rms: 0.4594E-05   max: -.4512E-04   C at   63  1
       a =  1.000      CL =  0.3587
      Cm = -0.0510     CD =  0.00614   =>   CDf =  0.00430    CDp =  0.00185
 plradd ia,ip,cpol           11           0  0.11583241    

 Point added to stored polar  1
 Point written to save file  rg12a_Re500k.base.pol                           
 Dump file unspecified or not available
 Calculating wake trajectory ...
 Calculating source influence matrix ...

 Solving BL system ...

 Side 1  free  transition at x/c =  0.7394   63
 Side 2  free  transition at x/c =  0.9014   73

   1   rms: 0.9889E-01   max: 0.8894E+00   C at   63  1
       a =  1.500      CL =  0.4024
      Cm = -0.0476     CD =  0.00620   =>   CDf =  0.00425    CDp =  0.00195

 Side 1  free  transition at x/c =  0.6888   60
 Side 2  free  transition at x/c =  0.9115   72

   2   rms: 0.4234E-01   max: -.4573E+00   D at   72  2
       a =  1.500      CL =  0.4079
      Cm = -0.0494     CD =  0.00647   =>   CDf =  0.00453    CDp =  0.00194

 Side 1  free  transition at x/c =  0.6938   61
 Side 2  free  transition at x/c =  0.9234   73

   3   rms: 0.2158E-01   max: 0.2937E+00   C at   73  2
       a =  1.500      CL =  0.4058
      Cm = -0.0487     CD =  0.00631   =>   CDf =  0.00441    CDp =  0.00190

 Side 1  free  transition at x/c =  0.6925   61
 Side 2  free  transition at x/c =  0.9198   73

   4   rms: 0.4465E-02   max: -.5302E-01   D at   75  2
       a =  1.500      CL =  0.4052
      Cm = -0.0486     CD =  0.00632   =>   CDf =  0.00442    CDp =  0.00190

 Side 1  free  transition at x/c =  0.6926   61
 Side 2  free  transition at x/c =  0.9186   73

   5   rms: 0.2584E-03   max: -.4635E-02   D at   75  2
       a =  1.500      CL =  0.4052
      Cm = -0.0485     CD =  0.00632   =>   CDf =  0.00443    CDp =  0.00189

 Side 1  free  transition at x/c =  0.6926   61
 Side 2  free  transition at x/c =  0.9186   73

   6   rms: 0.1749E-05   max: -.1952E-04   D at   75  2
       a =  1.500      CL =  0.4052
      Cm = -0.0485     CD =  0.00632   =>   CDf =  0.00443    CDp =  0.00189
 plradd ia,ip,cpol           12           0  8.96353200E-02

 Point added to stored polar  1
 Point written to save file  rg12a_Re500k.base.pol                           
 Dump file unspecified or not available
 Calculating wake trajectory ...
 Calculating source influence matrix ...

 Solving BL system ...

 Side 1  free  transition at x/c =  0.6926   61
 Side 2  free  transition at x/c =  0.9186   73

   1   rms: 0.9993E-01   max: 0.9804E+00   C at   61  1
       a =  2.000      CL =  0.4509
      Cm = -0.0460     CD =  0.00656   =>   CDf =  0.00443    CDp =  0.00213

 Side 1  free  transition at x/c =  0.6440   57
 Side 2  free  transition at x/c =  0.9281   73

   2   rms: 0.3292E-01   max: -.3390E+00   D at   74  2
       a =  2.000      CL =  0.4555
      Cm = -0.0474     CD =  0.00660   =>   CDf =  0.00465    CDp =  0.00195

 Side 1  free  transition at x/c =  0.6470   57
 Side 2  free  transition at x/c =  0.9365   74

   3   rms: 0.1445E-01   max: 0.1835E+00   D at   74  2
       a =  2.000      CL =  0.4534
      Cm = -0.0467     CD =  0.00651   =>   CDf =  0.00458    CDp =  0.00193

 Side 1  free  transition at x/c =  0.6464   57
 Side 2  free  transition at x/c =  0.9337   74

   4   rms: 0.2414E-02   max: -.3057E-01   D at   76  2
       a =  2.000      CL =  0.4532
      Cm = -0.0467     CD =  0.00652   =>   CDf =  0.00457    CDp =  0.00195

 Side 1  free  transition at x/c =  0.6464   57
 Side 2  free  transition at x/c =  0.9330   74

   5   rms: 0.7657E-04   max: -.1529E-02   D at   76  2
       a =  2.000      CL =  0.4532
      Cm = -0.0467     CD =  0.00652   =>   CDf =  0.00458    CDp =  0.00194
 plradd ia,ip,cpol           13           0  6.44092634E-02

 Point added to stored polar  1
 Point written to save file  rg12a_Re500k.base.pol                           
 Dump file unspecified or not available
 Calculating wake trajectory ...
 Calculating source influence matrix ...

 Solving BL system ...

 Side 1  free  transition at x/c =  0.6464   57
 Side 2  free  transition at x/c =  0.9330   74

   1   rms: 0.8790E-01   max: -.2858E+00   T at   74  2
       a =  2.500      CL =  0.5019
      Cm = -0.0449     CD =  0.00658   =>   CDf =  0.00450    CDp =  0.00209

 Side 1  free  transition at x/c =  0.5915   55
 Side 2  free  transition at x/c =  0.9444   74

   2   rms: 0.3492E-01   max: -.2773E+00   C at   55  1
       a =  2.500      CL =  0.5011
      Cm = -0.0449     CD =  0.00664   =>   CDf =  0.00481    CDp =  0.00184

 Side 1  free  transition at x/c =  0.6034   55
 Side 2  free  transition at x/c =  0.9507   74

   3   rms: 0.8535E-02   max: 0.1321E+00   C at   55  1
       a =  2.500      CL =  0.5018
      Cm = -0.0450     CD =  0.00671   =>   CDf =  0.00466    CDp =  0.00206

 Side 1  free  transition at x/c =  0.5987   55
 Side 2  free  transition at x/c =  0.9484   74

   4   rms: 0.7288E-03   max: -.8666E-02   C at   74  2
       a =  2.500      CL =  0.5018
      Cm = -0.0450     CD =  0.00672   =>   CDf =  0.00469    CDp =  0.00203

 Side 1  free  transition at x/c =  0.5988   55
 Side 2  free  transition at x/c =  0.9486   74

   5   rms: 0.3845E-05   max: -.4998E-04   D at   76  2
       a =  2.500      CL =  0.5018
      Cm = -0.0450     CD =  0.00672   =>   CDf =  0.00469    CDp =  0.00203
 plradd ia,ip,cpol           14           0  4.09784019E-02

 Point added to stored polar  1
 Point written to save file  rg12a_Re500k.base.pol                           
 Dump file unspecified or not available
 Calculating wake trajectory ...
 Calculating source influence matrix ...

 Solving BL system ...

 Side 1  free  transition at x/c =  0.5988   55
 Side 2  free  transition at x/c =  0.9486   74

   1   rms: 0.9938E-01   max: 0.9427E+00   C at   55  1
       a =  3.000      CL =  0.5514
      Cm = -0.0435     CD =  0.00692   =>   CDf =  0.00469    CDp =  0.00223

 Side 1  free  transition at x/c =  0.5419   51
 Side 2  free  transition at x/c =  0.9646   75

   2   rms: 0.2664E-01   max: -.2541E+00   D at   52  1
       a =  3.000      CL =  0.5544
      Cm = -0.0443     CD =  0.00698   =>   CDf =  0.00490    CDp =  0.00208

 Side 1  free  transition at x/c =  0.5482   51
 Side 2  free  transition at x/c =  0.9673   75

   3   rms: 0.3537E-02   max: -.5024E-01   C at   51  1
       a =  3.000      CL =  0.5552
      Cm = -0.0445     CD =  0.00699   =>   CDf =  0.00485    CDp =  0.00214

 Side 1  free  transition at x/c =  0.5466   51
 Side 2  free  transition at x/c =  0.9666   75

   4   rms: 0.2540E-03   max: -.4051E-02   C at   51  1
       a =  3.000      CL =  0.5552
      Cm = -0.0445     CD =  0.00699   =>   CDf =  0.00484    CDp =  0.00215

 Side 1  free  transition at x/c =  0.5467   51
 Side 2  free  transition at x/c =  0.9666   75

   5   rms: 0.1414E-05   max: 0.1030E-04   D at    4  2
       a =  3.000      CL =  0.5552
      Cm = -0.0445     CD =  0.00699   =>   CDf =  0.00484    CDp =  0.00215
 plradd ia,ip,cpol           15           0  3.05336136E-02

 Point added to stored polar  1
 Point written to save file  rg12a_Re500k.base.pol                           
 Dump file unspecified or not available
 Calculating wake trajectory ...
 Calculating source influence matrix ...

 Solving BL system ...

 Side 1  free  transition at x/c =  0.5467   51
 Side 2  free  transition at x/c =  0.9666   75

   1   rms: 0.1003E+00   max: 0.7976E+00   C at   51  1
       a =  3.500      CL =  0.6141
      Cm = -0.0453     CD =  0.00719   =>   CDf =  0.00473    CDp =  0.00246

 Side 1  free  transition at x/c =  0.4830   48
 Side 2  free  transition at x/c =  0.9845   76

   2   rms: 0.2887E-01   max: -.2658E+00   C at   48  1
       a =  3.500      CL =  0.6193
      Cm = -0.0466     CD =  0.00733   =>   CDf =  0.00506    CDp =  0.00227

 Side 1  free  transition at x/c =  0.4908   48
 Side 2  free  transition at x/c =  0.9846   76

   3   rms: 0.5588E-02   max: 0.6436E-01   C at   48  1
       a =  3.500      CL =  0.6194
      Cm = -0.0466     CD =  0.00736   =>   CDf =  0.00498    CDp =  0.00238

 Side 1  free  transition at x/c =  0.4884   48
 Side 2  free  transition at x/c =  0.9835   76

   4   rms: 0.1649E-03   max: -.1766E-02   C at   76  2
       a =  3.500      CL =  0.6194
      Cm = -0.0466     CD =  0.00737   =>   CDf =  0.00500    CDp =  0.00237

 Side 1  free  transition at x/c =  0.4884   48
 Side 2  free  transition at x/c =  0.9836   76

   5   rms: 0.1108E-05   max: -.9884E-05   D at   77  2
       a =  3.500      CL =  0.6194
      Cm = -0.0466     CD =  0.00737   =>   CDf =  0.00500    CDp =  0.00237
 plradd ia,ip,cpol           16           0  3.58448247E-03

 Point added to stored polar  1
 Point written to save file  rg12a_Re500k.base.pol                           
 Dump file unspecified or not available
 Calculating wake trajectory ...
 Calculating source influence matrix ...

 Solving BL system ...

 Side 1  free  transition at x/c =  0.4884   48
 Side 2  free  transition at x/c =  0.9836   76

   1   rms: 0.1204E+00   max: 0.1236E+01   C at   48  1   RLX: 0.997
       a =  4.000      CL =  0.6915
      Cm = -0.0506     CD =  0.00773   =>   CDf =  0.00486    CDp =  0.00287

 Side 1  free  transition at x/c =  0.4079   44
 Side 2  free  transition at x/c =  0.9949   76

   2   rms: 0.3600E-01   max: -.3281E+00   C at   44  1
       a =  4.000      CL =  0.6898
      Cm = -0.0503     CD =  0.00783   =>   CDf =  0.00531    CDp =  0.00252

 Side 1  free  transition at x/c =  0.4210   44
 Side 2 forced transition at x/c =  1.0000   76

   3   rms: 0.1448E-01   max: -.2113E+00   C at   76  2
       a =  4.000      CL =  0.6843
      Cm = -0.0492     CD =  0.00789   =>   CDf =  0.00520    CDp =  0.00268

 Side 1  free  transition at x/c =  0.4197   44
 Side 2 forced transition at x/c =  1.0000   76

   4   rms: 0.2439E-02   max: 0.3978E-01   C at   76  2
       a =  4.000      CL =  0.6850
      Cm = -0.0494     CD =  0.00788   =>   CDf =  0.00522    CDp =  0.00267

 Side 1  free  transition at x/c =  0.4193   44
 Side 2 forced transition at x/c =  1.0000   76

   5   rms: 0.1044E-03   max: 0.1695E-02   C at   76  2
       a =  4.000      CL =  0.6850
      Cm = -0.0494     CD =  0.00789   =>   CDf =  0.00522    CDp =  0.00267

 Side 1  free  transition at x/c =  0.4193   44
 Side 2 forced transition at x/c =  1.0000   76

   6   rms: 0.1317E-05   max: 0.1171E-04   C at   76  2
       a =  4.000      CL =  0.6850
      Cm = -0.0494     CD =  0.00789   =>   CDf =  0.00522    CDp =  0.00267
 plradd ia,ip,cpol           17           0  3.58448247E-03

 Point added to stored polar  1
 Point written to save file  rg12a_Re500k.base.pol                           
 Dump file unspecified or not available
 Calculating wake trajectory ...
 Calculating source influence matrix ...

 Solving BL system ...

 Side 1  free  transition at x/c =  0.4193   44
 Side 2 forced transition at x/c =  1.0000   76

   1   rms: 0.1134E+00   max: 0.1081E+01   C at   44  1   RLX: 0.582
       a =  4.500      CL =  0.7099
      Cm = -0.0482     CD =  0.00811   =>   CDf =  0.00522    CDp =  0.00289

 Side 1  free  transition at x/c =  0.3761   41
 Side 2 forced transition at x/c =  1.0000   76

   2   rms: 0.4067E-01   max: -.2447E+00   D at   41  1
       a =  4.500      CL =  0.7330
      Cm = -0.0484     CD =  0.00839   =>   CDf =  0.00542    CDp =  0.00297

 Side 1  free  transition at x/c =  0.3370   39
 Side 2 forced transition at x/c =  1.0000   76

   3   rms: 0.1887E-01   max: -.2891E+00   C at   39  1
       a =  4.500      CL =  0.7315
      Cm = -0.0481     CD =  0.00850   =>   CDf =  0.00558    CDp =  0.00292

 Side 1  free  transition at x/c =  0.3456   39
 Side 2 forced transition at x/c =  1.0000   76

   4   rms: 0.1445E-02   max: -.2689E-01   D at   40  1
       a =  4.500      CL =  0.7312
      Cm = -0.0481     CD =  0.00853   =>   CDf =  0.00550    CDp =  0.00303

 Side 1  free  transition at x/c =  0.3451   39
 Side 2 forced transition at x/c =  1.0000   76

   5   rms: 0.2213E-04   max: 0.4055E-03   C at   39  1
       a =  4.500      CL =  0.7312
      Cm = -0.0481     CD =  0.00853   =>   CDf =  0.00551    CDp =  0.00302
 plradd ia,ip,cpol           18           0  3.58448247E-03

 Point added to stored polar  1
 Point written to save file  rg12a_Re500k.base.pol                           
 Dump file unspecified or not available
 Calculating wake trajectory ...
 Calculating source influence matrix ...

 Solving BL system ...

 Side 1  free  transition at x/c =  0.3451   39
 Side 2 forced transition at x/c =  1.0000   76

   1   rms: 0.1522E+00   max: 0.2322E+01   C at   39  1   RLX: 0.584
       a =  5.000      CL =  0.7595
      Cm = -0.0476     CD =  0.00898   =>   CDf =  0.00551    CDp =  0.00347

 Side 1  free  transition at x/c =  0.2920   35
 Side 2 forced transition at x/c =  1.0000   76

   2   rms: 0.4053E-01   max: -.2283E+00   D at   35  1
       a =  5.000      CL =  0.7808
      Cm = -0.0474     CD =  0.00922   =>   CDf =  0.00576    CDp =  0.00346

 Side 1  free  transition at x/c =  0.2592   33
 Side 2 forced transition at x/c =  1.0000   76

   3   rms: 0.1178E-01   max: -.2225E+00   C at   33  1
       a =  5.000      CL =  0.7794
      Cm = -0.0472     CD =  0.00934   =>   CDf =  0.00588    CDp =  0.00346

 Side 1  free  transition at x/c =  0.2648   33
 Side 2 forced transition at x/c =  1.0000   76

   4   rms: 0.3161E-03   max: -.5943E-02   D at   34  1
       a =  5.000      CL =  0.7794
      Cm = -0.0472     CD =  0.00935   =>   CDf =  0.00585    CDp =  0.00350

 Side 1  free  transition at x/c =  0.2647   33
 Side 2 forced transition at x/c =  1.0000   76

   5   rms: 0.2077E-05   max: 0.2143E-04   C at   33  1
       a =  5.000      CL =  0.7794
      Cm = -0.0472     CD =  0.00935   =>   CDf =  0.00585    CDp =  0.00350
 plradd ia,ip,cpol           19           0  3.58448247E-03

 Point added to stored polar  1
 Point written to save file  rg12a_Re500k.base.pol                           
 Dump file unspecified or not available
 Calculating wake trajectory ...
 Calculating source influence matrix ...

 Solving BL system ...

 Side 1  free  transition at x/c =  0.2647   33
 Side 2 forced transition at x/c =  1.0000   76

   1   rms: 0.1317E+00   max: 0.2030E+01   C at   33  1   RLX: 0.739
       a =  5.500      CL =  0.8168
      Cm = -0.0468     CD =  0.00986   =>   CDf =  0.00565    CDp =  0.00421

 Side 1  free  transition at x/c =  0.1967   29
 Side 2 forced transition at x/c =  1.0000   75

   2   rms: 0.2747E-01   max: -.1688E+00   D at   29  1
       a =  5.500      CL =  0.8278
      Cm = -0.0464     CD =  0.01021   =>   CDf =  0.00616    CDp =  0.00405

 Side 1  free  transition at x/c =  0.1820   28
 Side 2 forced transition at x/c =  1.0000   75

   3   rms: 0.5322E-02   max: -.1029E+00   C at   28  1
       a =  5.500      CL =  0.8268
      Cm = -0.0462     CD =  0.01032   =>   CDf =  0.00620    CDp =  0.00412

 Side 1  free  transition at x/c =  0.1834   28
 Side 2 forced transition at x/c =  1.0000   75

   4   rms: 0.3701E-02   max: -.7997E-01   C at   28  1
       a =  5.500      CL =  0.8268
      Cm = -0.0462     CD =  0.01032   =>   CDf =  0.00620    CDp =  0.00412

 Side 1  free  transition at x/c =  0.1834   28
 Side 2 forced transition at x/c =  1.0000   75

   5   rms: 0.3786E-02   max: -.8168E-01   C at   28  1
       a =  5.500      CL =  0.8268
      Cm = -0.0462     CD =  0.01032   =>   CDf =  0.00620    CDp =  0.00412

 Side 1  free  transition at x/c =  0.1834   28
 Side 2 forced transition at x/c =  1.0000   75

   6   rms: 0.3784E-02   max: -.8163E-01   C at   28  1
       a =  5.500      CL =  0.8268
      Cm = -0.0462     CD =  0.01032   =>   CDf =  0.00620    CDp =  0.00412

 Side 1  free  transition at x/c =  0.1834   28
 Side 2 forced transition at x/c =  1.0000   75

   7   rms: 0.3784E-02   max: -.8164E-01   C at   28  1
       a =  5.500      CL =  0.8268
      Cm = -0.0462     CD =  0.01032   =>   CDf =  0.00620    CDp =  0.00412

 Side 1  free  transition at x/c =  0.1834   28
 Side 2 forced transition at x/c =  1.0000   75

   8   rms: 0.3785E-02   max: -.8164E-01   C at   28  1
       a =  5.500      CL =  0.8268
      Cm = -0.0462     CD =  0.01032   =>   CDf =  0.00620    CDp =  0.00412

 Side 1  free  transition at x/c =  0.1834   28
 Side 2 forced transition at x/c =  1.0000   75

   9   rms: 0.3784E-02   max: -.8164E-01   C at   28  1
       a =  5.500      CL =  0.8268
      Cm = -0.0462     CD =  0.01032   =>   CDf =  0.00620    CDp =  0.00412

 Side 1  free  transition at x/c =  0.1834   28
 Side 2 forced transition at x/c =  1.0000   75

  10   rms: 0.3785E-02   max: -.8164E-01   C at   28  1
       a =  5.500      CL =  0.8268
      Cm = -0.0462     CD =  0.01032   =>   CDf =  0.00620    CDp =  0.00412

 Side 1  free  transition at x/c =  0.1834   28
 Side 2 forced transition at x/c =  1.0000   75

  11   rms: 0.3785E-02   max: -.8165E-01   C at   28  1
       a =  5.500      CL =  0.8268
      Cm = -0.0462     CD =  0.01032   =>   CDf =  0.00620    CDp =  0.00412

 Side 1  free  transition at x/c =  0.1834   28
 Side 2 forced transition at x/c =  1.0000   75

  12   rms: 0.3784E-02   max: -.8164E-01   C at   28  1
       a =  5.500      CL =  0.8268
      Cm = -0.0462     CD =  0.01032   =>   CDf =  0.00620    CDp =  0.00412

 Side 1  free  transition at x/c =  0.1834   28
 Side 2 forced transition at x/c =  1.0000   75

  13   rms: 0.3784E-02   max: -.8164E-01   C at   28  1
       a =  5.500      CL =  0.8268
      Cm = -0.0462     CD =  0.01032   =>   CDf =  0.00620    CDp =  0.00412

 Side 1  free  transition at x/c =  0.1834   28
 Side 2 forced transition at x/c =  1.0000   75

  14   rms: 0.3785E-02   max: -.8164E-01   C at   28  1
       a =  5.500      CL =  0.8268
      Cm = -0.0462     CD =  0.01032   =>   CDf =  0.00620    CDp =  0.00412

 Side 1  free  transition at x/c =  0.1834   28
 Side 2 forced transition at x/c =  1.0000   75

  15   rms: 0.3784E-02   max: -.8164E-01   C at   28  1
       a =  5.500      CL =  0.8268
      Cm = -0.0462     CD =  0.01032   =>   CDf =  0.00620    CDp =  0.00412

 Side 1  free  transition at x/c =  0.1834   28
 Side 2 forced transition at x/c =  1.0000   75

  16   rms: 0.3784E-02   max: -.8164E-01   C at   28  1
       a =  5.500      CL =  0.8268
      Cm = -0.0462     CD =  0.01032   =>   CDf =  0.00620    CDp =  0.00412

 Side 1  free  transition at x/c =  0.1834   28
 Side 2 forced transition at x/c =  1.0000   75

  17   rms: 0.3784E-02   max: -.8164E-01   C at   28  1
       a =  5.500      CL =  0.8268
      Cm = -0.0462     CD =  0.01032   =>   CDf =  0.00620    CDp =  0.00412

 Side 1  free  transition at x/c =  0.1834   28
 Side 2 forced transition at x/c =  1.0000   75

  18   rms: 0.3784E-02   max: -.8163E-01   C at   28  1
       a =  5.500      CL =  0.8268
      Cm = -0.0462     CD =  0.01032   =>   CDf =  0.00620    CDp =  0.00412

 Side 1  free  transition at x/c =  0.1834   28
 Side 2 forced transition at x/c =  1.0000   75

  19   rms: 0.3784E-02   max: -.8164E-01   C at   28  1
       a =  5.500      CL =  0.8268
      Cm = -0.0462     CD =  0.01032   =>   CDf =  0.00620    CDp =  0.00412

 Side 1  free  transition at x/c =  0.1834   28
 Side 2 forced transition at x/c =  1.0000   75

  20   rms: 0.3785E-02   max: -.8164E-01   C at   28  1
       a =  5.500      CL =  0.8268
      Cm = -0.0462     CD =  0.01032   =>   CDf =  0.00620    CDp =  0.00412

 Side 1  free  transition at x/c =  0.1834   28
 Side 2 forced transition at x/c =  1.0000   75

  21   rms: 0.3785E-02   max: -.8165E-01   C at   28  1
       a =  5.500      CL =  0.8268
      Cm = -0.0462     CD =  0.01032   =>   CDf =  0.00620    CDp =  0.00412

 Side 1  free  transition at x/c =  0.1834   28
 Side 2 forced transition at x/c =  1.0000   75

  22   rms: 0.3784E-02   max: -.8163E-01   C at   28  1
       a =  5.500      CL =  0.8268
      Cm = -0.0462     CD =  0.01032   =>   CDf =  0.00620    CDp =  0.00412

 Side 1  free  transition at x/c =  0.1834   28
 Side 2 forced transition at x/c =  1.0000   75

  23   rms: 0.3784E-02   max: -.8164E-01   C at   28  1
       a =  5.500      CL =  0.8268
      Cm = -0.0462     CD =  0.01032   =>   CDf =  0.00620    CDp =  0.00412

 Side 1  free  transition at x/c =  0.1834   28
 Side 2 forced transition at x/c =  1.0000   75

  24   rms: 0.3785E-02   max: -.8164E-01   C at   28  1
       a =  5.500      CL =  0.8268
      Cm = -0.0462     CD =  0.01032   =>   CDf =  0.00620    CDp =  0.00412

 Side 1  free  transition at x/c =  0.1834   28
 Side 2 forced transition at x/c =  1.0000   75

  25   rms: 0.3784E-02   max: -.8164E-01   C at   28  1
       a =  5.500      CL =  0.8268
      Cm = -0.0462     CD =  0.01032   =>   CDf =  0.00620    CDp =  0.00412

 Side 1  free  transition at x/c =  0.1834   28
 Side 2 forced transition at x/c =  1.0000   75

  26   rms: 0.3785E-02   max: -.8164E-01   C at   28  1
       a =  5.500      CL =  0.8268
      Cm = -0.0462     CD =  0.01032   =>   CDf =  0.00620    CDp =  0.00412

 Side 1  free  transition at x/c =  0.1834   28
 Side 2 forced transition at x/c =  1.0000   75

  27   rms: 0.3785E-02   max: -.8164E-01   C at   28  1
       a =  5.500      CL =  0.8268
      Cm = -0.0462     CD =  0.01032   =>   CDf =  0.00620    CDp =  0.00412

 Side 1  free  transition at x/c =  0.1834   28
 Side 2 forced transition at x/c =  1.0000   75

  28   rms: 0.3784E-02   max: -.8164E-01   C at   28  1
       a =  5.500      CL =  0.8268
      Cm = -0.0462     CD =  0.01032   =>   CDf =  0.00620    CDp =  0.00412

 Side 1  free  transition at x/c =  0.1834   28
 Side 2 forced transition at x/c =  1.0000   75

  29   rms: 0.3785E-02   max: -.8165E-01   C at   28  1
       a =  5.500      CL =  0.8268
      Cm = -0.0462     CD =  0.01032   =>   CDf =  0.00620    CDp =  0.00412

 Side 1  free  transition at x/c =  0.1834   28
 Side 2 forced transition at x/c =  1.0000   75

  30   rms: 0.3784E-02   max: -.8164E-01   C at   28  1
       a =  5.500      CL =  0.8268
      Cm = -0.0462     CD =  0.01032   =>   CDf =  0.00620    CDp =  0.00412

 Side 1  free  transition at x/c =  0.1834   28
 Side 2 forced transition at x/c =  1.0000   75

  31   rms: 0.3784E-02   max: -.8164E-01   C at   28  1
       a =  5.500      CL =  0.8268
      Cm = -0.0462     CD =  0.01032   =>   CDf =  0.00620    CDp =  0.00412

 Side 1  free  transition at x/c =  0.1834   28
 Side 2 forced transition at x/c =  1.0000   75

  32   rms: 0.3785E-02   max: -.8164E-01   C at   28  1
       a =  5.500      CL =  0.8268
      Cm = -0.0462     CD =  0.01032   =>   CDf =  0.00620    CDp =  0.00412

 Side 1  free  transition at x/c =  0.1834   28
 Side 2 forced transition at x/c =  1.0000   75

  33   rms: 0.3785E-02   max: -.8164E-01   C at   28  1
       a =  5.500      CL =  0.8268
      Cm = -0.0462     CD =  0.01032   =>   CDf =  0.00620    CDp =  0.00412

 Side 1  free  transition at x/c =  0.1834   28
 Side 2 forced transition at x/c =  1.0000   75

  34   rms: 0.3784E-02   max: -.8164E-01   C at   28  1
       a =  5.500      CL =  0.8268
      Cm = -0.0462     CD =  0.01032   =>   CDf =  0.00620    CDp =  0.00412

 Side 1  free  transition at x/c =  0.1834   28
 Side 2 forced transition at x/c =  1.0000   75

  35   rms: 0.3785E-02   max: -.8165E-01   C at   28  1
       a =  5.500      CL =  0.8268
      Cm = -0.0462     CD =  0.01032   =>   CDf =  0.00620    CDp =  0.00412

 Side 1  free  transition at x/c =  0.1834   28
 Side 2 forced transition at x/c =  1.0000   75

  36   rms: 0.3784E-02   max: -.8164E-01   C at   28  1
       a =  5.500      CL =  0.8268
      Cm = -0.0462     CD =  0.01032   =>   CDf =  0.00620    CDp =  0.00412

 Side 1  free  transition at x/c =  0.1834   28
 Side 2 forced transition at x/c =  1.0000   75

  37   rms: 0.3785E-02   max: -.8164E-01   C at   28  1
       a =  5.500      CL =  0.8268
      Cm = -0.0462     CD =  0.01032   =>   CDf =  0.00620    CDp =  0.00412

 Side 1  free  transition at x/c =  0.1834   28
 Side 2 forced transition at x/c =  1.0000   75

  38   rms: 0.3785E-02   max: -.8164E-01   C at   28  1
       a =  5.500      CL =  0.8268
      Cm = -0.0462     CD =  0.01032   =>   CDf =  0.00620    CDp =  0.00412

 Side 1  free  transition at x/c =  0.1834   28
 Side 2 forced transition at x/c =  1.0000   75

  39   rms: 0.3784E-02   max: -.8164E-01   C at   28  1
       a =  5.500      CL =  0.8268
      Cm = -0.0462     CD =  0.01032   =>   CDf =  0.00620    CDp =  0.00412

 Side 1  free  transition at x/c =  0.1834   28
 Side 2 forced transition at x/c =  1.0000   75

  40   rms: 0.3785E-02   max: -.8164E-01   C at   28  1
       a =  5.500      CL =  0.8268
      Cm = -0.0462     CD =  0.01032   =>   CDf =  0.00620    CDp =  0.00412

 Side 1  free  transition at x/c =  0.1834   28
 Side 2 forced transition at x/c =  1.0000   75

  41   rms: 0.3785E-02   max: -.8165E-01   C at   28  1
       a =  5.500      CL =  0.8268
      Cm = -0.0462     CD =  0.01032   =>   CDf =  0.00620    CDp =  0.00412

 Side 1  free  transition at x/c =  0.1834   28
 Side 2 forced transition at x/c =  1.0000   75

  42   rms: 0.3785E-02   max: -.8165E-01   C at   28  1
       a =  5.500      CL =  0.8268
      Cm = -0.0462     CD =  0.01032   =>   CDf =  0.00620    CDp =  0.00412

 Side 1  free  transition at x/c =  0.1834   28
 Side 2 forced transition at x/c =  1.0000   75

  43   rms: 0.3784E-02   max: -.8164E-01   C at   28  1
       a =  5.500      CL =  0.8268
      Cm = -0.0462     CD =  0.01032   =>   CDf =  0.00620    CDp =  0.00412

 Side 1  free  transition at x/c =  0.1834   28
[...]
 MRCHDU: Convergence failed at  94  side 2    Res =  0.8405E-04
 Side 1  free  transition at x/c =  0.0103   16
 Side 2 forced transition at x/c =  1.0000   73

 131   rms: 0.2261E+04   max: -.2138E+05   C at   94  2   RLX: 0.000
       a = 15.500      CL =  2.9820
      Cm = -0.6418     CD =*********   =>   CDf =  0.00268    CDp =*********

 MRCHDU: Convergence failed at  86  side 2    Res =  0.2192E-01
 MRCHDU: Convergence failed at  87  side 2    Res =  0.3672E+00
 MRCHDU: Convergence failed at  88  side 2    Res =  0.4400E+00
 MRCHDU: Convergence failed at  89  side 2    Res =  0.5289E+00
 MRCHDU: Convergence failed at  90  side 2    Res =  0.6381E+00
 MRCHDU: Convergence failed at  91  side 2    Res =  0.1854E-01
 MRCHDU: Convergence failed at  92  side 2    Res =  0.2309E-01
 MRCHDU: Convergence failed at  93  side 2    Res =  0.8802E-02
 MRCHDU: Convergence failed at  94  side 2    Res =  0.8427E-04
 Side 1  free  transition at x/c =  0.0103   16
 Side 2 forced transition at x/c =  1.0000   73

 132   rms: 0.4828E+04   max: -.4557E+05   C at   94  2   RLX: 0.000
       a = 15.500      CL =  2.9820
      Cm = -0.6418     CD =*********   =>   CDf =  0.00268    CDp =*********

 MRCHDU: Convergence failed at  86  side 2    Res =  0.4450E-01
 MRCHDU: Convergence failed at  87  side 2    Res =  0.3719E+00
 MRCHDU: Convergence failed at  88  side 2    Res =  0.4458E+00
 MRCHDU: Convergence failed at  89  side 2    Res =  0.5360E+00
 MRCHDU: Convergence failed at  90  side 2    Res =  0.6468E+00
 MRCHDU: Convergence failed at  91  side 2    Res =  0.1855E-01
 MRCHDU: Convergence failed at  92  side 2    Res =  0.2307E-01
 MRCHDU: Convergence failed at  93  side 2    Res =  0.8802E-02
 MRCHDU: Convergence failed at  94  side 2    Res =  0.8436E-04
 Side 1  free  transition at x/c =  0.0103   16
 Side 2 forced transition at x/c =  1.0000   73

 133   rms: 0.1111E+05   max: -.1043E+06   C at   94  2   RLX: 0.000
       a = 15.500      CL =  2.9820
      Cm = -0.6418     CD =*********   =>   CDf =  0.00268    CDp =*********

 MRCHDU: Convergence failed at  86  side 2    Res =  0.6760E-01
 MRCHDU: Convergence failed at  87  side 2    Res =  0.3766E+00
 MRCHDU: Convergence failed at  88  side 2    Res =  0.4515E+00
 MRCHDU: Convergence failed at  89  side 2    Res =  0.5430E+00
 MRCHDU: Convergence failed at  90  side 2    Res =  0.6554E+00
 MRCHDU: Convergence failed at  91  side 2    Res =  0.1856E-01
 MRCHDU: Convergence failed at  92  side 2    Res =  0.2305E-01
 MRCHDU: Convergence failed at  93  side 2    Res =  0.8801E-02
 MRCHDU: Convergence failed at  94  side 2    Res =  0.8448E-04
 Side 1  free  transition at x/c =  0.0103   16
 Side 2 forced transition at x/c =  1.0000   73

 134   rms: 0.3464E+05   max: 0.3242E+06   C at   93  2   RLX: 0.000
       a = 15.500      CL =  2.9819
      Cm = -0.6418     CD =*********   =>   CDf =  0.00268    CDp =*********

 MRCHDU: Convergence failed at  86  side 2    Res =  0.5529E-02
 MRCHDU: Convergence failed at  87  side 2    Res =  0.3635E+00
 MRCHDU: Convergence failed at  88  side 2    Res =  0.4356E+00
 MRCHDU: Convergence failed at  89  side 2    Res =  0.5235E+00
 MRCHDU: Convergence failed at  90  side 2    Res =  0.6315E+00
 MRCHDU: Convergence failed at  91  side 2    Res =  0.1855E-01
 MRCHDU: Convergence failed at  92  side 2    Res =  0.2310E-01
 MRCHDU: Convergence failed at  93  side 2    Res =  0.8803E-02
 MRCHDU: Convergence failed at  94  side 2    Res =  0.8420E-04
 Side 1  free  transition at x/c =  0.0103   16
 Side 2 forced transition at x/c =  1.0000   73

 135   rms: 0.2215E+04   max: -.2092E+05   C at   94  2   RLX: 0.000
       a = 15.500      CL =  2.9819
      Cm = -0.6418     CD =*********   =>   CDf =  0.00268    CDp =*********

 MRCHDU: Convergence failed at  86  side 2    Res =  0.2809E-01
 MRCHDU: Convergence failed at  87  side 2    Res =  0.3683E+00
 MRCHDU: Convergence failed at  88  side 2    Res =  0.4414E+00
 MRCHDU: Convergence failed at  89  side 2    Res =  0.5306E+00
 MRCHDU: Convergence failed at  90  side 2    Res =  0.6401E+00
 MRCHDU: Convergence failed at  91  side 2    Res =  0.1855E-01
 MRCHDU: Convergence failed at  92  side 2    Res =  0.2309E-01
 MRCHDU: Convergence failed at  93  side 2    Res =  0.8802E-02
 MRCHDU: Convergence failed at  94  side 2    Res =  0.8438E-04
 Side 1  free  transition at x/c =  0.0103   16
 Side 2 forced transition at x/c =  1.0000   73

 136   rms: 0.4135E+04   max: -.3897E+05   C at   94  2   RLX: 0.000
       a = 15.500      CL =  2.9819
      Cm = -0.6418     CD =*********   =>   CDf =  0.00268    CDp =*********

 MRCHDU: Convergence failed at  86  side 2    Res =  0.5084E-01
 MRCHDU: Convergence failed at  87  side 2    Res =  0.3730E+00
 MRCHDU: Convergence failed at  88  side 2    Res =  0.4472E+00
 MRCHDU: Convergence failed at  89  side 2    Res =  0.5376E+00
 MRCHDU: Convergence failed at  90  side 2    Res =  0.6488E+00
 MRCHDU: Convergence failed at  91  side 2    Res =  0.1856E-01
 MRCHDU: Convergence failed at  92  side 2    Res =  0.2307E-01
 MRCHDU: Convergence failed at  93  side 2    Res =  0.8802E-02
 MRCHDU: Convergence failed at  94  side 2    Res =  0.8446E-04
 Side 1  free  transition at x/c =  0.0103   16
 Side 2 forced transition at x/c =  1.0000   73

 137   rms: 0.7738E+04   max: -.7263E+05   C at   94  2   RLX: 0.000
       a = 15.500      CL =  2.9818
      Cm = -0.6418     CD =*********   =>   CDf =  0.00268    CDp =*********

 MRCHDU: Convergence failed at  86  side 2    Res =  0.7402E-01
 MRCHDU: Convergence failed at  87  side 2    Res =  0.3777E+00
 MRCHDU: Convergence failed at  88  side 2    Res =  0.4528E+00
 MRCHDU: Convergence failed at  89  side 2    Res =  0.5446E+00
 MRCHDU: Convergence failed at  90  side 2    Res =  0.6574E+00
 MRCHDU: Convergence failed at  91  side 2    Res =  0.1856E-01
 MRCHDU: Convergence failed at  92  side 2    Res =  0.2306E-01
 MRCHDU: Convergence failed at  93  side 2    Res =  0.8801E-02
 MRCHDU: Convergence failed at  94  side 2    Res =  0.8458E-04
 Side 1  free  transition at x/c =  0.0103   16
 Side 2 forced transition at x/c =  1.0000   73

 138   rms: 0.9009E+05   max: -.8427E+06   C at   94  2   RLX: 0.000
       a = 15.500      CL =  2.9819
      Cm = -0.6418     CD =*********   =>   CDf =  0.00268    CDp =*********

 MRCHDU: Convergence failed at  86  side 2    Res =  0.9755E-01
 MRCHDU: Convergence failed at  87  side 2    Res =  0.3823E+00
 MRCHDU: Convergence failed at  88  side 2    Res =  0.4585E+00
 MRCHDU: Convergence failed at  89  side 2    Res =  0.5515E+00
 MRCHDU: Convergence failed at  90  side 2    Res =  0.6660E+00
 MRCHDU: Convergence failed at  91  side 2    Res =  0.1857E-01
 MRCHDU: Convergence failed at  92  side 2    Res =  0.2304E-01
 MRCHDU: Convergence failed at  93  side 2    Res =  0.8801E-02
 MRCHDU: Convergence failed at  94  side 2    Res =  0.8468E-04
 Side 1  free  transition at x/c =  0.0103   16
 Side 2 forced transition at x/c =  1.0000   73

 139   rms: 0.8167E+04   max: 0.7609E+05   C at   93  2   RLX: 0.000
       a = 15.500      CL =  2.9817
      Cm = -0.6418     CD =*********   =>   CDf =  0.00268    CDp =*********

 MRCHDU: Convergence failed at  86  side 2    Res =  0.3419E-01
 MRCHDU: Convergence failed at  87  side 2    Res =  0.3694E+00
 MRCHDU: Convergence failed at  88  side 2    Res =  0.4428E+00
 MRCHDU: Convergence failed at  89  side 2    Res =  0.5324E+00
 MRCHDU: Convergence failed at  90  side 2    Res =  0.6424E+00
 MRCHDU: Convergence failed at  91  side 2    Res =  0.1856E-01
 MRCHDU: Convergence failed at  92  side 2    Res =  0.2309E-01
 MRCHDU: Convergence failed at  93  side 2    Res =  0.8802E-02
 MRCHDU: Convergence failed at  94  side 2    Res =  0.8448E-04
 Side 1  free  transition at x/c =  0.0103   16
 Side 2 forced transition at x/c =  1.0000   73

 140   rms: 0.3066E+04   max: -.2887E+05   C at   94  2   RLX: 0.000
       a = 15.500      CL =  2.9817
      Cm = -0.6417     CD =*********   =>   CDf =  0.00268    CDp =*********

 MRCHDU: Convergence failed at  86  side 2    Res =  0.5710E-01
 MRCHDU: Convergence failed at  87  side 2    Res =  0.3742E+00
 MRCHDU: Convergence failed at  88  side 2    Res =  0.4485E+00
 MRCHDU: Convergence failed at  89  side 2    Res =  0.5393E+00
 MRCHDU: Convergence failed at  90  side 2    Res =  0.6509E+00
 MRCHDU: Convergence failed at  91  side 2    Res =  0.1857E-01
 MRCHDU: Convergence failed at  92  side 2    Res =  0.2307E-01
 MRCHDU: Convergence failed at  93  side 2    Res =  0.8802E-02
 MRCHDU: Convergence failed at  94  side 2    Res =  0.8456E-04
 Side 1  free  transition at x/c =  0.0103   16
 Side 2 forced transition at x/c =  1.0000   73

 141   rms: 0.4910E+04   max: -.4607E+05   C at   94  2   RLX: 0.000
       a = 15.500      CL =  2.9817
      Cm = -0.6417     CD =*********   =>   CDf =  0.00268    CDp =*********

 MRCHDU: Convergence failed at  86  side 2    Res =  0.8033E-01
 MRCHDU: Convergence failed at  87  side 2    Res =  0.3788E+00
 MRCHDU: Convergence failed at  88  side 2    Res =  0.4542E+00
 MRCHDU: Convergence failed at  89  side 2    Res =  0.5463E+00
 MRCHDU: Convergence failed at  90  side 2    Res =  0.6595E+00
 MRCHDU: Convergence failed at  91  side 2    Res =  0.1857E-01
 MRCHDU: Convergence failed at  92  side 2    Res =  0.2306E-01
 MRCHDU: Convergence failed at  93  side 2    Res =  0.8801E-02
 MRCHDU: Convergence failed at  94  side 2    Res =  0.8465E-04
 Side 1  free  transition at x/c =  0.0103   16
 Side 2 forced transition at x/c =  1.0000   73

 142   rms: 0.1464E+05   max: -.1368E+06   C at   94  2   RLX: 0.000
       a = 15.500      CL =  2.9817
      Cm = -0.6417     CD =*********   =>   CDf =  0.00268    CDp =*********

 MRCHDU: Convergence failed at  86  side 2    Res =  0.1040E+00
 MRCHDU: Convergence failed at  87  side 2    Res =  0.1507E+00
 MRCHDU: Convergence failed at  88  side 2    Res =  0.2070E+00
 MRCHDU: Convergence failed at  89  side 2    Res =  0.2753E+00
 MRCHDU: Convergence failed at  90  side 2    Res =  0.3583E+00
 Side 1  free  transition at x/c =  0.0103   16
 Side 2 forced transition at x/c =  1.0000   73

 143   rms: 0.7948E+04   max: 0.6684E+05   C at   91  2   RLX: 0.000
       a = 15.500      CL =  2.9815
      Cm = -0.6417     CD =*********   =>   CDf =  0.00268    CDp =*********

 MRCHDU: Convergence failed at  87  side 2    Res =  0.1970E+00
 MRCHDU: Convergence failed at  88  side 2    Res =  0.2406E+00
 MRCHDU: Convergence failed at  89  side 2    Res =  0.2931E+00
 MRCHDU: Convergence failed at  90  side 2    Res =  0.3566E+00
 MRCHDU: Convergence failed at  92  side 2    Res =  0.1164E-01
 MRCHDU: Convergence failed at  93  side 2    Res =  0.8802E-02
 MRCHDU: Convergence failed at  94  side 2    Res =  0.8424E-04
 Side 1  free  transition at x/c =  0.0103   16
 Side 2 forced transition at x/c =  1.0000   73

 144   rms: 0.9757E+03   max: -.8387E+04   C at   95  2   RLX: 0.000
       a = 15.500      CL =  2.9814
      Cm = -0.6417     CD =*********   =>   CDf =  0.00268    CDp =*********

 MRCHDU: Convergence failed at  86  side 2    Res =  0.3871E-02
 MRCHDU: Convergence failed at  87  side 2    Res =  0.2306E+00
 MRCHDU: Convergence failed at  88  side 2    Res =  0.2747E+00
 MRCHDU: Convergence failed at  89  side 2    Res =  0.3279E+00
 MRCHDU: Convergence failed at  90  side 2    Res =  0.3923E+00
 MRCHDU: Convergence failed at  91  side 2    Res =  0.1923E-01
 MRCHDU: Convergence failed at  92  side 2    Res =  0.2310E-01
 MRCHDU: Convergence failed at  93  side 2    Res =  0.8801E-02
 MRCHDU: Convergence failed at  94  side 2    Res =  0.8421E-04
 Side 1  free  transition at x/c =  0.0103   16
 Side 2 forced transition at x/c =  1.0000   73

 145   rms: 0.1372E+04   max: -.1170E+05   C at   94  2   RLX: 0.000
       a = 15.500      CL =  2.9813
      Cm = -0.6416     CD =*********   =>   CDf =  0.00268    CDp =*********

 MRCHDU: Convergence failed at  86  side 2    Res =  0.3909E-01
 MRCHDU: Convergence failed at  87  side 2    Res =  0.2334E+00
 MRCHDU: Convergence failed at  88  side 2    Res =  0.2781E+00
 MRCHDU: Convergence failed at  89  side 2    Res =  0.3320E+00
 MRCHDU: Convergence failed at  90  side 2    Res =  0.3972E+00
 MRCHDU: Convergence failed at  91  side 2    Res =  0.1924E-01
 MRCHDU: Convergence failed at  92  side 2    Res =  0.2308E-01
 MRCHDU: Convergence failed at  93  side 2    Res =  0.8800E-02
 MRCHDU: Convergence failed at  94  side 2    Res =  0.8431E-04
 Side 1  free  transition at x/c =  0.0103   16
 Side 2 forced transition at x/c =  1.0000   73

 146   rms: 0.2346E+04   max: -.1973E+05   C at   94  2   RLX: 0.000
       a = 15.500      CL =  2.9812
      Cm = -0.6416     CD =*********   =>   CDf =  0.00268    CDp =*********

 MRCHDU: Convergence failed at  86  side 2    Res =  0.7561E-01
 MRCHDU: Convergence failed at  87  side 2    Res =  0.2360E+00
 MRCHDU: Convergence failed at  88  side 2    Res =  0.2812E+00
 MRCHDU: Convergence failed at  89  side 2    Res =  0.3358E+00
 MRCHDU: Convergence failed at  90  side 2    Res =  0.4018E+00
 MRCHDU: Convergence failed at  91  side 2    Res =  0.1925E-01
 MRCHDU: Convergence failed at  92  side 2    Res =  0.2306E-01
 MRCHDU: Convergence failed at  93  side 2    Res =  0.8800E-02
 MRCHDU: Convergence failed at  94  side 2    Res =  0.8447E-04
 Side 1  free  transition at x/c =  0.0103   16
 Side 2 forced transition at x/c =  1.0000   73

 147   rms: 0.1115E+05   max: -.9351E+05   C at   94  2   RLX: 0.000
       a = 15.500      CL =  2.9812
      Cm = -0.6416     CD =*********   =>   CDf =  0.00268    CDp =*********

 MRCHDU: Convergence failed at  86  side 2    Res =  0.1121E+00
 MRCHDU: Convergence failed at  87  side 2    Res =  0.1502E+00
 MRCHDU: Convergence failed at  88  side 2    Res =  0.1961E+00
 MRCHDU: Convergence failed at  89  side 2    Res =  0.2513E+00
 MRCHDU: Convergence failed at  90  side 2    Res =  0.3182E+00
 Side 1  free  transition at x/c =  0.0103   16
 Side 2 forced transition at x/c =  1.0000   73

 148   rms: 0.4245E+04   max: 0.3530E+05   C at   91  2   RLX: 0.000
       a = 15.500      CL =  2.9810
      Cm = -0.6416     CD =*********   =>   CDf =  0.00268    CDp =*********

 MRCHDU: Convergence failed at  86  side 2    Res =  0.2000E-01
 MRCHDU: Convergence failed at  87  side 2    Res =  0.2318E+00
 MRCHDU: Convergence failed at  88  side 2    Res =  0.2762E+00
 MRCHDU: Convergence failed at  89  side 2    Res =  0.3298E+00
 MRCHDU: Convergence failed at  90  side 2    Res =  0.3945E+00
 MRCHDU: Convergence failed at  91  side 2    Res =  0.1925E-01
 MRCHDU: Convergence failed at  92  side 2    Res =  0.2310E-01
 MRCHDU: Convergence failed at  93  side 2    Res =  0.8801E-02
 MRCHDU: Convergence failed at  94  side 2    Res =  0.8431E-04
 Side 1  free  transition at x/c =  0.0103   16
 Side 2 forced transition at x/c =  1.0000   73

 149   rms: 0.1516E+04   max: -.1289E+05   C at   94  2   RLX: 0.000
       a = 15.500      CL =  2.9809
      Cm = -0.6416     CD =*********   =>   CDf =  0.00268    CDp =*********

 MRCHDU: Convergence failed at  86  side 2    Res =  0.5543E-01
 MRCHDU: Convergence failed at  87  side 2    Res =  0.2345E+00
 MRCHDU: Convergence failed at  88  side 2    Res =  0.2795E+00
 MRCHDU: Convergence failed at  89  side 2    Res =  0.3337E+00
 MRCHDU: Convergence failed at  90  side 2    Res =  0.3992E+00
 MRCHDU: Convergence failed at  91  side 2    Res =  0.1926E-01
 MRCHDU: Convergence failed at  92  side 2    Res =  0.2308E-01
 MRCHDU: Convergence failed at  93  side 2    Res =  0.8800E-02
 MRCHDU: Convergence failed at  94  side 2    Res =  0.8443E-04
 Side 1  free  transition at x/c =  0.0103   16
 Side 2 forced transition at x/c =  1.0000   73

 150   rms: 0.2368E+04   max: -.1997E+05   C at   94  2   RLX: 0.000
       a = 15.500      CL =  2.9808
      Cm = -0.6415     CD =*********   =>   CDf =  0.00268    CDp =*********

 MRCHDU: Convergence failed at  86  side 2    Res =  0.9152E-01
 MRCHDU: Convergence failed at  87  side 2    Res =  0.2371E+00
 MRCHDU: Convergence failed at  88  side 2    Res =  0.2826E+00
 MRCHDU: Convergence failed at  89  side 2    Res =  0.3375E+00
 MRCHDU: Convergence failed at  90  side 2    Res =  0.4038E+00
 MRCHDU: Convergence failed at  91  side 2    Res =  0.1927E-01
 MRCHDU: Convergence failed at  92  side 2    Res =  0.2306E-01
 MRCHDU: Convergence failed at  93  side 2    Res =  0.8799E-02
 MRCHDU: Convergence failed at  94  side 2    Res =  0.8459E-04
 Side 1  free  transition at x/c =  0.0103   16
 Side 2 forced transition at x/c =  1.0000   73

 151   rms: 0.4196E+04   max: -.3509E+05   C at   94  2   RLX: 0.000
       a = 15.500      CL =  2.9808
      Cm = -0.6415     CD =*********   =>   CDf =  0.00268    CDp =*********

 MRCHDU: Convergence failed at  86  side 2    Res =  0.1283E+00
 MRCHDU: Convergence failed at  87  side 2    Res =  0.1666E+00
 MRCHDU: Convergence failed at  88  side 2    Res =  0.2127E+00
 MRCHDU: Convergence failed at  89  side 2    Res =  0.2682E+00
 MRCHDU: Convergence failed at  90  side 2    Res =  0.3354E+00
 Side 1  free  transition at x/c =  0.0103   16
 Side 2 forced transition at x/c =  1.0000   73

 152   rms: 0.1266E+05   max: 0.1050E+06   C at   91  2   RLX: 0.000
       a = 15.500      CL =  2.9807
      Cm = -0.6415     CD =*********   =>   CDf =  0.00268    CDp =*********

 MRCHDU: Convergence failed at  86  side 2    Res =  0.3546E-01
 MRCHDU: Convergence failed at  87  side 2    Res =  0.2329E+00
 MRCHDU: Convergence failed at  88  side 2    Res =  0.2776E+00
 MRCHDU: Convergence failed at  89  side 2    Res =  0.3315E+00
 MRCHDU: Convergence failed at  90  side 2    Res =  0.3966E+00
 MRCHDU: Convergence failed at  91  side 2    Res =  0.1926E-01
 MRCHDU: Convergence failed at  92  side 2    Res =  0.2311E-01
 MRCHDU: Convergence failed at  93  side 2    Res =  0.8800E-02
 MRCHDU: Convergence failed at  94  side 2    Res =  0.8434E-04
 Side 1  free  transition at x/c =  0.0103   16
 Side 2 forced transition at x/c =  1.0000   73

 153   rms: 0.1167E+04   max: -.9911E+04   C at   94  2   RLX: 0.000
       a = 15.500      CL =  2.9805
      Cm = -0.6415     CD =*********   =>   CDf =  0.00268    CDp =*********

 MRCHDU: Convergence failed at  86  side 2    Res =  0.7106E-01
 MRCHDU: Convergence failed at  87  side 2    Res =  0.2356E+00
 MRCHDU: Convergence failed at  88  side 2    Res =  0.2808E+00
 MRCHDU: Convergence failed at  89  side 2    Res =  0.3353E+00
 MRCHDU: Convergence failed at  90  side 2    Res =  0.4012E+00
 MRCHDU: Convergence failed at  91  side 2    Res =  0.1927E-01
 MRCHDU: Convergence failed at  92  side 2    Res =  0.2308E-01
 MRCHDU: Convergence failed at  93  side 2    Res =  0.8800E-02
 MRCHDU: Convergence failed at  94  side 2    Res =  0.8459E-04
 Side 1  free  transition at x/c =  0.0103   16
 Side 2 forced transition at x/c =  1.0000   73

 154   rms: 0.1678E+04   max: -.1411E+05   C at   94  2   RLX: 0.000
       a = 15.500      CL =  2.9804
      Cm = -0.6414     CD =*********   =>   CDf =  0.00268    CDp =*********

 MRCHDU: Convergence failed at  86  side 2    Res =  0.1075E+00
 MRCHDU: Convergence failed at  87  side 2    Res =  0.1456E+00
 MRCHDU: Convergence failed at  88  side 2    Res =  0.1913E+00
 MRCHDU: Convergence failed at  89  side 2    Res =  0.2465E+00
 MRCHDU: Convergence failed at  90  side 2    Res =  0.3132E+00
 Side 1  free  transition at x/c =  0.0103   16
 Side 2 forced transition at x/c =  1.0000   73

 155   rms: 0.3627E+04   max: -.3022E+05   C at   91  2   RLX: 0.000
       a = 15.500      CL =  2.9804
      Cm = -0.6414     CD =*********   =>   CDf =  0.00268    CDp =*********
 VISCAL:  Convergence failed

 Sequence halted since previous  4 points did not converge
 Last-converged  alpha =  14.500    CL =   0.99997

.OPERva   c>  
 Polar accumulation disabled

.OPERv   c>  
 XFOIL   c>  
 XFOIL   c>  