
 ===================================================
  XFOIL Version 6.99
  Copyright (C) 2000   Mark Drela, Harold Youngren

  This software comes with ABSOLUTELY NO WARRANTY,
    subject to the GNU General Public License.

  Caveat computor
 ===================================================

 File  xfoil.def  not found

   QUIT    Exit program

  .OPER    Direct operating point(s)
  .MDES    Complex mapping design routine
  .QDES    Surface speed design routine
  .GDES    Geometry design routine

   SAVE f  Write airfoil to labeled coordinate file
   PSAV f  Write airfoil to plain coordinate file
   ISAV f  Write airfoil to ISES coordinate file
   MSAV f  Write airfoil to MSES coordinate file
   REVE    Reverse written-airfoil node ordering

   LOAD f  Read buffer airfoil from coordinate file
   NACA i  Set NACA 4,5-digit airfoil and buffer airfoil
   INTE    Set buffer airfoil by interpolating two airfoils
   NORM    Buffer airfoil normalization toggle
   XYCM rr Change CM reference location, currently  0.25000 0.00000

   BEND    Display structural properties of current airfoil

   PCOP    Set current-airfoil panel nodes directly from buffer airfoil points
   PANE    Set current-airfoil panel nodes ( 160 ) based on curvature
  .PPAR    Show/change paneling

  .PLOP    Plotting options

   WDEF f  Write  current-settings file
   RDEF f  Reread current-settings file
   NAME s  Specify new airfoil name
   NINC    Increment name version number

   Z       Zoom    | (available in all menus)
   U       Unzoom  | 

 XFOIL   c>  
 Labeled airfoil file.  Name:  RG 14 9.5% AIRFOIL                              

 Number of input coordinate points:  59
 Counterclockwise ordering
 Max thickness =     0.095001  at x =   0.310
 Max camber    =     0.015211  at x =   0.360

  LE  x,y  =  -0.00007   0.00097  |   Chord =   1.00007
  TE  x,y  =   1.00000   0.00000  |

 Current airfoil nodes set from buffer airfoil nodes (  59 )

 WARNING: Poor input coordinate distribution
          Excessive panel angle   58.6  at i =  30
          Repaneling with PANE and/or PPAR suggested
           (doing GDES,CADD before repaneling _may_
            improve excessively coarse LE spacing

 XFOIL   c>  
 XFOIL   c>  
 Sharp trailing edge

 Paneling parameters used...
   Number of panel nodes       160
   Panel bunching parameter    1.000
   TE/LE panel density ratio   0.150
   Refined-area/LE panel density ratio    0.200
   Top    side refined area x/c limits  1.000 1.000
   Bottom side refined area x/c limits  1.000 1.000

 XFOIL   c>  
.OPERi   c>  
 Xtr/c     =  1.0000    top    side
 Xtr/c     =  1.0000    bottom side
 Ncrit     =    9.00   ( 0.070 % turb. level )
 Vacc      =  0.0100

 Klag  =  5.6000     Uxwt  =    1.00
 A     =  6.7000     B     =  0.7500       KCt = 0.01485
 CtiniK=  1.8000     CtiniX=  3.3000

..VPAR   c>  
..VPAR   c>  
.OPERi   c>  
 M  =    0.0000
 Re =    200000

.OPERv   c>  
.OPERv   c>  
.OPERv   c>  
 Polar  1 newly created for accumulation
 Airfoil archived with polar: RG 14 9.5% AIRFOIL                              

Enter  polar save filename  OR  <return> for no file   s>  
 New polar save file available

Enter  polar dump filename  OR  <return> for no file   s>  
 Polar dump file will NOT be written

 Polar accumulation enabled

.OPERva   c>   Calculating unit vorticity distributions ...
 Calculating wake trajectory ...
 Calculating source influence matrix ...

 Solving BL system ...

 Initializing BL ...
    side            1  ...
 MRCHUE: Inverse mode at  64     Hk =   3.931
 MRCHUE: Inverse mode at  65     Hk =   4.232
 MRCHUE: Inverse mode at  66     Hk =   4.528
 MRCHUE: Inverse mode at  67     Hk =   4.820
 MRCHUE: Inverse mode at  68     Hk =   5.109
 MRCHUE: Inverse mode at  69     Hk =   5.395
 MRCHUE: Inverse mode at  70     Hk =   5.677
 MRCHUE: Inverse mode at  71     Hk =   5.953
 MRCHUE: Inverse mode at  72     Hk =   6.221
 MRCHUE: Inverse mode at  73     Hk =   6.480
 MRCHUE: Inverse mode at  74     Hk =   6.725
 MRCHUE: Inverse mode at  75     Hk =   6.932
 MRCHUE: Inverse mode at  76     Hk =   7.041
    side            2  ...
 MRCHUE: Inverse mode at  15     Hk =   3.800
 MRCHUE: Inverse mode at  16     Hk =   4.674
 MRCHUE: Inverse mode at  17     Hk =   5.594
 MRCHUE: Inverse mode at  18     Hk =   6.606
 MRCHUE: Inverse mode at  19     Hk =   7.713
 MRCHUE: Inverse mode at  20     Hk =   8.857
 MRCHUE: Inverse mode at  21     Hk =   9.989
 MRCHUE: Inverse mode at  22     Hk =   6.863
 MRCHUE: Inverse mode at  23     Hk =   3.652
 MRCHUE: Inverse mode at  24     Hk =   2.500
 MRCHUE: Inverse mode at  86     Hk =   2.500

 Side 1 forced transition at x/c =  1.0000   76
 Side 2  free  transition at x/c =  0.0714   22

   1   rms: 0.3117E+00   max: 0.1632E+01   T at   22  2   RLX: 0.500
       a = -4.000      CL = -0.4039
      Cm = -0.0171     CD =  0.01396   =>   CDf =  0.00779    CDp =  0.00617

 MRCHDU: Convergence failed at  22  side 2    Res =  0.1465E+02
 MRCHDU: Convergence failed at  23  side 2    Res =  0.1125E+02
 MRCHDU: Convergence failed at  24  side 2    Res =  0.5632E+01
 MRCHDU: Convergence failed at  25  side 2    Res =  0.8715E+01
 MRCHDU: Convergence failed at  26  side 2    Res =  0.1191E+02
 MRCHDU: Convergence failed at  27  side 2    Res =  0.1546E+02
 MRCHDU: Convergence failed at  28  side 2    Res =  0.2114E+02
 MRCHDU: Convergence failed at  29  side 2    Res =  0.3425E+02
 MRCHDU: Convergence failed at  30  side 2    Res =  0.1377E+03
 MRCHDU: Convergence failed at  31  side 2    Res =  0.4577E+02
 MRCHDU: Convergence failed at  32  side 2    Res =  0.3729E+02
 MRCHDU: Convergence failed at  33  side 2    Res =  0.3330E+02
 MRCHDU: Convergence failed at  34  side 2    Res =  0.3040E+02
 MRCHDU: Convergence failed at  35  side 2    Res =  0.2894E+02
 MRCHDU: Convergence failed at  36  side 2    Res =  0.2720E+02
 MRCHDU: Convergence failed at  37  side 2    Res =  0.2649E+02
 MRCHDU: Convergence failed at  38  side 2    Res =  0.2518E+02
 MRCHDU: Convergence failed at  39  side 2    Res =  0.2463E+02
 MRCHDU: Convergence failed at  40  side 2    Res =  0.2365E+02
 MRCHDU: Convergence failed at  41  side 2    Res =  0.2317E+02
 MRCHDU: Convergence failed at  42  side 2    Res =  0.2248E+02
 MRCHDU: Convergence failed at  43  side 2    Res =  0.2201E+02
 MRCHDU: Convergence failed at  44  side 2    Res =  0.2154E+02
 MRCHDU: Convergence failed at  45  side 2    Res =  0.2119E+02
 MRCHDU: Convergence failed at  46  side 2    Res =  0.2087E+02
 MRCHDU: Convergence failed at  47  side 2    Res =  0.2062E+02
 MRCHDU: Convergence failed at  48  side 2    Res =  0.2035E+02
 MRCHDU: Convergence failed at  49  side 2    Res =  0.2008E+02
 MRCHDU: Convergence failed at  50  side 2    Res =  0.1985E+02
 MRCHDU: Convergence failed at  51  side 2    Res =  0.1954E+02
 MRCHDU: Convergence failed at  52  side 2    Res =  0.3918E+02
 MRCHDU: Convergence failed at  53  side 2    Res =  0.2212E+02
 MRCHDU: Convergence failed at  54  side 2    Res =  0.3190E+02
 MRCHDU: Convergence failed at  55  side 2    Res =  0.3939E+02
 MRCHDU: Convergence failed at  56  side 2    Res =  0.3284E+02
 MRCHDU: Convergence failed at  57  side 2    Res =  0.2981E+02
 MRCHDU: Convergence failed at  58  side 2    Res =  0.2921E+02
 MRCHDU: Convergence failed at  59  side 2    Res =  0.2891E+02
 MRCHDU: Convergence failed at  60  side 2    Res =  0.2926E+02
 MRCHDU: Convergence failed at  61  side 2    Res =  0.3964E+02
 MRCHDU: Convergence failed at  62  side 2    Res =  0.5693E+02
 MRCHDU: Convergence failed at  63  side 2    Res =  0.7775E+02
 MRCHDU: Convergence failed at  64  side 2    Res =  0.5461E+02
 MRCHDU: Convergence failed at  65  side 2    Res =  0.2845E+02
 MRCHDU: Convergence failed at  66  side 2    Res =  0.3066E+03
 MRCHDU: Convergence failed at  67  side 2    Res =  0.5173E+02
 MRCHDU: Convergence failed at  68  side 2    Res =  0.2641E+03
 MRCHDU: Convergence failed at  69  side 2    Res =  0.3928E+03
 MRCHDU: Convergence failed at  70  side 2    Res =  0.3052E+02
 MRCHDU: Convergence failed at  71  side 2    Res =  0.2575E+02
 MRCHDU: Convergence failed at  72  side 2    Res =  0.2156E+02
 MRCHDU: Convergence failed at  73  side 2    Res =  0.2353E+02
 MRCHDU: Convergence failed at  74  side 2    Res =  0.2555E+02
 MRCHDU: Convergence failed at  75  side 2    Res =  0.2944E+02
 MRCHDU: Convergence failed at  76  side 2    Res =  0.8085E+02
 MRCHDU: Convergence failed at  77  side 2    Res =  0.5365E+02
 MRCHDU: Convergence failed at  78  side 2    Res =  0.5757E+02
 MRCHDU: Convergence failed at  79  side 2    Res =  0.5996E+02
 MRCHDU: Convergence failed at  80  side 2    Res =  0.5996E+02
 MRCHDU: Convergence failed at  81  side 2    Res =  0.5813E+02
 MRCHDU: Convergence failed at  82  side 2    Res =  0.1154E+03
 MRCHDU: Convergence failed at  83  side 2    Res =  0.2786E+02
 MRCHDU: Convergence failed at  84  side 2    Res =  0.6721E+02
 MRCHDU: Convergence failed at  85  side 2    Res =  0.1412E+03
 MRCHDU: Convergence failed at  86  side 2    Res =  0.7552E+03
 Side 1 forced transition at x/c =  1.0000   76
 Side 2  free  transition at x/c =  0.0620   21

   2   rms: 0.8873E+00   max: 0.4167E+01   D at   88  2   RLX: 0.260
       a = -4.000      CL = -1.0863
      Cm =  0.2323     CD =  0.00659   =>   CDf =  0.00272    CDp =  0.00388

 MRCHDU: Convergence failed at  36  side 2    Res =  0.1758E+00
 Side 1 forced transition at x/c =  1.0000   76
 Side 2  free  transition at x/c =  0.0721   22

   3   rms: 0.4551E+00   max: -.1733E+01   D at   37  2   RLX: 0.289
       a = -4.000      CL = -0.5768
      Cm =  0.0779     CD =  0.02474   =>   CDf =  0.00439    CDp =  0.02036

 MRCHDU: Convergence failed at  37  side 2    Res =  0.2404E+00
 MRCHDU: Convergence failed at  38  side 2    Res =  0.6469E+00
 MRCHDU: Convergence failed at  39  side 2    Res =  0.9009E-01
 MRCHDU: Convergence failed at  73  side 2    Res =  0.2327E+00
 MRCHDU: Convergence failed at  74  side 2    Res =  0.1091E+01
 MRCHDU: Convergence failed at  75  side 2    Res =  0.5816E+00
 MRCHDU: Convergence failed at  76  side 2    Res =  0.5620E+00
 MRCHDU: Convergence failed at  77  side 2    Res =  0.5385E+00
 MRCHDU: Convergence failed at  78  side 2    Res =  0.5149E+00
 MRCHDU: Convergence failed at  79  side 2    Res =  0.4914E+00
 MRCHDU: Convergence failed at  80  side 2    Res =  0.4682E+00
 MRCHDU: Convergence failed at  81  side 2    Res =  0.4451E+00
 MRCHDU: Convergence failed at  82  side 2    Res =  0.4219E+00
 MRCHDU: Convergence failed at  83  side 2    Res =  0.3993E+00
 MRCHDU: Convergence failed at  84  side 2    Res =  0.3769E+00
 MRCHDU: Convergence failed at  85  side 2    Res =  0.3557E+00
 MRCHDU: Convergence failed at  86  side 2    Res =  0.3125E+00
 Side 1 forced transition at x/c =  1.0000   76
 Side 2  free  transition at x/c =  0.0842   23

   4   rms: 0.5074E+00   max: -.3415E+01   D at   39  2   RLX: 0.146
       a = -4.000      CL = -0.3931
      Cm = -0.0080     CD =  0.03054   =>   CDf =  0.00439    CDp =  0.02615

 MRCHDU: Convergence failed at  39  side 2    Res =  0.3111E+00
 MRCHDU: Convergence failed at  40  side 2    Res =  0.4367E+00
 Side 1 forced transition at x/c =  1.0000   76
 Side 2  free  transition at x/c =  0.0797   23

   5   rms: 0.1939E+01   max: 0.9876E+01   T at   23  2   RLX: 0.065
       a = -4.000      CL = -0.2819
      Cm = -0.0677     CD =  0.03551   =>   CDf =  0.00397    CDp =  0.03154

 MRCHDU: Convergence failed at  23  side 2    Res =  0.2321E+01
 MRCHDU: Convergence failed at  24  side 2    Res =  0.7376E+01
 Side 1 forced transition at x/c =  1.0000   76
 Side 2  free  transition at x/c =  0.0725   22
 idif Ue xi dudx           1  0.21248484      3.95357609E-03   53.744972    
 Uenew xinew           2  3.14066224E-02  5.84363937E-04

   6   rms: 0.8328E+01   max: 0.4742E+02   T at   22  2   RLX: 0.016
       a = -4.000      CL = -0.2885
      Cm = -0.1034     CD =  0.03100   =>   CDf =  0.00383    CDp =  0.02716

 MRCHDU: Convergence failed at  23  side 2    Res =  0.6998E+01
 Side 1 forced transition at x/c =  1.0000   75
 Side 2  free  transition at x/c =  0.0602   22

   7   rms: 0.9751E+00   max: 0.3951E+01   T at   22  2   RLX: 0.147
       a = -4.000      CL = -0.3659
      Cm = -0.0929     CD =  0.02640   =>   CDf =  0.00464    CDp =  0.02175

 Side 1 forced transition at x/c =  1.0000   75
 Side 2  free  transition at x/c =  0.0531   21

   8   rms: 0.4351E+00   max: -.1168E+01   D at   67  2   RLX: 0.428
       a = -4.000      CL = -0.3606
      Cm = -0.0673     CD =  0.02389   =>   CDf =  0.00633    CDp =  0.01756

 MRCHDU: Convergence failed at  22  side 2    Res =  0.1874E+01
 MRCHDU: Convergence failed at  23  side 2    Res =  0.5717E+02
 MRCHDU: Convergence failed at  24  side 2    Res =  0.1313E+02
 MRCHDU: Convergence failed at  25  side 2    Res =  0.9437E+01
 MRCHDU: Convergence failed at  26  side 2    Res =  0.1594E+02
 MRCHDU: Convergence failed at  27  side 2    Res =  0.1552E+02
 MRCHDU: Convergence failed at  28  side 2    Res =  0.3275E+02
 MRCHDU: Convergence failed at  29  side 2    Res =  0.3858E+02
 MRCHDU: Convergence failed at  30  side 2    Res =  0.4109E+02
 MRCHDU: Convergence failed at  31  side 2    Res =  0.3963E+02
 MRCHDU: Convergence failed at  32  side 2    Res =  0.3537E+02
 MRCHDU: Convergence failed at  33  side 2    Res =  0.3197E+02
 MRCHDU: Convergence failed at  34  side 2    Res =  0.2839E+02
 MRCHDU: Convergence failed at  35  side 2    Res =  0.2394E+02
 MRCHDU: Convergence failed at  36  side 2    Res =  0.2089E+02
 MRCHDU: Convergence failed at  37  side 2    Res =  0.2100E+02
 MRCHDU: Convergence failed at  38  side 2    Res =  0.2160E+02
 MRCHDU: Convergence failed at  39  side 2    Res =  0.2219E+02
 MRCHDU: Convergence failed at  40  side 2    Res =  0.2227E+02
 MRCHDU: Convergence failed at  41  side 2    Res =  0.2262E+02
 MRCHDU: Convergence failed at  42  side 2    Res =  0.3094E+02
 MRCHDU: Convergence failed at  43  side 2    Res =  0.2969E+02
 MRCHDU: Convergence failed at  44  side 2    Res =  0.2844E+02
 MRCHDU: Convergence failed at  45  side 2    Res =  0.2863E+02
 MRCHDU: Convergence failed at  46  side 2    Res =  0.2797E+02
 MRCHDU: Convergence failed at  47  side 2    Res =  0.2834E+02
 MRCHDU: Convergence failed at  48  side 2    Res =  0.2876E+02
 MRCHDU: Convergence failed at  49  side 2    Res =  0.2846E+02
 MRCHDU: Convergence failed at  50  side 2    Res =  0.2892E+02
 MRCHDU: Convergence failed at  51  side 2    Res =  0.2940E+02
 MRCHDU: Convergence failed at  52  side 2    Res =  0.2990E+02
 MRCHDU: Convergence failed at  53  side 2    Res =  0.3040E+02
 MRCHDU: Convergence failed at  54  side 2    Res =  0.3088E+02
 MRCHDU: Convergence failed at  55  side 2    Res =  0.3139E+02
 MRCHDU: Convergence failed at  56  side 2    Res =  0.3186E+02
 MRCHDU: Convergence failed at  57  side 2    Res =  0.3234E+02
 MRCHDU: Convergence failed at  58  side 2    Res =  0.3278E+02
 MRCHDU: Convergence failed at  59  side 2    Res =  0.3321E+02
 MRCHDU: Convergence failed at  60  side 2    Res =  0.3358E+02
 MRCHDU: Convergence failed at  61  side 2    Res =  0.3388E+02
 MRCHDU: Convergence failed at  62  side 2    Res =  0.3410E+02
 MRCHDU: Convergence failed at  63  side 2    Res =  0.3423E+02
 MRCHDU: Convergence failed at  64  side 2    Res =  0.3421E+02
 MRCHDU: Convergence failed at  65  side 2    Res =  0.3397E+02
 MRCHDU: Convergence failed at  66  side 2    Res =  0.3338E+02
 MRCHDU: Convergence failed at  67  side 2    Res =  0.3227E+02
 MRCHDU: Convergence failed at  68  side 2    Res =  0.4134E+02
 MRCHDU: Convergence failed at  69  side 2    Res =  0.9060E+02
 MRCHDU: Convergence failed at  70  side 2    Res =  0.7916E+02
 MRCHDU: Convergence failed at  71  side 2    Res =  0.4096E+02
 MRCHDU: Convergence failed at  72  side 2    Res =  0.4085E+02
 MRCHDU: Convergence failed at  73  side 2    Res =  0.8371E+03
 MRCHDU: Convergence failed at  74  side 2    Res =  0.9210E+02
 MRCHDU: Convergence failed at  75  side 2    Res =  0.8792E+02
 MRCHDU: Convergence failed at  76  side 2    Res =  0.8638E+02
 MRCHDU: Convergence failed at  77  side 2    Res =  0.8497E+02
 MRCHDU: Convergence failed at  78  side 2    Res =  0.8366E+02
 MRCHDU: Convergence failed at  79  side 2    Res =  0.8236E+02
 MRCHDU: Convergence failed at  80  side 2    Res =  0.3937E+02
 MRCHDU: Convergence failed at  81  side 2    Res =  0.3904E+02
 MRCHDU: Convergence failed at  82  side 2    Res =  0.3874E+02
 MRCHDU: Convergence failed at  83  side 2    Res =  0.3841E+02
 MRCHDU: Convergence failed at  84  side 2    Res =  0.5458E+02
 MRCHDU: Convergence failed at  85  side 2    Res =  0.9127E+02
 MRCHDU: Convergence failed at  86  side 2    Res =  0.1511E+04
 MRCHDU: Convergence failed at  87  side 2    Res =  0.4622E+03
 Side 1 forced transition at x/c =  1.0000   75
 Side 2  free  transition at x/c =  0.0566   22

   9   rms: 0.1013E+01   max: 0.3234E+01   D at   90  2   RLX: 0.464
       a = -4.000      CL = -1.0415
      Cm =  0.2030     CD =  0.00811   =>   CDf =  0.00258    CDp =  0.00553

 MRCHDU: Convergence failed at  90  side 2    Res =  0.1132E+01
 MRCHDU: Convergence failed at  91  side 2    Res =  0.1150E+01
 Side 1 forced transition at x/c =  1.0000   76
 Side 2  free  transition at x/c =  0.0696   22

  10   rms: 0.3816E+00   max: -.1171E+01   D at   44  2   RLX: 0.427
       a = -4.000      CL = -0.5701
      Cm =  0.0522     CD =  0.02633   =>   CDf =  0.00575    CDp =  0.02058

 Side 1 forced transition at x/c =  1.0000   76
 Side 2  free  transition at x/c =  0.0733   22

  11   rms: 0.4035E+00   max: -.1607E+01   D at   44  2   RLX: 0.311
       a = -4.000      CL = -0.4799
      Cm =  0.0184     CD =  0.02442   =>   CDf =  0.00560    CDp =  0.01883

 Side 1 forced transition at x/c =  1.0000   76
 Side 2  free  transition at x/c =  0.0721   22

  12   rms: 0.5100E+00   max: -.2369E+01   D at   38  2   RLX: 0.211
       a = -4.000      CL = -0.4551
      Cm =  0.0067     CD =  0.02272   =>   CDf =  0.00567    CDp =  0.01705

 MRCHDU: Convergence failed at  34  side 2    Res =  0.5237E+00
 MRCHDU: Convergence failed at  70  side 2    Res =  0.5618E-04
 Side 1 forced transition at x/c =  1.0000   76
 Side 2  free  transition at x/c =  0.0708   22

  13   rms: 0.8420E+00   max: -.3624E+01   D at   70  2   RLX: 0.138
       a = -4.000      CL = -0.3967
      Cm = -0.0104     CD =  0.02005   =>   CDf =  0.00635    CDp =  0.01370

 MRCHDU: Convergence failed at  70  side 2    Res =  0.1470E-02
 Side 1 forced transition at x/c =  1.0000   76
 Side 2  free  transition at x/c =  0.0788   22

  14   rms: 0.6325E+00   max: 0.4314E+01   T at   22  2   RLX: 0.142
       a = -4.000      CL = -0.4229
      Cm = -0.0012     CD =  0.02085   =>   CDf =  0.00680    CDp =  0.01406

 Side 1 forced transition at x/c =  1.0000   76
 Side 2  free  transition at x/c =  0.0732   22

  15   rms: 0.7102E+00   max: -.3538E+01   T at   22  2   RLX: 0.141
       a = -4.000      CL = -0.3659
      Cm = -0.0121     CD =  0.02042   =>   CDf =  0.00632    CDp =  0.01410

 Side 1 forced transition at x/c =  1.0000   76
 Side 2  free  transition at x/c =  0.0844   23

  16   rms: 0.4601E+00   max: -.1997E+01   D at   59  2   RLX: 0.250
       a = -4.000      CL = -0.3348
      Cm = -0.0205     CD =  0.01776   =>   CDf =  0.00689    CDp =  0.01087

 MRCHDU: Convergence failed at  46  side 2    Res =  0.3774E+00
 Side 1 forced transition at x/c =  1.0000   76
 Side 2  free  transition at x/c =  0.0889   23

  17   rms: 0.4281E+00   max: 0.3455E+01   T at   23  2   RLX: 0.183
       a = -4.000      CL = -0.3699
      Cm = -0.0170     CD =  0.01822   =>   CDf =  0.00751    CDp =  0.01072

 Side 1 forced transition at x/c =  1.0000   76
 Side 2  free  transition at x/c =  0.0780   22

  18   rms: 0.5513E+00   max: 0.5292E+01   T at   22  2   RLX: 0.128
       a = -4.000      CL = -0.3948
      Cm = -0.0134     CD =  0.01855   =>   CDf =  0.00751    CDp =  0.01104

 Side 1 forced transition at x/c =  1.0000   76
 Side 2  free  transition at x/c =  0.0680   22

  19   rms: 0.5970E+00   max: 0.3152E+01   T at   22  2   RLX: 0.199
       a = -4.000      CL = -0.4656
      Cm = -0.0007     CD =  0.01880   =>   CDf =  0.00755    CDp =  0.01125

 MRCHDU: Convergence failed at  22  side 2    Res =  0.5845E+01
 MRCHDU: Convergence failed at  23  side 2    Res =  0.4094E+02
 MRCHDU: Convergence failed at  24  side 2    Res =  0.5195E+02
 MRCHDU: Convergence failed at  25  side 2    Res =  0.6099E+01
 MRCHDU: Convergence failed at  26  side 2    Res =  0.7720E+01
 MRCHDU: Convergence failed at  27  side 2    Res =  0.8663E+01
 MRCHDU: Convergence failed at  28  side 2    Res =  0.1039E+02
 MRCHDU: Convergence failed at  29  side 2    Res =  0.1252E+02
 MRCHDU: Convergence failed at  30  side 2    Res =  0.1310E+02
 MRCHDU: Convergence failed at  31  side 2    Res =  0.1589E+02
 MRCHDU: Convergence failed at  32  side 2    Res =  0.1825E+02
 MRCHDU: Convergence failed at  33  side 2    Res =  0.1758E+02
 MRCHDU: Convergence failed at  34  side 2    Res =  0.2484E+02
 MRCHDU: Convergence failed at  35  side 2    Res =  0.3984E+02
 MRCHDU: Convergence failed at  36  side 2    Res =  0.4001E+02
 MRCHDU: Convergence failed at  37  side 2    Res =  0.3760E+02
 MRCHDU: Convergence failed at  38  side 2    Res =  0.3504E+02
 MRCHDU: Convergence failed at  39  side 2    Res =  0.3428E+02
 MRCHDU: Convergence failed at  40  side 2    Res =  0.3207E+02
 MRCHDU: Convergence failed at  41  side 2    Res =  0.3069E+02
 MRCHDU: Convergence failed at  42  side 2    Res =  0.2832E+02
 MRCHDU: Convergence failed at  43  side 2    Res =  0.4125E+02
 MRCHDU: Convergence failed at  44  side 2    Res =  0.3269E+03
 MRCHDU: Convergence failed at  45  side 2    Res =  0.6329E+02
 MRCHDU: Convergence failed at  46  side 2    Res =  0.2916E+02
 MRCHDU: Convergence failed at  47  side 2    Res =  0.2495E+02
 MRCHDU: Convergence failed at  48  side 2    Res =  0.2867E+02
 MRCHDU: Convergence failed at  49  side 2    Res =  0.3156E+02
 MRCHDU: Convergence failed at  50  side 2    Res =  0.3254E+02
 MRCHDU: Convergence failed at  51  side 2    Res =  0.3217E+02
 MRCHDU: Convergence failed at  52  side 2    Res =  0.3139E+02
 MRCHDU: Convergence failed at  53  side 2    Res =  0.3059E+02
 MRCHDU: Convergence failed at  54  side 2    Res =  0.2941E+02
 MRCHDU: Convergence failed at  55  side 2    Res =  0.2833E+02
 MRCHDU: Convergence failed at  56  side 2    Res =  0.2705E+02
 MRCHDU: Convergence failed at  57  side 2    Res =  0.2569E+02
 MRCHDU: Convergence failed at  58  side 2    Res =  0.2788E+03
 MRCHDU: Convergence failed at  59  side 2    Res =  0.2246E+02
 MRCHDU: Convergence failed at  60  side 2    Res =  0.2102E+02
 MRCHDU: Convergence failed at  61  side 2    Res =  0.6032E+02
 MRCHDU: Convergence failed at  62  side 2    Res =  0.5359E+02
 MRCHDU: Convergence failed at  63  side 2    Res =  0.4288E+02
 MRCHDU: Convergence failed at  64  side 2    Res =  0.1468E+03
 MRCHDU: Convergence failed at  65  side 2    Res =  0.1025E+03
 MRCHDU: Convergence failed at  66  side 2    Res =  0.7688E+02
 MRCHDU: Convergence failed at  67  side 2    Res =  0.2191E+02
 MRCHDU: Convergence failed at  68  side 2    Res =  0.6564E+02
 MRCHDU: Convergence failed at  69  side 2    Res =  0.2895E+02
 MRCHDU: Convergence failed at  70  side 2    Res =  0.1807E+02
 MRCHDU: Convergence failed at  71  side 2    Res =  0.1966E+02
 MRCHDU: Convergence failed at  72  side 2    Res =  0.3071E+02
 MRCHDU: Convergence failed at  73  side 2    Res =  0.2488E+02
 MRCHDU: Convergence failed at  74  side 2    Res =  0.5376E+02
 MRCHDU: Convergence failed at  75  side 2    Res =  0.8871E+02
 MRCHDU: Convergence failed at  76  side 2    Res =  0.5493E+02
 MRCHDU: Convergence failed at  77  side 2    Res =  0.8883E+02
 MRCHDU: Convergence failed at  78  side 2    Res =  0.2008E+03
 MRCHDU: Convergence failed at  79  side 2    Res =  0.9063E+02
 MRCHDU: Convergence failed at  80  side 2    Res =  0.7047E+02
 MRCHDU: Convergence failed at  81  side 2    Res =  0.6416E+02
 MRCHDU: Convergence failed at  82  side 2    Res =  0.7723E+02
 MRCHDU: Convergence failed at  83  side 2    Res =  0.4912E+02
 MRCHDU: Convergence failed at  84  side 2    Res =  0.1425E+03
 MRCHDU: Convergence failed at  85  side 2    Res =  0.4394E+03
 MRCHDU: Convergence failed at  86  side 2    Res =  0.4492E+02
 Side 1 forced transition at x/c =  1.0000   76
 Side 2  free  transition at x/c =  0.0626   21

  20   rms: 0.7645E+00   max: -.2343E+01   T at   21  2   RLX: 0.213
       a = -4.000      CL = -1.1729
      Cm =  0.2550     CD =  0.00808   =>   CDf =  0.00268    CDp =  0.00540

 MRCHDU: Convergence failed at  25  side 2    Res =  0.2227E-01
 MRCHDU: Convergence failed at  35  side 2    Res =  0.2151E+00
 MRCHDU: Convergence failed at  36  side 2    Res =  0.1881E+00
 MRCHDU: Convergence failed at  37  side 2    Res =  0.1546E+00
 MRCHDU: Convergence failed at  38  side 2    Res =  0.2966E-01
 MRCHDU: Convergence failed at  64  side 2    Res =  0.2185E+00
 MRCHDU: Convergence failed at  65  side 2    Res =  0.2054E+00
 MRCHDU: Convergence failed at  66  side 2    Res =  0.1908E+00
 MRCHDU: Convergence failed at  67  side 2    Res =  0.1737E+00
 MRCHDU: Convergence failed at  68  side 2    Res =  0.1534E+00
 MRCHDU: Convergence failed at  69  side 2    Res =  0.1262E+00
 MRCHDU: Convergence failed at  70  side 2    Res =  0.7768E-01
 MRCHDU: Convergence failed at  71  side 2    Res =  0.1101E-03
 Side 1 forced transition at x/c =  1.0000   76
 Side 2  free  transition at x/c =  0.0712   22

  21   rms: 0.4341E+00   max: -.6240E+00   D at   87  2   RLX: 0.385
       a = -4.000      CL = -0.5902
      Cm =  0.0748     CD =  0.02610   =>   CDf =  0.00470    CDp =  0.02139

 MRCHDU: Convergence failed at  38  side 2    Res =  0.2908E+00
 MRCHDU: Convergence failed at  39  side 2    Res =  0.5891E+00
 MRCHDU: Convergence failed at  40  side 2    Res =  0.7320E-01
 MRCHDU: Convergence failed at  42  side 2    Res =  0.2176E+01
 MRCHDU: Convergence failed at  43  side 2    Res =  0.2087E+01
 MRCHDU: Convergence failed at  70  side 2    Res =  0.4106E+00
 MRCHDU: Convergence failed at  71  side 2    Res =  0.6894E+00
 MRCHDU: Convergence failed at  72  side 2    Res =  0.2127E+00
 MRCHDU: Convergence failed at  73  side 2    Res =  0.1965E+00
 MRCHDU: Convergence failed at  74  side 2    Res =  0.1763E+00
 MRCHDU: Convergence failed at  75  side 2    Res =  0.1560E+00
 MRCHDU: Convergence failed at  76  side 2    Res =  0.1357E+00
 MRCHDU: Convergence failed at  77  side 2    Res =  0.1153E+00
 MRCHDU: Convergence failed at  78  side 2    Res =  0.9471E-01
 Side 1 forced transition at x/c =  1.0000   76
 Side 2  free  transition at x/c =  0.0791   22

  22   rms: 0.5425E+00   max: -.2980E+01   T at   22  2   RLX: 0.168
       a = -4.000      CL = -0.4111
      Cm =  0.0069     CD =  0.02827   =>   CDf =  0.00499    CDp =  0.02329

 MRCHDU: Convergence failed at  23  side 2    Res =  0.2819E+01
 MRCHDU: Convergence failed at  24  side 2    Res =  0.5216E+01
 MRCHDU: Convergence failed at  78  side 2    Res =  0.3230E+00
 MRCHDU: Convergence failed at  79  side 2    Res =  0.4537E+00
 Side 1 forced transition at x/c =  1.0000   76
 Side 2  free  transition at x/c =  0.0940   24

  23   rms: 0.8116E+00   max: -.4827E+01   D at   31  2   RLX: 0.104
       a = -4.000      CL = -0.3820
      Cm = -0.0202     CD =  0.02885   =>   CDf =  0.00487    CDp =  0.02398

 Side 1 forced transition at x/c =  1.0000   76
 Side 2  free  transition at x/c =  0.0939   24

  24   rms: 0.5310E+00   max: -.2529E+01   D at   35  2   RLX: 0.198
       a = -4.000      CL = -0.3637
      Cm = -0.0270     CD =  0.02633   =>   CDf =  0.00547    CDp =  0.02086

 MRCHDU: Convergence failed at  80  side 2    Res =  0.7075E-01
 Side 1 forced transition at x/c =  1.0000   76
 Side 2  free  transition at x/c =  0.1073   25

  25   rms: 0.2095E+01   max: -.3334E+02   C at   25  2   RLX: 0.015
       a = -4.000      CL = -0.3506
      Cm = -0.0325     CD =  0.02626   =>   CDf =  0.00563    CDp =  0.02063

 MRCHDU: Convergence failed at  40  side 2    Res =  0.4678E-01
 MRCHDU: Convergence failed at  80  side 2    Res =  0.1058E+00
 MRCHDU: Convergence failed at  81  side 2    Res =  0.2156E+00
 Side 1 forced transition at x/c =  1.0000   76
 Side 2  free  transition at x/c =  0.1322   26

  26   rms: 0.7583E+01   max: -.1237E+03   C at   26  2   RLX: 0.004
       a = -4.000      CL = -0.3397
      Cm = -0.0456     CD =  0.03028   =>   CDf =  0.00522    CDp =  0.02506

 MRCHDU: Convergence failed at  40  side 2    Res =  0.3561E-01
 Side 1 forced transition at x/c =  1.0000   76
 Side 2  free  transition at x/c =  0.1333   26

  27   rms: 0.1421E+01   max: -.2004E+02   C at   26  2   RLX: 0.025
       a = -4.000      CL = -0.3331
      Cm = -0.0488     CD =  0.02982   =>   CDf =  0.00505    CDp =  0.02478

 MRCHDU: Convergence failed at  40  side 2    Res =  0.9922E-02
 Side 1 forced transition at x/c =  1.0000   76
 Side 2  free  transition at x/c =  0.1345   26

  28   rms: 0.1019E+01   max: -.9860E+01   C at   26  2   RLX: 0.051
       a = -4.000      CL = -0.3186
      Cm = -0.0539     CD =  0.02808   =>   CDf =  0.00490    CDp =  0.02319

 Side 1 forced transition at x/c =  1.0000   76
 Side 2  free  transition at x/c =  0.1325   26

  29   rms: 0.9313E+00   max: -.4598E+01   T at   26  2   RLX: 0.109
       a = -4.000      CL = -0.2751
      Cm = -0.0610     CD =  0.02443   =>   CDf =  0.00512    CDp =  0.01931

 Side 1 forced transition at x/c =  1.0000   76
 Side 2  free  transition at x/c =  0.1749   29

  30   rms: 0.9678E+00   max: -.4230E+01   D at   82  2   RLX: 0.118
       a = -4.000      CL = -0.2222
      Cm = -0.0732     CD =  0.02044   =>   CDf =  0.00507    CDp =  0.01537

 MRCHDU: Convergence failed at  82  side 2    Res =  0.1883E+00
 MRCHDU: Convergence failed at  83  side 2    Res =  0.2048E+00
 Side 1 forced transition at x/c =  1.0000   76
 Side 2  free  transition at x/c =  0.1942   31

  31   rms: 0.7987E+00   max: -.3051E+01   D at   63  2   RLX: 0.164
       a = -4.000      CL = -0.1637
      Cm = -0.0939     CD =  0.01913   =>   CDf =  0.00551    CDp =  0.01363

 Side 1 forced transition at x/c =  1.0000   77
 Side 2  free  transition at x/c =  0.2049   30

  32   rms: 0.6038E+00   max: -.2089E+01   D at   62  2   RLX: 0.239
       a = -4.000      CL = -0.1459
      Cm = -0.0915     CD =  0.01651   =>   CDf =  0.00565    CDp =  0.01086

 MRCHDU: Convergence failed at  32  side 2    Res =  0.6488E+01
 MRCHDU: Convergence failed at  33  side 2    Res =  0.2180E+01
 MRCHDU: Convergence failed at  34  side 2    Res =  0.4416E+01
 MRCHDU: Convergence failed at  35  side 2    Res =  0.1290E+02
 MRCHDU: Convergence failed at  36  side 2    Res =  0.4615E+02
 MRCHDU: Convergence failed at  37  side 2    Res =  0.6936E+02
 MRCHDU: Convergence failed at  38  side 2    Res =  0.5586E+02
 Side 1 forced transition at x/c =  1.0000   77
 Side 2  free  transition at x/c =  0.2247   32
 idif Ue xi dudx           1  0.21921290      3.20434570E-03   68.411125    
 Uenew xinew           2  3.12835053E-02  4.57286835E-04

  33   rms: 0.3588E+00   max: 0.1289E+01   D at   39  2   RLX: 0.454
       a = -4.000      CL = -0.2474
      Cm = -0.0639     CD =  0.01269   =>   CDf =  0.00599    CDp =  0.00670

 Side 1 forced transition at x/c =  1.0000   76
 Side 2  free  transition at x/c =  0.1779   29

  34   rms: 0.3299E+00   max: -.2668E+01   C at   29  2   RLX: 0.187
       a = -4.000      CL = -0.2761
      Cm = -0.0558     CD =  0.01462   =>   CDf =  0.00700    CDp =  0.00762

 Side 1 forced transition at x/c =  1.0000   76
 Side 2  free  transition at x/c =  0.1462   27

  35   rms: 0.3506E+00   max: 0.2208E+01   T at   27  2   RLX: 0.260
       a = -4.000      CL = -0.3138
      Cm = -0.0441     CD =  0.01448   =>   CDf =  0.00714    CDp =  0.00734

 Side 1 forced transition at x/c =  1.0000   76
 Side 2  free  transition at x/c =  0.1089   25

  36   rms: 0.9645E+00   max: 0.1236E+02   T at   25  2   RLX: 0.092
       a = -4.000      CL = -0.3512
      Cm = -0.0355     CD =  0.01664   =>   CDf =  0.00739    CDp =  0.00925

 MRCHDU: Convergence failed at  25  side 2    Res =  0.8242E+02
 Side 1 forced transition at x/c =  1.0000   76
 Side 2  free  transition at x/c =  0.0831   23

  37   rms: 0.3608E+01   max: 0.3775E+02   T at   23  2   RLX: 0.040
       a = -4.000      CL = -0.4229
      Cm = -0.0233     CD =  0.01912   =>   CDf =  0.00775    CDp =  0.01137

 MRCHDU: Convergence failed at  23  side 2    Res =  0.5339E+02
 Side 1 forced transition at x/c =  1.0000   76
 Side 2  free  transition at x/c =  0.0648   21
 idif Ue xi dudx           1  0.19440779      3.60870361E-03   53.871918    
 Uenew xinew           2  1.29018640E-02  2.39491463E-04

  38   rms: 0.3600E+00   max: 0.2798E+01   T at   21  2   RLX: 0.245
       a = -4.000      CL = -0.4778
      Cm = -0.0104     CD =  0.01890   =>   CDf =  0.00810    CDp =  0.01080

 Side 1 forced transition at x/c =  1.0000   75
 Side 2  free  transition at x/c =  0.0562   22

  39   rms: 0.3746E+00   max: 0.1998E+01   T at    2  2   RLX: 0.420
       a = -4.000      CL = -0.5787
      Cm =  0.0171     CD =  0.02157   =>   CDf =  0.00757    CDp =  0.01400

 MRCHDU: Convergence failed at  22  side 2    Res =  0.4779E+01
 MRCHDU: Convergence failed at  23  side 2    Res =  0.4613E+03
 MRCHDU: Convergence failed at  24  side 2    Res =  0.6670E+01
 MRCHDU: Convergence failed at  25  side 2    Res =  0.1170E+03
 MRCHDU: Convergence failed at  26  side 2    Res =  0.1006E+03
 MRCHDU: Convergence failed at  27  side 2    Res =  0.2614E+03
 MRCHDU: Convergence failed at  28  side 2    Res =  0.5686E+03
 MRCHDU: Convergence failed at  29  side 2    Res =  0.2479E+03
 MRCHDU: Convergence failed at  30  side 2    Res =  0.2137E+03
 MRCHDU: Convergence failed at  31  side 2    Res =  0.1108E+03
 MRCHDU: Convergence failed at  32  side 2    Res =  0.9436E+02
 MRCHDU: Convergence failed at  33  side 2    Res =  0.3777E+02
 MRCHDU: Convergence failed at  34  side 2    Res =  0.4638E+02
 MRCHDU: Convergence failed at  35  side 2    Res =  0.3366E+02
 MRCHDU: Convergence failed at  36  side 2    Res =  0.5205E+02
 MRCHDU: Convergence failed at  37  side 2    Res =  0.4777E+02
 MRCHDU: Convergence failed at  38  side 2    Res =  0.3718E+02
 MRCHDU: Convergence failed at  39  side 2    Res =  0.3825E+02
 MRCHDU: Convergence failed at  40  side 2    Res =  0.4794E+02
 MRCHDU: Convergence failed at  41  side 2    Res =  0.4378E+02
 MRCHDU: Convergence failed at  42  side 2    Res =  0.3952E+02
 MRCHDU: Convergence failed at  43  side 2    Res =  0.5005E+02
 MRCHDU: Convergence failed at  44  side 2    Res =  0.5420E+02
 MRCHDU: Convergence failed at  45  side 2    Res =  0.5491E+02
 MRCHDU: Convergence failed at  46  side 2    Res =  0.6235E+02
 MRCHDU: Convergence failed at  47  side 2    Res =  0.7440E+02
 MRCHDU: Convergence failed at  48  side 2    Res =  0.9712E+02
 MRCHDU: Convergence failed at  49  side 2    Res =  0.1038E+03
 MRCHDU: Convergence failed at  50  side 2    Res =  0.1144E+03
 MRCHDU: Convergence failed at  51  side 2    Res =  0.1160E+03
 MRCHDU: Convergence failed at  52  side 2    Res =  0.9344E+02
 MRCHDU: Convergence failed at  53  side 2    Res =  0.8836E+02
 MRCHDU: Convergence failed at  54  side 2    Res =  0.8842E+02
 MRCHDU: Convergence failed at  55  side 2    Res =  0.5967E+02
 MRCHDU: Convergence failed at  56  side 2    Res =  0.7505E+03
 MRCHDU: Convergence failed at  57  side 2    Res =  0.4412E+03
 MRCHDU: Convergence failed at  58  side 2    Res =  0.8867E+02
 MRCHDU: Convergence failed at  59  side 2    Res =  0.9259E+02
 MRCHDU: Convergence failed at  60  side 2    Res =  0.1072E+03
 MRCHDU: Convergence failed at  61  side 2    Res =  0.3140E+02
 MRCHDU: Convergence failed at  62  side 2    Res =  0.2062E+03
 MRCHDU: Convergence failed at  63  side 2    Res =  0.4471E+03
 MRCHDU: Convergence failed at  64  side 2    Res =  0.9772E+02
 MRCHDU: Convergence failed at  65  side 2    Res =  0.2135E+03
 MRCHDU: Convergence failed at  66  side 2    Res =  0.5757E+02
 MRCHDU: Convergence failed at  67  side 2    Res =  0.1016E+03
 MRCHDU: Convergence failed at  68  side 2    Res =  0.7868E+03
 MRCHDU: Convergence failed at  69  side 2    Res =  0.7939E+02
 MRCHDU: Convergence failed at  70  side 2    Res =  0.3113E+03
 MRCHDU: Convergence failed at  71  side 2    Res =  0.1351E+03
 MRCHDU: Convergence failed at  72  side 2    Res =  0.4834E+02
 MRCHDU: Convergence failed at  73  side 2    Res =  0.4062E+02
 MRCHDU: Convergence failed at  74  side 2    Res =  0.4250E+02
 MRCHDU: Convergence failed at  75  side 2    Res =  0.4442E+02
 MRCHDU: Convergence failed at  76  side 2    Res =  0.4648E+02
 MRCHDU: Convergence failed at  77  side 2    Res =  0.4867E+02
 MRCHDU: Convergence failed at  78  side 2    Res =  0.5182E+02
 MRCHDU: Convergence failed at  79  side 2    Res =  0.5266E+02
 MRCHDU: Convergence failed at  80  side 2    Res =  0.5678E+02
 MRCHDU: Convergence failed at  81  side 2    Res =  0.5650E+02
 MRCHDU: Convergence failed at  82  side 2    Res =  0.5531E+02
 MRCHDU: Convergence failed at  83  side 2    Res =  0.5293E+02
 MRCHDU: Convergence failed at  84  side 2    Res =  0.5048E+02
 MRCHDU: Convergence failed at  85  side 2    Res =  0.5109E+02
 MRCHDU: Convergence failed at  86  side 2    Res =  0.7821E+02
 MRCHDU: Convergence failed at  87  side 2    Res =  0.2635E+03
 Side 1  free  transition at x/c =  0.9806   73
 Side 2  free  transition at x/c =  0.0523   21

  40   rms: 0.9828E+00   max: -.4824E+01   T at   73  1   RLX: 0.104
       a = -4.000      CL = -1.8334
      Cm =  0.4304     CD =  0.00821   =>   CDf =  0.00223    CDp =  0.00598

 MRCHDU: Convergence failed at  31  side 2    Res =  0.4999E+00
 MRCHDU: Convergence failed at  32  side 2    Res =  0.4756E+00
 MRCHDU: Convergence failed at  33  side 2    Res =  0.4496E+00
 MRCHDU: Convergence failed at  34  side 2    Res =  0.4195E+00
 MRCHDU: Convergence failed at  35  side 2    Res =  0.3853E+00
 MRCHDU: Convergence failed at  36  side 2    Res =  0.3468E+00
 MRCHDU: Convergence failed at  37  side 2    Res =  0.2953E+00
 MRCHDU: Convergence failed at  38  side 2    Res =  0.2386E+00
 MRCHDU: Convergence failed at  39  side 2    Res =  0.1475E+00
 MRCHDU: Convergence failed at  40  side 2    Res =  0.3331E-01
 Side 1  free  transition at x/c =  0.9948   75
 Side 2  free  transition at x/c =  0.0534   21

  41   rms: 0.6835E+00   max: 0.2666E+01   D at   40  2   RLX: 0.253
       a = -4.000      CL = -1.1267
      Cm =  0.2017     CD =  0.04254   =>   CDf =  0.00328    CDp =  0.03926

 MRCHDU: Convergence failed at  40  side 2    Res =  0.4719E-01
 MRCHDU: Convergence failed at  41  side 2    Res =  0.8728E-04
 Side 1 forced transition at x/c =  1.0000   75
 Side 2  free  transition at x/c =  0.0520   21

  42   rms: 0.5902E+00   max: -.1701E+01   D at   65  1   RLX: 0.294
       a = -4.000      CL = -0.7987
      Cm =  0.1181     CD =  0.04167   =>   CDf =  0.00330    CDp =  0.03837

 MRCHDU: Convergence failed at  39  side 2    Res =  0.1470E+00
 MRCHDU: Convergence failed at  40  side 2    Res =  0.5159E+00
 Side 1 forced transition at x/c =  1.0000   76
 Side 2  free  transition at x/c =  0.0583   21
 idif Ue xi dudx           1  0.20342675      3.97920609E-03   51.122448    
 Uenew xinew           2  3.11843827E-02  6.09993935E-04

  43   rms: 0.7211E+00   max: 0.6664E+01   D at    2  1   RLX: 0.160
       a = -4.000      CL = -0.5780
      Cm =  0.0202     CD =  0.04973   =>   CDf =  0.00307    CDp =  0.04666

 Side 1 forced transition at x/c =  1.0000   75
 Side 2  free  transition at x/c =  0.0569   22

  44   rms: 0.1995E+01   max: -.4760E+01   D at   39  2   RLX: 0.105
       a = -4.000      CL = -0.5783
      Cm = -0.0164     CD =  0.03770   =>   CDf =  0.00315    CDp =  0.03455

 Side 1 forced transition at x/c =  1.0000   75
 Side 2  free  transition at x/c =  0.0529   21

  45   rms: 0.2153E+01   max: -.7546E+01   D at   33  2   RLX: 0.066
       a = -4.000      CL = -0.5081
      Cm = -0.0374     CD =  0.02920   =>   CDf =  0.00425    CDp =  0.02495

 MRCHDU: Convergence failed at  22  side 2    Res =  0.3370E+01
 MRCHDU: Convergence failed at  23  side 2    Res =  0.4954E+01
 MRCHDU: Convergence failed at  24  side 2    Res =  0.8268E+01
 MRCHDU: Convergence failed at  25  side 2    Res =  0.9304E+01
 MRCHDU: Convergence failed at  26  side 2    Res =  0.1590E+02
 MRCHDU: Convergence failed at  27  side 2    Res =  0.1825E+02
 MRCHDU: Convergence failed at  28  side 2    Res =  0.1094E+02
 MRCHDU: Convergence failed at  29  side 2    Res =  0.1030E+02
 MRCHDU: Convergence failed at  30  side 2    Res =  0.1021E+02
 MRCHDU: Convergence failed at  31  side 2    Res =  0.1228E+02
 MRCHDU: Convergence failed at  32  side 2    Res =  0.2180E+02
 MRCHDU: Convergence failed at  33  side 2    Res =  0.7801E+01
 MRCHDU: Convergence failed at  34  side 2    Res =  0.9938E+01
 MRCHDU: Convergence failed at  35  side 2    Res =  0.1235E+02
 MRCHDU: Convergence failed at  36  side 2    Res =  0.2034E+02
 MRCHDU: Convergence failed at  37  side 2    Res =  0.2442E+02
 MRCHDU: Convergence failed at  38  side 2    Res =  0.2666E+02
 MRCHDU: Convergence failed at  39  side 2    Res =  0.2974E+02
 MRCHDU: Convergence failed at  40  side 2    Res =  0.3261E+02
 MRCHDU: Convergence failed at  41  side 2    Res =  0.3393E+02
 MRCHDU: Convergence failed at  42  side 2    Res =  0.3606E+02
 MRCHDU: Convergence failed at  43  side 2    Res =  0.3438E+02
 MRCHDU: Convergence failed at  44  side 2    Res =  0.3643E+02
 MRCHDU: Convergence failed at  45  side 2    Res =  0.3831E+02
 MRCHDU: Convergence failed at  46  side 2    Res =  0.3752E+02
 MRCHDU: Convergence failed at  47  side 2    Res =  0.3889E+02
 MRCHDU: Convergence failed at  48  side 2    Res =  0.3782E+02
 MRCHDU: Convergence failed at  49  side 2    Res =  0.3872E+02
 MRCHDU: Convergence failed at  50  side 2    Res =  0.3769E+02
 MRCHDU: Convergence failed at  51  side 2    Res =  0.3832E+02
 MRCHDU: Convergence failed at  52  side 2    Res =  0.3889E+02
 MRCHDU: Convergence failed at  53  side 2    Res =  0.3933E+02
 MRCHDU: Convergence failed at  54  side 2    Res =  0.3978E+02
 MRCHDU: Convergence failed at  55  side 2    Res =  0.4015E+02
 MRCHDU: Convergence failed at  56  side 2    Res =  0.4046E+02
 MRCHDU: Convergence failed at  57  side 2    Res =  0.4074E+02
 MRCHDU: Convergence failed at  58  side 2    Res =  0.4104E+02
 MRCHDU: Convergence failed at  59  side 2    Res =  0.4164E+02
 MRCHDU: Convergence failed at  60  side 2    Res =  0.4212E+02
 MRCHDU: Convergence failed at  61  side 2    Res =  0.4251E+02
 MRCHDU: Convergence failed at  62  side 2    Res =  0.7532E+02
 MRCHDU: Convergence failed at  63  side 2    Res =  0.8474E+02
 MRCHDU: Convergence failed at  64  side 2    Res =  0.8284E+02
 MRCHDU: Convergence failed at  65  side 2    Res =  0.3131E+02
 MRCHDU: Convergence failed at  66  side 2    Res =  0.3104E+02
 MRCHDU: Convergence failed at  67  side 2    Res =  0.3083E+02
 MRCHDU: Convergence failed at  68  side 2    Res =  0.2748E+02
 MRCHDU: Convergence failed at  69  side 2    Res =  0.2871E+02
 MRCHDU: Convergence failed at  70  side 2    Res =  0.2888E+02
 MRCHDU: Convergence failed at  71  side 2    Res =  0.2939E+02
 MRCHDU: Convergence failed at  72  side 2    Res =  0.3045E+02
 MRCHDU: Convergence failed at  73  side 2    Res =  0.4299E+02
 MRCHDU: Convergence failed at  74  side 2    Res =  0.4345E+02
 MRCHDU: Convergence failed at  75  side 2    Res =  0.5154E+02
 MRCHDU: Convergence failed at  76  side 2    Res =  0.1421E+03
 MRCHDU: Convergence failed at  77  side 2    Res =  0.1470E+03
 MRCHDU: Convergence failed at  78  side 2    Res =  0.1521E+03
 MRCHDU: Convergence failed at  79  side 2    Res =  0.1697E+03
 MRCHDU: Convergence failed at  80  side 2    Res =  0.2967E+03
 MRCHDU: Convergence failed at  81  side 2    Res =  0.7310E+03
 MRCHDU: Convergence failed at  82  side 2    Res =  0.8818E+02
 MRCHDU: Convergence failed at  83  side 2    Res =  0.8600E+02
 MRCHDU: Convergence failed at  84  side 2    Res =  0.8285E+02
 MRCHDU: Convergence failed at  85  side 2    Res =  0.7731E+02
 MRCHDU: Convergence failed at  86  side 2    Res =  0.7086E+02
 MRCHDU: Convergence failed at  87  side 2    Res =  0.5891E+02
 Side 1 forced transition at x/c =  1.0000   75
 Side 2  free  transition at x/c =  0.0577   22

  46   rms: 0.1026E+01   max: 0.1714E+01   D at   91  2   RLX: 0.434
       a = -4.000      CL = -1.4164
      Cm =  0.2822     CD =  0.00749   =>   CDf =  0.00248    CDp =  0.00501

 Side 1 forced transition at x/c =  1.0000   75
 Side 2  free  transition at x/c =  0.0665   23

  47   rms: 0.5135E+00   max: -.4085E+00   U at   87  2   RLX: 0.508
       a = -4.000      CL = -0.8390
      Cm =  0.1023     CD =  0.01585   =>   CDf =  0.01135    CDp =  0.00451

 MRCHDU: Convergence failed at  23  side 2    Res =  0.2913E+01
 MRCHDU: Convergence failed at  24  side 2    Res =  0.8915E+01
 MRCHDU: Convergence failed at  25  side 2    Res =  0.5028E+01
 MRCHDU: Convergence failed at  26  side 2    Res =  0.2015E+02
 MRCHDU: Convergence failed at  27  side 2    Res =  0.1816E+03
 MRCHDU: Convergence failed at  28  side 2    Res =  0.3721E+03
 MRCHDU: Convergence failed at  29  side 2    Res =  0.1570E+03
 MRCHDU: Convergence failed at  30  side 2    Res =  0.7067E+02
 MRCHDU: Convergence failed at  31  side 2    Res =  0.4551E+02
 MRCHDU: Convergence failed at  32  side 2    Res =  0.3660E+02
 MRCHDU: Convergence failed at  33  side 2    Res =  0.6214E+02
 MRCHDU: Convergence failed at  34  side 2    Res =  0.4255E+02
 MRCHDU: Convergence failed at  35  side 2    Res =  0.2857E+02
 MRCHDU: Convergence failed at  36  side 2    Res =  0.2340E+02
 MRCHDU: Convergence failed at  37  side 2    Res =  0.1994E+02
 MRCHDU: Convergence failed at  38  side 2    Res =  0.1569E+02
 MRCHDU: Convergence failed at  39  side 2    Res =  0.1413E+02
 MRCHDU: Convergence failed at  40  side 2    Res =  0.1288E+02
 MRCHDU: Convergence failed at  41  side 2    Res =  0.1191E+02
 MRCHDU: Convergence failed at  42  side 2    Res =  0.1063E+02
 MRCHDU: Convergence failed at  43  side 2    Res =  0.1000E+02
 MRCHDU: Convergence failed at  44  side 2    Res =  0.8421E+01
 MRCHDU: Convergence failed at  45  side 2    Res =  0.7739E+01
 MRCHDU: Convergence failed at  46  side 2    Res =  0.6651E+01
 MRCHDU: Convergence failed at  47  side 2    Res =  0.5910E+01
 MRCHDU: Convergence failed at  48  side 2    Res =  0.5723E+01
 MRCHDU: Convergence failed at  49  side 2    Res =  0.5571E+01
 MRCHDU: Convergence failed at  50  side 2    Res =  0.8783E+02
 MRCHDU: Convergence failed at  51  side 2    Res =  0.1168E+03
 MRCHDU: Convergence failed at  52  side 2    Res =  0.1696E+03
 MRCHDU: Convergence failed at  53  side 2    Res =  0.2192E+03
 MRCHDU: Convergence failed at  54  side 2    Res =  0.4774E+03
 MRCHDU: Convergence failed at  55  side 2    Res =  0.4100E+03
 MRCHDU: Convergence failed at  56  side 2    Res =  0.8042E+04
 MRCHDU: Convergence failed at  57  side 2    Res =  0.3191E+03
 MRCHDU: Convergence failed at  58  side 2    Res =  0.2242E+03
 MRCHDU: Convergence failed at  59  side 2    Res =  0.1541E+03
 MRCHDU: Convergence failed at  60  side 2    Res =  0.1195E+03
 MRCHDU: Convergence failed at  61  side 2    Res =  0.9837E+02
 MRCHDU: Convergence failed at  62  side 2    Res =  0.8620E+02
 MRCHDU: Convergence failed at  63  side 2    Res =  0.7819E+02
 MRCHDU: Convergence failed at  64  side 2    Res =  0.7333E+02
 MRCHDU: Convergence failed at  65  side 2    Res =  0.7208E+02
 MRCHDU: Convergence failed at  66  side 2    Res =  0.7820E+02
 MRCHDU: Convergence failed at  67  side 2    Res =  0.1148E+03
 MRCHDU: Convergence failed at  68  side 2    Res =  0.2498E+04
 MRCHDU: Convergence failed at  69  side 2    Res =  0.1325E+03
 MRCHDU: Convergence failed at  70  side 2    Res =  0.2658E+02
 MRCHDU: Convergence failed at  71  side 2    Res =  0.2654E+02
 MRCHDU: Convergence failed at  72  side 2    Res =  0.2846E+02
 MRCHDU: Convergence failed at  73  side 2    Res =  0.3410E+02
 MRCHDU: Convergence failed at  74  side 2    Res =  0.4435E+02
 MRCHDU: Convergence failed at  75  side 2    Res =  0.4090E+02
 MRCHDU: Convergence failed at  76  side 2    Res =  0.1138E+03
 MRCHDU: Convergence failed at  77  side 2    Res =  0.3122E+03
 MRCHDU: Convergence failed at  78  side 2    Res =  0.7432E+02
 MRCHDU: Convergence failed at  79  side 2    Res =  0.7339E+02
 MRCHDU: Convergence failed at  80  side 2    Res =  0.1958E+02
 MRCHDU: Convergence failed at  81  side 2    Res =  0.3663E+02
 MRCHDU: Convergence failed at  82  side 2    Res =  0.2200E+02
 MRCHDU: Convergence failed at  83  side 2    Res =  0.3303E+02
 MRCHDU: Convergence failed at  84  side 2    Res =  0.3124E+02
 MRCHDU: Convergence failed at  85  side 2    Res =  0.2988E+02
 MRCHDU: Convergence failed at  86  side 2    Res =  0.2972E+02
 MRCHDU: Convergence failed at  87  side 2    Res =  0.2508E+02
 Side 1 forced transition at x/c =  1.0000   75
 Side 2  free  transition at x/c =  0.0639   22

  48   rms: 0.7955E+00   max: 0.2100E+01   D at   91  2   RLX: 0.243
       a = -4.000      CL = -1.2265
      Cm =  0.2638     CD =  0.00797   =>   CDf =  0.00284    CDp =  0.00513

 MRCHDU: Convergence failed at  46  side 2    Res =  0.1705E+00
 MRCHDU: Convergence failed at  47  side 2    Res =  0.1513E+00
 MRCHDU: Convergence failed at  48  side 2    Res =  0.1281E+00
 MRCHDU: Convergence failed at  49  side 2    Res =  0.9312E-01
 MRCHDU: Convergence failed at  84  side 2    Res =  0.1591E+00
 MRCHDU: Convergence failed at  85  side 2    Res =  0.1464E+00
 MRCHDU: Convergence failed at  86  side 2    Res =  0.3769E-01
 Side 1 forced transition at x/c =  1.0000   76
 Side 2  free  transition at x/c =  0.0743   22

  49   rms: 0.4411E+00   max: -.6093E+00   T at   88  2   RLX: 0.447
       a = -4.000      CL = -0.5626
      Cm =  0.0494     CD =  0.02148   =>   CDf =  0.00479    CDp =  0.01669

 MRCHDU: Convergence failed at  49  side 2    Res =  0.2863E+00
 MRCHDU: Convergence failed at  50  side 2    Res =  0.5022E+00
 MRCHDU: Convergence failed at  51  side 2    Res =  0.7816E-03
 MRCHDU: Convergence failed at  53  side 2    Res =  0.4931E+01
 MRCHDU: Convergence failed at  54  side 2    Res =  0.3093E+01
 MRCHDU: Convergence failed at  55  side 2    Res =  0.2249E+01
 MRCHDU: Convergence failed at  56  side 2    Res =  0.1012E+01
 MRCHDU: Convergence failed at  86  side 2    Res =  0.3123E+00
 Side 1 forced transition at x/c =  1.0000   76
 Side 2  free  transition at x/c =  0.0909   23

  50   rms: 0.5280E+00   max: 0.3035E+01   T at   23  2   RLX: 0.171
       a = -4.000      CL = -0.4647
      Cm =  0.0058     CD =  0.03179   =>   CDf =  0.00533    CDp =  0.02646

 MRCHDU: Convergence failed at  51  side 2    Res =  0.7555E-01
 Side 1 forced transition at x/c =  1.0000   76
 Side 2  free  transition at x/c =  0.0775   22

  51   rms: 0.6063E+00   max: -.3468E+01   D at   51  2   RLX: 0.144
       a = -4.000      CL = -0.4703
      Cm =  0.0075     CD =  0.02827   =>   CDf =  0.00554    CDp =  0.02273

 MRCHDU: Convergence failed at  51  side 2    Res =  0.1511E+00
 MRCHDU: Convergence failed at  52  side 2    Res =  0.1155E+00
 MRCHDU: Convergence failed at  53  side 2    Res =  0.8031E-01
 Side 1 forced transition at x/c =  1.0000   76
 Side 2  free  transition at x/c =  0.0723   22

  52   rms: 0.8469E+00   max: -.5139E+01   D at   53  2   RLX: 0.097
       a = -4.000      CL = -0.4403
      Cm =  0.0003     CD =  0.02715   =>   CDf =  0.00532    CDp =  0.02182

 MRCHDU: Convergence failed at  53  side 2    Res =  0.2165E+00
 MRCHDU: Convergence failed at  54  side 2    Res =  0.1471E+00
 MRCHDU: Convergence failed at  55  side 2    Res =  0.1276E+00
 MRCHDU: Convergence failed at  56  side 2    Res =  0.1397E+00
 Side 1 forced transition at x/c =  1.0000   76
 Side 2  free  transition at x/c =  0.0724   22

  53   rms: 0.8494E+00   max: -.4268E+01   D at   57  2   RLX: 0.117
       a = -4.000      CL = -0.3344
      Cm = -0.0354     CD =  0.02643   =>   CDf =  0.00502    CDp =  0.02141

 Side 1 forced transition at x/c =  1.0000   76
 Side 2  free  transition at x/c =  0.0787   22

  54   rms: 0.5956E+00   max: -.2592E+01   D at   47  2   RLX: 0.193
       a = -4.000      CL = -0.3184
      Cm = -0.0328     CD =  0.02521   =>   CDf =  0.00545    CDp =  0.01977

 MRCHDU: Convergence failed at  34  side 2    Res =  0.8668E+00
 Side 1 forced transition at x/c =  1.0000   76
 Side 2  free  transition at x/c =  0.0867   23

  55   rms: 0.4045E+00   max: -.1541E+01   D at   51  2   RLX: 0.325
       a = -4.000      CL = -0.3520
      Cm = -0.0269     CD =  0.02344   =>   CDf =  0.00598    CDp =  0.01747

 Side 1 forced transition at x/c =  1.0000   76
 Side 2  free  transition at x/c =  0.0763   22

  56   rms: 0.3674E+00   max: 0.2146E+01   T at   22  2   RLX: 0.348
       a = -4.000      CL = -0.4009
      Cm = -0.0195     CD =  0.02275   =>   CDf =  0.00612    CDp =  0.01664

 Side 1 forced transition at x/c =  1.0000   76
 Side 2  free  transition at x/c =  0.0643   21
 idif Ue xi dudx           1  0.22545956      4.27913666E-03   52.688095    
 Uenew xinew           2  4.79421876E-02  9.09924507E-04

  57   rms: 0.5463E+00   max: 0.2888E+01   T at   21  2   RLX: 0.254
       a = -4.000      CL = -0.4914
      Cm = -0.0088     CD =  0.02173   =>   CDf =  0.00623    CDp =  0.01550

 Side 1 forced transition at x/c =  1.0000   75
 Side 2  free  transition at x/c =  0.0541   22

  58   rms: 0.4727E+00   max: -.1908E+01   D at   70  2   RLX: 0.262
       a = -4.000      CL = -0.5010
      Cm = -0.0098     CD =  0.01916   =>   CDf =  0.00644    CDp =  0.01273

 Side 1 forced transition at x/c =  1.0000   75
 Side 2  free  transition at x/c =  0.0534   21

  59   rms: 0.4214E+00   max: -.1856E+01   D at   70  2   RLX: 0.269
       a = -4.000      CL = -0.5051
      Cm = -0.0092     CD =  0.01710   =>   CDf =  0.00689    CDp =  0.01021

 MRCHDU: Convergence failed at  60  side 2    Res =  0.2391E+00
 Side 1  free  transition at x/c =  0.9941   75
 Side 2  free  transition at x/c =  0.0533   21

  60   rms: 0.1985E+00   max: -.7983E+00   D at   66  2   RLX: 0.626
       a = -4.000      CL = -0.4610
      Cm = -0.0085     CD =  0.01682   =>   CDf =  0.00766    CDp =  0.00917

 Side 1 forced transition at x/c =  1.0000   75
 Side 2  free  transition at x/c =  0.0567   22

  61   rms: 0.9417E-01   max: -.3538E+00   D at   65  2
       a = -4.000      CL = -0.4012
      Cm = -0.0130     CD =  0.01493   =>   CDf =  0.00783    CDp =  0.00710

 Side 1 forced transition at x/c =  1.0000   76
 Side 2  free  transition at x/c =  0.0629   21

  62   rms: 0.8276E-02   max: 0.8106E-01   D at   21  2
       a = -4.000      CL = -0.4003
      Cm = -0.0125     CD =  0.01553   =>   CDf =  0.00785    CDp =  0.00768

 Side 1 forced transition at x/c =  1.0000   76
 Side 2  free  transition at x/c =  0.0629   21

  63   rms: 0.5046E-03   max: 0.4834E-02   D at    4  1
       a = -4.000      CL = -0.4003
      Cm = -0.0125     CD =  0.01552   =>   CDf =  0.00786    CDp =  0.00766

 Side 1 forced transition at x/c =  1.0000   76
 Side 2  free  transition at x/c =  0.0629   21

  64   rms: 0.2310E-05   max: 0.7662E-05   D at    6  1
       a = -4.000      CL = -0.4003
      Cm = -0.0125     CD =  0.01552   =>   CDf =  0.00786    CDp =  0.00766
 plradd ia,ip,cpol            1           0  1.30869146E-03

 Point added to stored polar  1
 Point written to save file  rg1495_Re200k.base.pol                          
 Dump file unspecified or not available
 Calculating wake trajectory ...
 Calculating source influence matrix ...

 Solving BL system ...

 Side 1 forced transition at x/c =  1.0000   76
 Side 2  free  transition at x/c =  0.0629   21

   1   rms: 0.9203E-01   max: -.5916E+00   T at   21  2   RLX: 0.845
       a = -3.500      CL = -0.3650
      Cm = -0.0105     CD =  0.01467   =>   CDf =  0.00786    CDp =  0.00681

 Side 1 forced transition at x/c =  1.0000   76
 Side 2  free  transition at x/c =  0.0739   22

   2   rms: 0.2534E-01   max: 0.4618E+00   D at   22  2
       a = -3.500      CL = -0.3598
      Cm = -0.0102     CD =  0.01426   =>   CDf =  0.00784    CDp =  0.00642

 Side 1  free  transition at x/c =  0.9938   75
 Side 2  free  transition at x/c =  0.0785   22

   3   rms: 0.2591E-01   max: -.2066E+00   D at   76  1
       a = -3.500      CL = -0.3487
      Cm = -0.0122     CD =  0.01438   =>   CDf =  0.00786    CDp =  0.00652

 Side 1  free  transition at x/c =  0.9994   76
 Side 2  free  transition at x/c =  0.0841   23

   4   rms: 0.1296E-01   max: 0.1625E+00   D at   23  2
       a = -3.500      CL = -0.3518
      Cm = -0.0117     CD =  0.01412   =>   CDf =  0.00780    CDp =  0.00631

 Side 1  free  transition at x/c =  0.9981   76
 Side 2  free  transition at x/c =  0.0831   23

   5   rms: 0.8934E-03   max: 0.7069E-02   T at   23  2
       a = -3.500      CL = -0.3519
      Cm = -0.0117     CD =  0.01413   =>   CDf =  0.00779    CDp =  0.00634

 Side 1  free  transition at x/c =  0.9980   76
 Side 2  free  transition at x/c =  0.0830   23

   6   rms: 0.3451E-05   max: -.4263E-04   D at   23  2
       a = -3.500      CL = -0.3519
      Cm = -0.0117     CD =  0.01413   =>   CDf =  0.00779    CDp =  0.00634
 plradd ia,ip,cpol            2           0  2.50781886E-03

 Point added to stored polar  1
 Point written to save file  rg1495_Re200k.base.pol                          
 Dump file unspecified or not available
 Calculating wake trajectory ...
 Calculating source influence matrix ...

 Solving BL system ...

 Side 1  free  transition at x/c =  0.9980   76
 Side 2  free  transition at x/c =  0.0830   23

   1   rms: 0.2170E+00   max: -.2082E+01   T at   23  2   RLX: 0.240
       a = -3.000      CL = -0.3337
      Cm = -0.0131     CD =  0.01366   =>   CDf =  0.00779    CDp =  0.00587

 Side 1  free  transition at x/c =  0.9956   76
 Side 2  free  transition at x/c =  0.0958   24

   2   rms: 0.3300E+00   max: -.2523E+01   T at   24  2   RLX: 0.198
       a = -3.000      CL = -0.3234
      Cm = -0.0134     CD =  0.01345   =>   CDf =  0.00784    CDp =  0.00561

 Side 1  free  transition at x/c =  0.9946   76
 Side 2  free  transition at x/c =  0.1073   25

   3   rms: 0.3367E+00   max: -.1827E+01   T at   25  2   RLX: 0.274
       a = -3.000      CL = -0.3147
      Cm = -0.0139     CD =  0.01285   =>   CDf =  0.00782    CDp =  0.00503

 MRCHDU: Convergence failed at  26  side 2    Res =  0.5850E+01
 MRCHDU: Convergence failed at  27  side 2    Res =  0.2370E+01
 MRCHDU: Convergence failed at  28  side 2    Res =  0.6200E+01
 MRCHDU: Convergence failed at  29  side 2    Res =  0.1073E+02
 MRCHDU: Convergence failed at  30  side 2    Res =  0.1221E+02
 MRCHDU: Convergence failed at  31  side 2    Res =  0.1121E+02
 MRCHDU: Convergence failed at  32  side 2    Res =  0.1372E+02
 MRCHDU: Convergence failed at  33  side 2    Res =  0.2354E+02
 MRCHDU: Convergence failed at  34  side 2    Res =  0.3253E+02
 MRCHDU: Convergence failed at  35  side 2    Res =  0.4211E+02
 MRCHDU: Convergence failed at  36  side 2    Res =  0.1014E+03
 MRCHDU: Convergence failed at  37  side 2    Res =  0.3039E+02
 MRCHDU: Convergence failed at  38  side 2    Res =  0.3396E+02
 MRCHDU: Convergence failed at  39  side 2    Res =  0.3494E+02
 MRCHDU: Convergence failed at  40  side 2    Res =  0.3191E+02
 MRCHDU: Convergence failed at  41  side 2    Res =  0.2851E+02
 MRCHDU: Convergence failed at  42  side 2    Res =  0.2750E+02
 MRCHDU: Convergence failed at  43  side 2    Res =  0.2598E+02
 MRCHDU: Convergence failed at  44  side 2    Res =  0.2528E+02
 MRCHDU: Convergence failed at  45  side 2    Res =  0.2450E+02
 MRCHDU: Convergence failed at  46  side 2    Res =  0.2352E+02
 MRCHDU: Convergence failed at  47  side 2    Res =  0.2297E+02
 MRCHDU: Convergence failed at  48  side 2    Res =  0.2142E+02
 MRCHDU: Convergence failed at  49  side 2    Res =  0.2162E+02
 MRCHDU: Convergence failed at  50  side 2    Res =  0.2102E+02
 MRCHDU: Convergence failed at  51  side 2    Res =  0.2059E+02
 MRCHDU: Convergence failed at  52  side 2    Res =  0.2004E+02
 MRCHDU: Convergence failed at  53  side 2    Res =  0.1983E+02
 MRCHDU: Convergence failed at  54  side 2    Res =  0.1940E+02
 MRCHDU: Convergence failed at  55  side 2    Res =  0.1921E+02
 MRCHDU: Convergence failed at  56  side 2    Res =  0.1837E+02
 MRCHDU: Convergence failed at  57  side 2    Res =  0.1811E+02
 MRCHDU: Convergence failed at  58  side 2    Res =  0.1777E+02
 MRCHDU: Convergence failed at  59  side 2    Res =  0.1750E+02
 MRCHDU: Convergence failed at  60  side 2    Res =  0.1735E+02
 MRCHDU: Convergence failed at  61  side 2    Res =  0.1719E+02
 MRCHDU: Convergence failed at  62  side 2    Res =  0.1679E+02
 MRCHDU: Convergence failed at  63  side 2    Res =  0.1653E+02
 MRCHDU: Convergence failed at  64  side 2    Res =  0.1620E+02
 MRCHDU: Convergence failed at  65  side 2    Res =  0.1567E+02
 MRCHDU: Convergence failed at  66  side 2    Res =  0.1494E+02
 MRCHDU: Convergence failed at  67  side 2    Res =  0.1406E+02
 MRCHDU: Convergence failed at  68  side 2    Res =  0.1313E+02
 MRCHDU: Convergence failed at  69  side 2    Res =  0.1223E+02
 MRCHDU: Convergence failed at  70  side 2    Res =  0.1138E+02
 MRCHDU: Convergence failed at  71  side 2    Res =  0.1064E+02
 MRCHDU: Convergence failed at  72  side 2    Res =  0.8316E+01
 MRCHDU: Convergence failed at  73  side 2    Res =  0.8813E+01
 MRCHDU: Convergence failed at  74  side 2    Res =  0.9350E+01
 MRCHDU: Convergence failed at  75  side 2    Res =  0.9827E+01
 MRCHDU: Convergence failed at  76  side 2    Res =  0.1036E+02
 MRCHDU: Convergence failed at  77  side 2    Res =  0.1079E+02
 MRCHDU: Convergence failed at  78  side 2    Res =  0.1124E+02
 MRCHDU: Convergence failed at  79  side 2    Res =  0.1156E+02
 MRCHDU: Convergence failed at  80  side 2    Res =  0.1170E+02
 MRCHDU: Convergence failed at  81  side 2    Res =  0.1171E+02
 MRCHDU: Convergence failed at  82  side 2    Res =  0.1163E+02
 MRCHDU: Convergence failed at  83  side 2    Res =  0.1147E+02
 MRCHDU: Convergence failed at  84  side 2    Res =  0.1122E+02
 MRCHDU: Convergence failed at  85  side 2    Res =  0.1070E+02
 MRCHDU: Convergence failed at  86  side 2    Res =  0.1430E+02
 Side 1  free  transition at x/c =  0.9937   75
 Side 2  free  transition at x/c =  0.1296   26

   4   rms: 0.4335E+00   max: 0.1028E+01   D at   91  2   RLX: 0.460
       a = -3.000      CL = -0.5490
      Cm =  0.0810     CD =  0.00893   =>   CDf =  0.00300    CDp =  0.00593

 Side 1  free  transition at x/c =  0.9972   77
 Side 2  free  transition at x/c =  0.1602   27

   5   rms: 0.1816E+00   max: 0.3118E+00   T at   86  2   RLX: 0.884
       a = -3.000      CL = -0.3051
      Cm = -0.0065     CD =  0.01203   =>   CDf =  0.00903    CDp =  0.00300

 MRCHDU: Convergence failed at  29  side 2    Res =  0.3073E+01
 MRCHDU: Convergence failed at  30  side 2    Res =  0.7802E+00
 MRCHDU: Convergence failed at  31  side 2    Res =  0.1245E+01
 MRCHDU: Convergence failed at  32  side 2    Res =  0.1394E+01
 MRCHDU: Convergence failed at  33  side 2    Res =  0.1481E+01
 MRCHDU: Convergence failed at  34  side 2    Res =  0.1548E+01
 MRCHDU: Convergence failed at  35  side 2    Res =  0.1604E+01
 MRCHDU: Convergence failed at  36  side 2    Res =  0.1666E+01
 MRCHDU: Convergence failed at  37  side 2    Res =  0.1729E+01
 MRCHDU: Convergence failed at  38  side 2    Res =  0.1796E+01
 MRCHDU: Convergence failed at  39  side 2    Res =  0.1255E+02
 MRCHDU: Convergence failed at  40  side 2    Res =  0.2433E+01
 MRCHDU: Convergence failed at  41  side 2    Res =  0.2518E+01
 MRCHDU: Convergence failed at  42  side 2    Res =  0.2624E+01
 MRCHDU: Convergence failed at  43  side 2    Res =  0.2953E+01
 MRCHDU: Convergence failed at  44  side 2    Res =  0.3008E+01
 MRCHDU: Convergence failed at  45  side 2    Res =  0.3032E+01
 MRCHDU: Convergence failed at  46  side 2    Res =  0.3046E+01
 MRCHDU: Convergence failed at  47  side 2    Res =  0.3051E+01
 MRCHDU: Convergence failed at  48  side 2    Res =  0.3068E+01
 MRCHDU: Convergence failed at  49  side 2    Res =  0.3083E+01
 MRCHDU: Convergence failed at  50  side 2    Res =  0.3081E+01
 MRCHDU: Convergence failed at  51  side 2    Res =  0.3073E+01
 MRCHDU: Convergence failed at  52  side 2    Res =  0.3065E+01
 MRCHDU: Convergence failed at  53  side 2    Res =  0.3049E+01
 MRCHDU: Convergence failed at  54  side 2    Res =  0.3037E+01
 MRCHDU: Convergence failed at  55  side 2    Res =  0.3020E+01
 MRCHDU: Convergence failed at  56  side 2    Res =  0.3002E+01
 MRCHDU: Convergence failed at  57  side 2    Res =  0.2985E+01
 MRCHDU: Convergence failed at  58  side 2    Res =  0.2971E+01
 MRCHDU: Convergence failed at  59  side 2    Res =  0.2955E+01
 MRCHDU: Convergence failed at  60  side 2    Res =  0.2942E+01
 MRCHDU: Convergence failed at  61  side 2    Res =  0.2930E+01
 MRCHDU: Convergence failed at  62  side 2    Res =  0.2919E+01
 MRCHDU: Convergence failed at  63  side 2    Res =  0.2907E+01
 MRCHDU: Convergence failed at  64  side 2    Res =  0.2893E+01
 MRCHDU: Convergence failed at  65  side 2    Res =  0.2882E+01
 MRCHDU: Convergence failed at  66  side 2    Res =  0.2874E+01
 MRCHDU: Convergence failed at  67  side 2    Res =  0.2872E+01
 MRCHDU: Convergence failed at  68  side 2    Res =  0.2874E+01
 MRCHDU: Convergence failed at  69  side 2    Res =  0.2877E+01
 MRCHDU: Convergence failed at  70  side 2    Res =  0.2892E+01
 MRCHDU: Convergence failed at  71  side 2    Res =  0.2913E+01
 MRCHDU: Convergence failed at  72  side 2    Res =  0.2937E+01
 MRCHDU: Convergence failed at  73  side 2    Res =  0.2965E+01
 MRCHDU: Convergence failed at  74  side 2    Res =  0.2863E+01
 MRCHDU: Convergence failed at  75  side 2    Res =  0.3004E+01
 MRCHDU: Convergence failed at  76  side 2    Res =  0.3126E+01
 MRCHDU: Convergence failed at  77  side 2    Res =  0.3243E+01
 MRCHDU: Convergence failed at  78  side 2    Res =  0.3352E+01
 MRCHDU: Convergence failed at  79  side 2    Res =  0.3428E+01
 MRCHDU: Convergence failed at  80  side 2    Res =  0.3480E+01
 MRCHDU: Convergence failed at  81  side 2    Res =  0.3526E+01
 MRCHDU: Convergence failed at  82  side 2    Res =  0.3574E+01
 MRCHDU: Convergence failed at  83  side 2    Res =  0.3637E+01
 MRCHDU: Convergence failed at  84  side 2    Res =  0.3656E+01
 MRCHDU: Convergence failed at  85  side 2    Res =  0.4951E+01
 Side 1  free  transition at x/c =  0.9878   76
 Side 2  free  transition at x/c =  0.3289   39

   6   rms: 0.2858E+00   max: 0.8762E+00   D at   90  2
       a = -3.000      CL = -0.2814
      Cm = -0.0146     CD =  0.00997   =>   CDf =  0.00450    CDp =  0.00548

 MRCHDU: Convergence failed at  90  side 2    Res =  0.1159E+01
 MRCHDU: Convergence failed at  91  side 2    Res =  0.1605E+01
 Side 1  free  transition at x/c =  0.9982   77
 Side 2  free  transition at x/c =  0.2682   35

   7   rms: 0.4896E-01   max: 0.4784E+00   C at   35  2
       a = -3.000      CL = -0.2738
      Cm = -0.0175     CD =  0.01234   =>   CDf =  0.00691    CDp =  0.00543

 Side 1  free  transition at x/c =  0.9883   76
 Side 2  free  transition at x/c =  0.2280   32

   8   rms: 0.1538E-01   max: -.1618E+00   D at   36  2
       a = -3.000      CL = -0.2752
      Cm = -0.0171     CD =  0.01266   =>   CDf =  0.00706    CDp =  0.00560

 Side 1  free  transition at x/c =  0.9870   76
 Side 2  free  transition at x/c =  0.2191   31

   9   rms: 0.1677E-02   max: -.2422E-01   C at   31  2
       a = -3.000      CL = -0.2750
      Cm = -0.0171     CD =  0.01266   =>   CDf =  0.00710    CDp =  0.00556

 Side 1  free  transition at x/c =  0.9872   76
 Side 2  free  transition at x/c =  0.2196   31

  10   rms: 0.1560E-04   max: 0.2229E-03   C at   31  2
       a = -3.000      CL = -0.2750
      Cm = -0.0171     CD =  0.01266   =>   CDf =  0.00710    CDp =  0.00557
 plradd ia,ip,cpol            3           0  6.38653850E-03

 Point added to stored polar  1
 Point written to save file  rg1495_Re200k.base.pol                          
 Dump file unspecified or not available
 Calculating wake trajectory ...
 Calculating source influence matrix ...

 Solving BL system ...

 Side 1  free  transition at x/c =  0.9872   76
 Side 2  free  transition at x/c =  0.2196   31

   1   rms: 0.2392E+00   max: -.3754E+01   C at   31  2   RLX: 0.133
       a = -2.500      CL = -0.2644
      Cm = -0.0179     CD =  0.01254   =>   CDf =  0.00710    CDp =  0.00545

 Side 1  free  transition at x/c =  0.9857   76
 Side 2  free  transition at x/c =  0.2469   33

   2   rms: 0.2878E+00   max: -.5018E+01   C at   33  2   RLX: 0.100
       a = -2.500      CL = -0.2579
      Cm = -0.0185     CD =  0.01240   =>   CDf =  0.00698    CDp =  0.00543

 Side 1  free  transition at x/c =  0.9848   76
 Side 2  free  transition at x/c =  0.2593   34

   3   rms: 0.2225E+00   max: -.3582E+01   C at   34  2   RLX: 0.140
       a = -2.500      CL = -0.2480
      Cm = -0.0192     CD =  0.01235   =>   CDf =  0.00695    CDp =  0.00540

 Side 1  free  transition at x/c =  0.9838   76
 Side 2  free  transition at x/c =  0.2758   35

   4   rms: 0.1940E+00   max: -.3109E+01   C at   35  2   RLX: 0.161
       a = -2.500      CL = -0.2385
      Cm = -0.0200     CD =  0.01230   =>   CDf =  0.00690    CDp =  0.00540

 Side 1  free  transition at x/c =  0.9830   75
 Side 2  free  transition at x/c =  0.2952   36

   5   rms: 0.2091E+00   max: -.3683E+01   C at   36  2   RLX: 0.136
       a = -2.500      CL = -0.2340
      Cm = -0.0201     CD =  0.01217   =>   CDf =  0.00680    CDp =  0.00536

 Side 1  free  transition at x/c =  0.9815   75
 Side 2  free  transition at x/c =  0.3059   37

   6   rms: 0.2151E+00   max: -.3764E+01   C at   37  2   RLX: 0.133
       a = -2.500      CL = -0.2295
      Cm = -0.0203     CD =  0.01210   =>   CDf =  0.00677    CDp =  0.00534

 Side 1  free  transition at x/c =  0.9804   75
 Side 2  free  transition at x/c =  0.3149   38

   7   rms: 0.1874E+00   max: -.2981E+01   C at   38  2   RLX: 0.168
       a = -2.500      CL = -0.2246
      Cm = -0.0206     CD =  0.01203   =>   CDf =  0.00677    CDp =  0.00526

 Side 1  free  transition at x/c =  0.9793   75
 Side 2  free  transition at x/c =  0.3268   39

   8   rms: 0.1875E+00   max: -.2774E+01   C at   39  2   RLX: 0.180
       a = -2.500      CL = -0.2205
      Cm = -0.0208     CD =  0.01195   =>   CDf =  0.00676    CDp =  0.00519

 Side 1  free  transition at x/c =  0.9784   75
 Side 2  free  transition at x/c =  0.3391   39

   9   rms: 0.6901E-01   max: -.6869E+00   T at   39  2   RLX: 0.728
       a = -2.500      CL = -0.2044
      Cm = -0.0218     CD =  0.01192   =>   CDf =  0.00674    CDp =  0.00518

 Side 1  free  transition at x/c =  0.9752   75
 Side 2  free  transition at x/c =  0.4805   49

  10   rms: 0.1937E+00   max: -.3194E+01   C at   49  2   RLX: 0.157
       a = -2.500      CL = -0.2160
      Cm = -0.0197     CD =  0.01127   =>   CDf =  0.00610    CDp =  0.00517

 Side 1  free  transition at x/c =  0.9751   75
 Side 2  free  transition at x/c =  0.4843   49

  11   rms: 0.6003E-01   max: -.7321E+00   C at   49  2   RLX: 0.683
       a = -2.500      CL = -0.2072
      Cm = -0.0211     CD =  0.01121   =>   CDf =  0.00616    CDp =  0.00505

 Side 1  free  transition at x/c =  0.9747   75
 Side 2  free  transition at x/c =  0.5720   55

  12   rms: 0.2833E-01   max: -.3891E+00   C at   55  2
       a = -2.500      CL = -0.2068
      Cm = -0.0209     CD =  0.01088   =>   CDf =  0.00566    CDp =  0.00522

 Side 1  free  transition at x/c =  0.9745   75
 Side 2  free  transition at x/c =  0.5587   54

  13   rms: 0.3290E-02   max: 0.3684E-01   C at   54  2
       a = -2.500      CL = -0.2060
      Cm = -0.0210     CD =  0.01097   =>   CDf =  0.00557    CDp =  0.00540

 Side 1  free  transition at x/c =  0.9745   75
 Side 2  free  transition at x/c =  0.5517   54

  14   rms: 0.9472E-03   max: -.1479E-01   C at   54  2
       a = -2.500      CL = -0.2059
      Cm = -0.0211     CD =  0.01097   =>   CDf =  0.00559    CDp =  0.00538

 Side 1  free  transition at x/c =  0.9745   75
 Side 2  free  transition at x/c =  0.5523   54

  15   rms: 0.4253E-05   max: 0.6022E-04   C at   54  2
       a = -2.500      CL = -0.2059
      Cm = -0.0211     CD =  0.01097   =>   CDf =  0.00559    CDp =  0.00539
 plradd ia,ip,cpol            4           0  6.38653850E-03

 Point added to stored polar  1
 Point written to save file  rg1495_Re200k.base.pol                          
 Dump file unspecified or not available
 Calculating wake trajectory ...
 Calculating source influence matrix ...

 Solving BL system ...

 Side 1  free  transition at x/c =  0.9745   75
 Side 2  free  transition at x/c =  0.5523   54

   1   rms: 0.4722E+00   max: -.7544E+01   C at   54  2   RLX: 0.066
       a = -2.000      CL = -0.2018
      Cm = -0.0212     CD =  0.01085   =>   CDf =  0.00559    CDp =  0.00526

 Side 1  free  transition at x/c =  0.9737   75
 Side 2  free  transition at x/c =  0.5789   56

   2   rms: 0.4088E+00   max: -.6459E+01   C at   56  2   RLX: 0.077
       a = -2.000      CL = -0.1968
      Cm = -0.0214     CD =  0.01074   =>   CDf =  0.00546    CDp =  0.00528

 Side 1  free  transition at x/c =  0.9729   75
 Side 2  free  transition at x/c =  0.6109   58

   3   rms: 0.3252E+00   max: -.5011E+01   C at   58  2   RLX: 0.100
       a = -2.000      CL = -0.1909
      Cm = -0.0215     CD =  0.01064   =>   CDf =  0.00531    CDp =  0.00532

 Side 1  free  transition at x/c =  0.9719   75
 Side 2  free  transition at x/c =  0.6588   61

   4   rms: 0.2336E+00   max: -.3395E+01   C at   61  2   RLX: 0.147
       a = -2.000      CL = -0.1838
      Cm = -0.0213     CD =  0.01051   =>   CDf =  0.00517    CDp =  0.00535

 Side 1  free  transition at x/c =  0.9708   76
 Side 2  free  transition at x/c =  0.7313   65

   5   rms: 0.2147E+00   max: -.2681E+01   C at   65  2   RLX: 0.186
       a = -2.000      CL = -0.1788
      Cm = -0.0196     CD =  0.01045   =>   CDf =  0.00481    CDp =  0.00564

 Side 1  free  transition at x/c =  0.9698   75
 Side 2  free  transition at x/c =  0.7656   67

   6   rms: 0.9893E-01   max: 0.1030E+01   C at   67  2
       a = -2.000      CL = -0.1596
      Cm = -0.0187     CD =  0.01037   =>   CDf =  0.00475    CDp =  0.00562

 MRCHDU: Convergence failed at  72  side 2    Res =  0.1250E+01
 MRCHDU: Convergence failed at  73  side 2    Res =  0.1056E+01
 MRCHDU: Convergence failed at  74  side 2    Res =  0.1953E+01
 MRCHDU: Convergence failed at  75  side 2    Res =  0.2790E+01
 MRCHDU: Convergence failed at  76  side 2    Res =  0.3707E+01
 MRCHDU: Convergence failed at  77  side 2    Res =  0.4320E+01
 MRCHDU: Convergence failed at  78  side 2    Res =  0.4529E+01
 MRCHDU: Convergence failed at  79  side 2    Res =  0.4411E+01
 MRCHDU: Convergence failed at  80  side 2    Res =  0.4140E+01
 MRCHDU: Convergence failed at  81  side 2    Res =  0.3837E+01
 MRCHDU: Convergence failed at  82  side 2    Res =  0.9528E+01
 MRCHDU: Convergence failed at  83  side 2    Res =  0.1066E+02
 MRCHDU: Convergence failed at  84  side 2    Res =  0.5402E+01
 Side 1  free  transition at x/c =  0.9497   74
 Side 2  free  transition at x/c =  0.9679   81

   7   rms: 0.8847E-01   max: 0.5915E+00   D at   67  2
       a = -2.000      CL = -0.1535
      Cm = -0.0177     CD =  0.00996   =>   CDf =  0.00458    CDp =  0.00538

 Side 1  free  transition at x/c =  0.9616   75
 Side 2  free  transition at x/c =  0.8483   73

   8   rms: 0.4181E-01   max: -.4288E+00   D at   77  2
       a = -2.000      CL = -0.1422
      Cm = -0.0210     CD =  0.01037   =>   CDf =  0.00458    CDp =  0.00579

 Side 1  free  transition at x/c =  0.9606   75
 Side 2  free  transition at x/c =  0.8415   73

   9   rms: 0.8812E-02   max: -.1296E+00   D at   77  2
       a = -2.000      CL = -0.1443
      Cm = -0.0205     CD =  0.01042   =>   CDf =  0.00463    CDp =  0.00579

 Side 1  free  transition at x/c =  0.9600   75
 Side 2  free  transition at x/c =  0.8379   72

  10   rms: 0.9913E-03   max: -.1657E-01   D at   77  2
       a = -2.000      CL = -0.1445
      Cm = -0.0204     CD =  0.01042   =>   CDf =  0.00465    CDp =  0.00577

 Side 1  free  transition at x/c =  0.9601   75
 Side 2  free  transition at x/c =  0.8373   72

  11   rms: 0.1918E-04   max: -.1678E-03   C at   72  2
       a = -2.000      CL = -0.1445
      Cm = -0.0204     CD =  0.01042   =>   CDf =  0.00465    CDp =  0.00578
 plradd ia,ip,cpol            5           0  6.38653850E-03

 Point added to stored polar  1
 Point written to save file  rg1495_Re200k.base.pol                          
 Dump file unspecified or not available
 Calculating wake trajectory ...
 Calculating source influence matrix ...

 Solving BL system ...

 Side 1  free  transition at x/c =  0.9601   75
 Side 2  free  transition at x/c =  0.8373   72

   1   rms: 0.1239E+00   max: -.4703E+00   T at   72  2
       a = -1.500      CL = -0.0701
      Cm = -0.0229     CD =  0.01044   =>   CDf =  0.00472    CDp =  0.00572

 Side 1  free  transition at x/c =  0.9481   75
 Side 2  free  transition at x/c =  0.9131   77

   2   rms: 0.2776E-01   max: 0.3383E+00   D at   77  2
       a = -1.500      CL = -0.0717
      Cm = -0.0218     CD =  0.01051   =>   CDf =  0.00473    CDp =  0.00578

 Side 1  free  transition at x/c =  0.9467   75
 Side 2  free  transition at x/c =  0.9187   77

   3   rms: 0.3972E-02   max: -.3020E-01   D at   78  2
       a = -1.500      CL = -0.0732
      Cm = -0.0215     CD =  0.01052   =>   CDf =  0.00468    CDp =  0.00585

 Side 1  free  transition at x/c =  0.9465   75
 Side 2  free  transition at x/c =  0.9197   77

   4   rms: 0.1526E-03   max: -.1212E-02   D at   78  2
       a = -1.500      CL = -0.0732
      Cm = -0.0215     CD =  0.01053   =>   CDf =  0.00468    CDp =  0.00585

 Side 1  free  transition at x/c =  0.9465   75
 Side 2  free  transition at x/c =  0.9197   77

   5   rms: 0.2034E-05   max: -.1793E-04   D at    4  1
       a = -1.500      CL = -0.0732
      Cm = -0.0215     CD =  0.01053   =>   CDf =  0.00468    CDp =  0.00585
 plradd ia,ip,cpol            6           0  9.31253657E-03

 Point added to stored polar  1
 Point written to save file  rg1495_Re200k.base.pol                          
 Dump file unspecified or not available
 Calculating wake trajectory ...
 Calculating source influence matrix ...

 Solving BL system ...

 Side 1  free  transition at x/c =  0.9465   75
 Side 2  free  transition at x/c =  0.9197   77

   1   rms: 0.1311E+00   max: -.5311E+00   T at   77  2   RLX: 0.942
       a = -1.000      CL =  0.0121
      Cm = -0.0261     CD =  0.01066   =>   CDf =  0.00468    CDp =  0.00598

 Side 1  free  transition at x/c =  0.9387   74
 Side 2  free  transition at x/c =  0.9565   80

   2   rms: 0.3705E-01   max: 0.1415E+00   D at   82  2
       a = -1.000      CL =  0.0498
      Cm = -0.0335     CD =  0.01074   =>   CDf =  0.00490    CDp =  0.00584

 Side 1  free  transition at x/c =  0.9474   76
 Side 2  free  transition at x/c =  0.9601   79

   3   rms: 0.2092E-01   max: 0.1539E+00   D at   79  1
       a = -1.000      CL =  0.0416
      Cm = -0.0319     CD =  0.01074   =>   CDf =  0.00487    CDp =  0.00587

 Side 1  free  transition at x/c =  0.9426   76
 Side 2  free  transition at x/c =  0.9624   79

   4   rms: 0.2877E-02   max: -.1788E-01   D at   77  1
       a = -1.000      CL =  0.0424
[...]
 Side 2 forced transition at x/c =  1.0000   72

 105   rms: 0.1037E+04   max: -.9978E+04   C at   93  2   RLX: 0.000
       a = 16.000      CL =  0.8151
      Cm = -0.0544     CD =  0.13795   =>   CDf =  0.00309    CDp =  0.13487

 MRCHDU: Convergence failed at  86  side 2    Res =  0.8139E-02
 MRCHDU: Convergence failed at  87  side 2    Res =  0.7108E-01
 MRCHDU: Convergence failed at  88  side 2    Res =  0.7482E-01
 MRCHDU: Convergence failed at  89  side 2    Res =  0.8525E-01
 MRCHDU: Convergence failed at  90  side 2    Res =  0.1000E+00
 MRCHDU: Convergence failed at  91  side 2    Res =  0.1180E+00
 MRCHDU: Convergence failed at  92  side 2    Res =  0.1393E+00
 MRCHDU: Convergence failed at  93  side 2    Res =  0.1646E+00
 MRCHDU: Convergence failed at  94  side 2    Res =  0.2493E-01
 Side 1  free  transition at x/c =  0.0538   24
 Side 2 forced transition at x/c =  1.0000   72

 106   rms: 0.1170E+04   max: -.1126E+05   C at   93  2   RLX: 0.000
       a = 16.000      CL =  0.8151
      Cm = -0.0544     CD =  0.20108   =>   CDf =  0.00309    CDp =  0.19799

 MRCHDU: Convergence failed at  86  side 2    Res =  0.5966E-01
 MRCHDU: Convergence failed at  87  side 2    Res =  0.7110E-01
 MRCHDU: Convergence failed at  88  side 2    Res =  0.7484E-01
 MRCHDU: Convergence failed at  89  side 2    Res =  0.8527E-01
 MRCHDU: Convergence failed at  90  side 2    Res =  0.9946E-01
 MRCHDU: Convergence failed at  91  side 2    Res =  0.1162E+00
 MRCHDU: Convergence failed at  92  side 2    Res =  0.1372E+00
 MRCHDU: Convergence failed at  93  side 2    Res =  0.1620E+00
 MRCHDU: Convergence failed at  94  side 2    Res =  0.1950E-01
 Side 1  free  transition at x/c =  0.0538   24
 Side 2 forced transition at x/c =  1.0000   72

 107   rms: 0.1254E+04   max: -.1206E+05   C at   93  2   RLX: 0.000
       a = 16.000      CL =  0.8150
      Cm = -0.0544     CD =  0.19684   =>   CDf =  0.00309    CDp =  0.19375

 MRCHDU: Convergence failed at  86  side 2    Res =  0.1112E+00
 Side 1  free  transition at x/c =  0.0538   24
 Side 2 forced transition at x/c =  1.0000   72

 108   rms: 0.1573E+01   max: 0.3574E+02   C at   94  2   RLX: 0.042
       a = 16.000      CL =  0.8077
      Cm = -0.0537     CD =  0.19787   =>   CDf =  0.00309    CDp =  0.19478

 Side 1  free  transition at x/c =  0.0537   24
 Side 2 forced transition at x/c =  1.0000   72

 109   rms: 0.3152E+01   max: -.3243E+02   C at   90  2   RLX: 0.015
       a = 16.000      CL =  0.8063
      Cm = -0.0536     CD =  0.13212   =>   CDf =  0.00308    CDp =  0.12904

 Side 1  free  transition at x/c =  0.0537   24
 Side 2 forced transition at x/c =  1.0000   72

 110   rms: 0.1169E+02   max: -.1142E+03   C at   93  2   RLX: 0.004
       a = 16.000      CL =  0.8059
      Cm = -0.0536     CD =  0.13320   =>   CDf =  0.00308    CDp =  0.13012

 Side 1  free  transition at x/c =  0.0536   24
 Side 2 forced transition at x/c =  1.0000   72

 111   rms: 0.2468E+02   max: -.2420E+03   C at   94  2   RLX: 0.002
       a = 16.000      CL =  0.8056
      Cm = -0.0535     CD =  0.13353   =>   CDf =  0.00307    CDp =  0.13045

 Side 1  free  transition at x/c =  0.0536   24
 Side 2 forced transition at x/c =  1.0000   72

 112   rms: 0.4210E+02   max: -.4122E+03   C at   94  2   RLX: 0.001
       a = 16.000      CL =  0.8055
      Cm = -0.0535     CD =  0.13367   =>   CDf =  0.00307    CDp =  0.13059

 Side 1  free  transition at x/c =  0.0536   24
 Side 2 forced transition at x/c =  1.0000   72

 113   rms: 0.6270E+02   max: -.6108E+03   C at   94  2   RLX: 0.001
       a = 16.000      CL =  0.8054
      Cm = -0.0535     CD =  0.13373   =>   CDf =  0.00307    CDp =  0.13066

 Side 1  free  transition at x/c =  0.0536   24
 Side 2 forced transition at x/c =  1.0000   72

 114   rms: 0.8555E+02   max: -.8302E+03   C at   94  2   RLX: 0.001
       a = 16.000      CL =  0.8053
      Cm = -0.0535     CD =  0.13377   =>   CDf =  0.00307    CDp =  0.13070

 Side 1  free  transition at x/c =  0.0536   24
 Side 2 forced transition at x/c =  1.0000   72

 115   rms: 0.1085E+03   max: -.1050E+04   C at   94  2   RLX: 0.000
       a = 16.000      CL =  0.8052
      Cm = -0.0535     CD =  0.13380   =>   CDf =  0.00307    CDp =  0.13072

 Side 1  free  transition at x/c =  0.0536   24
 Side 2 forced transition at x/c =  1.0000   72

 116   rms: 0.1355E+03   max: -.1308E+04   C at   94  2   RLX: 0.000
       a = 16.000      CL =  0.8052
      Cm = -0.0535     CD =  0.13382   =>   CDf =  0.00307    CDp =  0.13074

 Side 1  free  transition at x/c =  0.0536   24
 Side 2 forced transition at x/c =  1.0000   72

 117   rms: 0.1659E+03   max: -.1600E+04   C at   94  2   RLX: 0.000
       a = 16.000      CL =  0.8051
      Cm = -0.0535     CD =  0.13384   =>   CDf =  0.00307    CDp =  0.13076

 Side 1  free  transition at x/c =  0.0536   24
 Side 2 forced transition at x/c =  1.0000   72

 118   rms: 0.1974E+03   max: -.1903E+04   C at   94  2   RLX: 0.000
       a = 16.000      CL =  0.8051
      Cm = -0.0535     CD =  0.13385   =>   CDf =  0.00307    CDp =  0.13078

 Side 1  free  transition at x/c =  0.0536   24
 Side 2 forced transition at x/c =  1.0000   72

 119   rms: 0.2330E+03   max: -.2245E+04   C at   94  2   RLX: 0.000
       a = 16.000      CL =  0.8051
      Cm = -0.0535     CD =  0.13386   =>   CDf =  0.00307    CDp =  0.13079

 Side 1  free  transition at x/c =  0.0536   24
 Side 2 forced transition at x/c =  1.0000   72

 120   rms: 0.2703E+03   max: -.2603E+04   C at   94  2   RLX: 0.000
       a = 16.000      CL =  0.8050
      Cm = -0.0534     CD =  0.13387   =>   CDf =  0.00307    CDp =  0.13080

 MRCHDU: Convergence failed at  94  side 2    Res =  0.6250E-03
 Side 1  free  transition at x/c =  0.0536   24
 Side 2 forced transition at x/c =  1.0000   72

 121   rms: 0.3092E+03   max: -.2975E+04   C at   94  2   RLX: 0.000
       a = 16.000      CL =  0.8050
      Cm = -0.0534     CD =  0.13388   =>   CDf =  0.00307    CDp =  0.13081

 MRCHDU: Convergence failed at  94  side 2    Res =  0.5399E-01
 Side 1  free  transition at x/c =  0.0536   24
 Side 2 forced transition at x/c =  1.0000   72

 122   rms: 0.3492E+03   max: -.3359E+04   C at   94  2   RLX: 0.000
       a = 16.000      CL =  0.8050
      Cm = -0.0534     CD =  0.13389   =>   CDf =  0.00307    CDp =  0.13082

 MRCHDU: Convergence failed at  93  side 2    Res =  0.2124E-01
 MRCHDU: Convergence failed at  94  side 2    Res =  0.8588E-01
 Side 1  free  transition at x/c =  0.0536   24
 Side 2 forced transition at x/c =  1.0000   72

 123   rms: 0.3967E+03   max: -.3815E+04   C at   94  2   RLX: 0.000
       a = 16.000      CL =  0.8050
      Cm = -0.0534     CD =  0.13390   =>   CDf =  0.00307    CDp =  0.13082

 MRCHDU: Convergence failed at  93  side 2    Res =  0.7414E-01
 MRCHDU: Convergence failed at  94  side 2    Res =  0.8595E-01
 Side 1  free  transition at x/c =  0.0536   24
 Side 2 forced transition at x/c =  1.0000   72

 124   rms: 0.4497E+03   max: -.4323E+04   C at   94  2   RLX: 0.000
       a = 16.000      CL =  0.8050
      Cm = -0.0534     CD =  0.13390   =>   CDf =  0.00307    CDp =  0.13083

 MRCHDU: Convergence failed at  93  side 2    Res =  0.1268E+00
 MRCHDU: Convergence failed at  94  side 2    Res =  0.5936E-01
 Side 1  free  transition at x/c =  0.0536   24
 Side 2 forced transition at x/c =  1.0000   72

 125   rms: 0.4993E+03   max: -.4799E+04   C at   94  2   RLX: 0.000
       a = 16.000      CL =  0.8049
      Cm = -0.0534     CD =  0.13152   =>   CDf =  0.00307    CDp =  0.12844

 MRCHDU: Convergence failed at  92  side 2    Res =  0.4772E-01
 MRCHDU: Convergence failed at  93  side 2    Res =  0.1303E+00
 MRCHDU: Convergence failed at  94  side 2    Res =  0.6425E-01
 Side 1  free  transition at x/c =  0.0536   24
 Side 2 forced transition at x/c =  1.0000   72

 126   rms: 0.5514E+03   max: -.5299E+04   C at   94  2   RLX: 0.000
       a = 16.000      CL =  0.8049
      Cm = -0.0534     CD =  0.13152   =>   CDf =  0.00307    CDp =  0.12845

 MRCHDU: Convergence failed at  92  side 2    Res =  0.1001E+00
 MRCHDU: Convergence failed at  93  side 2    Res =  0.1200E+00
 MRCHDU: Convergence failed at  94  side 2    Res =  0.3680E-01
 Side 1  free  transition at x/c =  0.0536   24
 Side 2 forced transition at x/c =  1.0000   72

 127   rms: 0.6094E+03   max: -.5855E+04   C at   94  2   RLX: 0.000
       a = 16.000      CL =  0.8049
      Cm = -0.0534     CD =  0.12914   =>   CDf =  0.00307    CDp =  0.12607

 MRCHDU: Convergence failed at  91  side 2    Res =  0.4198E-01
 MRCHDU: Convergence failed at  92  side 2    Res =  0.1091E+00
 MRCHDU: Convergence failed at  93  side 2    Res =  0.1287E+00
 MRCHDU: Convergence failed at  94  side 2    Res =  0.4715E-01
 Side 1  free  transition at x/c =  0.0536   24
 Side 2 forced transition at x/c =  1.0000   72

 128   rms: 0.6704E+03   max: -.6441E+04   C at   94  2   RLX: 0.000
       a = 16.000      CL =  0.8049
      Cm = -0.0534     CD =  0.12915   =>   CDf =  0.00307    CDp =  0.12608

 MRCHDU: Convergence failed at  90  side 2    Res =  0.1607E-02
 MRCHDU: Convergence failed at  91  side 2    Res =  0.9256E-01
 MRCHDU: Convergence failed at  92  side 2    Res =  0.1091E+00
 MRCHDU: Convergence failed at  93  side 2    Res =  0.1287E+00
 MRCHDU: Convergence failed at  94  side 2    Res =  0.4719E-01
 Side 1  free  transition at x/c =  0.0536   24
 Side 2 forced transition at x/c =  1.0000   72

 129   rms: 0.7312E+03   max: -.7025E+04   C at   94  2   RLX: 0.000
       a = 16.000      CL =  0.8049
      Cm = -0.0534     CD =  0.12915   =>   CDf =  0.00307    CDp =  0.12608

 MRCHDU: Convergence failed at  90  side 2    Res =  0.5366E-01
 MRCHDU: Convergence failed at  91  side 2    Res =  0.9257E-01
 MRCHDU: Convergence failed at  92  side 2    Res =  0.1091E+00
 MRCHDU: Convergence failed at  93  side 2    Res =  0.1287E+00
 MRCHDU: Convergence failed at  94  side 2    Res =  0.4722E-01
 Side 1  free  transition at x/c =  0.0536   24
 Side 2 forced transition at x/c =  1.0000   72

 130   rms: 0.7988E+03   max: -.7675E+04   C at   94  2   RLX: 0.000
       a = 16.000      CL =  0.8049
      Cm = -0.0534     CD =  0.12916   =>   CDf =  0.00307    CDp =  0.12609

 MRCHDU: Convergence failed at  89  side 2    Res =  0.2714E-01
 MRCHDU: Convergence failed at  90  side 2    Res =  0.7846E-01
 MRCHDU: Convergence failed at  91  side 2    Res =  0.9258E-01
 MRCHDU: Convergence failed at  92  side 2    Res =  0.1091E+00
 MRCHDU: Convergence failed at  93  side 2    Res =  0.1287E+00
 MRCHDU: Convergence failed at  94  side 2    Res =  0.4725E-01
 Side 1  free  transition at x/c =  0.0536   24
 Side 2 forced transition at x/c =  1.0000   72

 131   rms: 0.8618E+03   max: -.8280E+04   C at   94  2   RLX: 0.000
       a = 16.000      CL =  0.8049
      Cm = -0.0534     CD =  0.12916   =>   CDf =  0.00307    CDp =  0.12609

 MRCHDU: Convergence failed at  88  side 2    Res =  0.1039E-01
 MRCHDU: Convergence failed at  89  side 2    Res =  0.6855E-01
 MRCHDU: Convergence failed at  90  side 2    Res =  0.7847E-01
 MRCHDU: Convergence failed at  91  side 2    Res =  0.9259E-01
 MRCHDU: Convergence failed at  92  side 2    Res =  0.1092E+00
 MRCHDU: Convergence failed at  93  side 2    Res =  0.1287E+00
 MRCHDU: Convergence failed at  94  side 2    Res =  0.4728E-01
 Side 1  free  transition at x/c =  0.0536   24
 Side 2 forced transition at x/c =  1.0000   72

 132   rms: 0.9259E+03   max: -.8895E+04   C at   94  2   RLX: 0.000
       a = 16.000      CL =  0.8049
      Cm = -0.0534     CD =  0.12917   =>   CDf =  0.00307    CDp =  0.12609

 MRCHDU: Convergence failed at  88  side 2    Res =  0.6219E-01
 MRCHDU: Convergence failed at  89  side 2    Res =  0.6856E-01
 MRCHDU: Convergence failed at  90  side 2    Res =  0.7848E-01
 MRCHDU: Convergence failed at  91  side 2    Res =  0.9260E-01
 MRCHDU: Convergence failed at  92  side 2    Res =  0.1092E+00
 MRCHDU: Convergence failed at  93  side 2    Res =  0.1287E+00
 MRCHDU: Convergence failed at  94  side 2    Res =  0.4731E-01
 Side 1  free  transition at x/c =  0.0536   24
 Side 2 forced transition at x/c =  1.0000   72

 133   rms: 0.1004E+04   max: -.9645E+04   C at   94  2   RLX: 0.000
       a = 16.000      CL =  0.8049
      Cm = -0.0534     CD =  0.12917   =>   CDf =  0.00307    CDp =  0.12610

 MRCHDU: Convergence failed at  87  side 2    Res =  0.5014E-01
 MRCHDU: Convergence failed at  88  side 2    Res =  0.6367E-01
 MRCHDU: Convergence failed at  89  side 2    Res =  0.6857E-01
 MRCHDU: Convergence failed at  90  side 2    Res =  0.7849E-01
 MRCHDU: Convergence failed at  91  side 2    Res =  0.9261E-01
 MRCHDU: Convergence failed at  92  side 2    Res =  0.1092E+00
 MRCHDU: Convergence failed at  93  side 2    Res =  0.1288E+00
 MRCHDU: Convergence failed at  94  side 2    Res =  0.4733E-01
 Side 1  free  transition at x/c =  0.0536   24
 Side 2 forced transition at x/c =  1.0000   72

 134   rms: 0.1078E+04   max: -.1036E+05   C at   94  2   RLX: 0.000
       a = 16.000      CL =  0.8049
      Cm = -0.0534     CD =  0.12917   =>   CDf =  0.00307    CDp =  0.12610

 MRCHDU: Convergence failed at  87  side 2    Res =  0.1017E+00
 Side 1  free  transition at x/c =  0.0536   24
 Side 2 forced transition at x/c =  1.0000   72

 135   rms: 0.5156E+00   max: 0.4463E+01   T at   88  2   RLX: 0.121
       a = 16.000      CL =  0.7916
      Cm = -0.0505     CD =  0.17233   =>   CDf =  0.00307    CDp =  0.16926

 Side 1  free  transition at x/c =  0.0531   23
 Side 2 forced transition at x/c =  1.0000   72

 136   rms: 0.1835E+02   max: -.1932E+03   C at   94  2   RLX: 0.003
       a = 16.000      CL =  0.8053
      Cm = -0.0537     CD =  0.16774   =>   CDf =  0.00307    CDp =  0.16467

 Side 1  free  transition at x/c =  0.0531   23
 Side 2 forced transition at x/c =  1.0000   72

 137   rms: 0.3353E+02   max: -.3494E+03   C at   94  2   RLX: 0.001
       a = 16.000      CL =  0.8050
      Cm = -0.0538     CD =  0.16782   =>   CDf =  0.00307    CDp =  0.16475

 Side 1  free  transition at x/c =  0.0531   23
 Side 2 forced transition at x/c =  1.0000   72

 138   rms: 0.5319E+02   max: -.5508E+03   C at   94  2   RLX: 0.001
       a = 16.000      CL =  0.8049
      Cm = -0.0538     CD =  0.16782   =>   CDf =  0.00307    CDp =  0.16475

 Side 1  free  transition at x/c =  0.0531   23
 Side 2 forced transition at x/c =  1.0000   72

 139   rms: 0.7499E+02   max: -.7740E+03   C at   94  2   RLX: 0.001
       a = 16.000      CL =  0.8048
      Cm = -0.0538     CD =  0.16780   =>   CDf =  0.00307    CDp =  0.16473

 Side 1  free  transition at x/c =  0.0531   23
 Side 2 forced transition at x/c =  1.0000   72

 140   rms: 0.9829E+02   max: -.1012E+04   C at   94  2   RLX: 0.000
       a = 16.000      CL =  0.8047
      Cm = -0.0538     CD =  0.16778   =>   CDf =  0.00307    CDp =  0.16470

 Side 1  free  transition at x/c =  0.0531   23
 Side 2 forced transition at x/c =  1.0000   72

 141   rms: 0.1245E+03   max: -.1281E+04   C at   94  2   RLX: 0.000
       a = 16.000      CL =  0.8046
      Cm = -0.0538     CD =  0.16775   =>   CDf =  0.00307    CDp =  0.16468

 Side 1  free  transition at x/c =  0.0531   23
 Side 2 forced transition at x/c =  1.0000   72

 142   rms: 0.1529E+03   max: -.1572E+04   C at   94  2   RLX: 0.000
       a = 16.000      CL =  0.8046
      Cm = -0.0538     CD =  0.16773   =>   CDf =  0.00307    CDp =  0.16466

 Side 1  free  transition at x/c =  0.0531   23
 Side 2 forced transition at x/c =  1.0000   72

 143   rms: 0.1829E+03   max: -.1879E+04   C at   94  2   RLX: 0.000
       a = 16.000      CL =  0.8045
      Cm = -0.0538     CD =  0.16772   =>   CDf =  0.00307    CDp =  0.16465

 Side 1  free  transition at x/c =  0.0531   23
 Side 2 forced transition at x/c =  1.0000   72

 144   rms: 0.2167E+03   max: -.2225E+04   C at   94  2   RLX: 0.000
       a = 16.000      CL =  0.8045
      Cm = -0.0538     CD =  0.16770   =>   CDf =  0.00307    CDp =  0.16463

 Side 1  free  transition at x/c =  0.0531   23
 Side 2 forced transition at x/c =  1.0000   72

 145   rms: 0.2529E+03   max: -.2596E+04   C at   94  2   RLX: 0.000
       a = 16.000      CL =  0.8045
      Cm = -0.0538     CD =  0.16769   =>   CDf =  0.00307    CDp =  0.16462

 Side 1  free  transition at x/c =  0.0531   23
 Side 2 forced transition at x/c =  1.0000   72

 146   rms: 0.2908E+03   max: -.2985E+04   C at   94  2   RLX: 0.000
       a = 16.000      CL =  0.8044
      Cm = -0.0538     CD =  0.16768   =>   CDf =  0.00307    CDp =  0.16461

 Side 1  free  transition at x/c =  0.0531   23
 Side 2 forced transition at x/c =  1.0000   72

 147   rms: 0.3318E+03   max: -.3405E+04   C at   94  2   RLX: 0.000
       a = 16.000      CL =  0.8044
      Cm = -0.0538     CD =  0.16767   =>   CDf =  0.00307    CDp =  0.16460

 Side 1  free  transition at x/c =  0.0531   23
 Side 2 forced transition at x/c =  1.0000   72

 148   rms: 0.3758E+03   max: -.3856E+04   C at   94  2   RLX: 0.000
       a = 16.000      CL =  0.8044
      Cm = -0.0538     CD =  0.16766   =>   CDf =  0.00307    CDp =  0.16459

 Side 1  free  transition at x/c =  0.0531   23
 Side 2 forced transition at x/c =  1.0000   72

 149   rms: 0.4231E+03   max: -.4341E+04   C at   94  2   RLX: 0.000
       a = 16.000      CL =  0.8044
      Cm = -0.0537     CD =  0.16765   =>   CDf =  0.00307    CDp =  0.16458

 Side 1  free  transition at x/c =  0.0531   23
 Side 2 forced transition at x/c =  1.0000   72

 150   rms: 0.4704E+03   max: -.4826E+04   C at   94  2   RLX: 0.000
       a = 16.000      CL =  0.8043
      Cm = -0.0537     CD =  0.16765   =>   CDf =  0.00307    CDp =  0.16457

 MRCHDU: Convergence failed at  94  side 2    Res =  0.2046E-01
 Side 1  free  transition at x/c =  0.0531   23
 Side 2 forced transition at x/c =  1.0000   72

 151   rms: 0.5256E+03   max: -.5392E+04   C at   94  2   RLX: 0.000
       a = 16.000      CL =  0.8043
      Cm = -0.0538     CD =  0.16764   =>   CDf =  0.00307    CDp =  0.16457

 MRCHDU: Convergence failed at  93  side 2    Res =  0.4443E-01
 MRCHDU: Convergence failed at  94  side 2    Res =  0.2860E-01
 Side 1  free  transition at x/c =  0.0531   23
 Side 2 forced transition at x/c =  1.0000   72

 152   rms: 0.5796E+03   max: -.5947E+04   C at   94  2   RLX: 0.000
       a = 16.000      CL =  0.8043
      Cm = -0.0537     CD =  0.16764   =>   CDf =  0.00307    CDp =  0.16456

 MRCHDU: Convergence failed at  93  side 2    Res =  0.9681E-01
 MRCHDU: Convergence failed at  94  side 2    Res =  0.2861E-01
 Side 1  free  transition at x/c =  0.0531   23
 Side 2 forced transition at x/c =  1.0000   72

 153   rms: 0.6356E+03   max: -.6521E+04   C at   94  2   RLX: 0.000
       a = 16.000      CL =  0.8043
      Cm = -0.0537     CD =  0.16763   =>   CDf =  0.00307    CDp =  0.16456

 MRCHDU: Convergence failed at  92  side 2    Res =  0.4747E-01
 MRCHDU: Convergence failed at  93  side 2    Res =  0.1016E+00
 MRCHDU: Convergence failed at  94  side 2    Res =  0.2418E-01
 Side 1  free  transition at x/c =  0.0531   23
 Side 2 forced transition at x/c =  1.0000   72

 154   rms: 0.6931E+03   max: -.7111E+04   C at   94  2   RLX: 0.000
       a = 16.000      CL =  0.8043
      Cm = -0.0537     CD =  0.16309   =>   CDf =  0.00307    CDp =  0.16002

 MRCHDU: Convergence failed at  91  side 2    Res =  0.1270E-01
 MRCHDU: Convergence failed at  92  side 2    Res =  0.8697E-01
 MRCHDU: Convergence failed at  93  side 2    Res =  0.1007E+00
 MRCHDU: Convergence failed at  94  side 2    Res =  0.2419E-01
 Side 1  free  transition at x/c =  0.0531   23
 Side 2 forced transition at x/c =  1.0000   72

 155   rms: 0.7557E+03   max: -.7753E+04   C at   94  2   RLX: 0.000
       a = 16.000      CL =  0.8043
      Cm = -0.0537     CD =  0.16309   =>   CDf =  0.00307    CDp =  0.16001
 VISCAL:  Convergence failed

.OPERva   c>  
 Polar accumulation disabled

.OPERv   c>  
 XFOIL   c>  
 XFOIL   c>  