
 ===================================================
  XFOIL Version 6.99
  Copyright (C) 2000   Mark Drela, Harold Youngren

  This software comes with ABSOLUTELY NO WARRANTY,
    subject to the GNU General Public License.

  Caveat computor
 ===================================================

 File  xfoil.def  not found

   QUIT    Exit program

  .OPER    Direct operating point(s)
  .MDES    Complex mapping design routine
  .QDES    Surface speed design routine
  .GDES    Geometry design routine

   SAVE f  Write airfoil to labeled coordinate file
   PSAV f  Write airfoil to plain coordinate file
   ISAV f  Write airfoil to ISES coordinate file
   MSAV f  Write airfoil to MSES coordinate file
   REVE    Reverse written-airfoil node ordering

   LOAD f  Read buffer airfoil from coordinate file
   NACA i  Set NACA 4,5-digit airfoil and buffer airfoil
   INTE    Set buffer airfoil by interpolating two airfoils
   NORM    Buffer airfoil normalization toggle
   XYCM rr Change CM reference location, currently  0.25000 0.00000

   BEND    Display structural properties of current airfoil

   PCOP    Set current-airfoil panel nodes directly from buffer airfoil points
   PANE    Set current-airfoil panel nodes ( 160 ) based on curvature
  .PPAR    Show/change paneling

  .PLOP    Plotting options

   WDEF f  Write  current-settings file
   RDEF f  Reread current-settings file
   NAME s  Specify new airfoil name
   NINC    Increment name version number

   Z       Zoom    | (available in all menus)
   U       Unzoom  | 

 XFOIL   c>  
 Labeled airfoil file.  Name:  RG 14 9% AIRFOIL                                

 Number of input coordinate points:  59
 Counterclockwise ordering
 Max thickness =     0.090001  at x =   0.310
 Max camber    =     0.015235  at x =   0.360

  LE  x,y  =  -0.00007   0.00093  |   Chord =   1.00008
  TE  x,y  =   1.00000   0.00000  |

 Current airfoil nodes set from buffer airfoil nodes (  59 )

 WARNING: Poor input coordinate distribution
          Excessive panel angle   61.4  at i =  30
          Repaneling with PANE and/or PPAR suggested
           (doing GDES,CADD before repaneling _may_
            improve excessively coarse LE spacing

 XFOIL   c>  
 XFOIL   c>  
 Sharp trailing edge

 Paneling parameters used...
   Number of panel nodes       160
   Panel bunching parameter    1.000
   TE/LE panel density ratio   0.150
   Refined-area/LE panel density ratio    0.200
   Top    side refined area x/c limits  1.000 1.000
   Bottom side refined area x/c limits  1.000 1.000

 XFOIL   c>  
.OPERi   c>  
 Xtr/c     =  1.0000    top    side
 Xtr/c     =  1.0000    bottom side
 Ncrit     =    9.00   ( 0.070 % turb. level )
 Vacc      =  0.0100

 Klag  =  5.6000     Uxwt  =    1.00
 A     =  6.7000     B     =  0.7500       KCt = 0.01485
 CtiniK=  1.8000     CtiniX=  3.3000

..VPAR   c>  
..VPAR   c>  
.OPERi   c>  
 M  =    0.0000
 Re =    300000

.OPERv   c>  
.OPERv   c>  
.OPERv   c>  
 Polar  1 newly created for accumulation
 Airfoil archived with polar: RG 14 9% AIRFOIL                                

Enter  polar save filename  OR  <return> for no file   s>  
 New polar save file available

Enter  polar dump filename  OR  <return> for no file   s>  
 Polar dump file will NOT be written

 Polar accumulation enabled

.OPERva   c>   Calculating unit vorticity distributions ...
 Calculating wake trajectory ...
 Calculating source influence matrix ...

 Solving BL system ...

 Initializing BL ...
    side            1  ...
 MRCHUE: Inverse mode at  65     Hk =   3.880
 MRCHUE: Inverse mode at  66     Hk =   4.238
 MRCHUE: Inverse mode at  67     Hk =   4.592
 MRCHUE: Inverse mode at  68     Hk =   4.941
 MRCHUE: Inverse mode at  69     Hk =   5.287
 MRCHUE: Inverse mode at  70     Hk =   5.628
 MRCHUE: Inverse mode at  71     Hk =   5.963
 MRCHUE: Inverse mode at  72     Hk =   6.289
 MRCHUE: Inverse mode at  73     Hk =   6.605
 MRCHUE: Inverse mode at  74     Hk =   6.908
 MRCHUE: Inverse mode at  75     Hk =   7.165
 MRCHUE: Inverse mode at  76     Hk =   7.298
    side            2  ...
 MRCHUE: Inverse mode at  14     Hk =   3.800
 MRCHUE: Inverse mode at  15     Hk =   4.957
 MRCHUE: Inverse mode at  16     Hk =   6.160
 MRCHUE: Inverse mode at  17     Hk =   7.489
 MRCHUE: Inverse mode at  18     Hk =   8.963
 MRCHUE: Inverse mode at  19     Hk =   9.552
 MRCHUE: Inverse mode at  20     Hk =   2.545

 Side 1 forced transition at x/c =  1.0000   76
 Side 2  free  transition at x/c =  0.0504   19

   1   rms: 0.2925E+00   max: 0.1711E+01   T at   19  2   RLX: 0.317
       a = -4.000      CL = -0.3341
      Cm = -0.0326     CD =  0.01139   =>   CDf =  0.00708    CDp =  0.00431

 Side 1 forced transition at x/c =  1.0000   76
 Side 2  free  transition at x/c =  0.0458   19

   2   rms: 0.1339E+00   max: -.5630E+00   D at   86  2   RLX: 0.888
       a = -4.000      CL = -0.4259
      Cm = -0.0068     CD =  0.01317   =>   CDf =  0.00704    CDp =  0.00613

 Side 1  free  transition at x/c =  0.9802   74
 Side 2  free  transition at x/c =  0.0417   19

   3   rms: 0.1043E+00   max: -.5287E+00   T at   74  1   RLX: 0.946
       a = -4.000      CL = -0.3547
      Cm = -0.0211     CD =  0.01360   =>   CDf =  0.00712    CDp =  0.00648

 Side 1  free  transition at x/c =  0.9972   76
 Side 2  free  transition at x/c =  0.0450   19

   4   rms: 0.4285E-01   max: 0.3568E+00   D at   76  1
       a = -4.000      CL = -0.3575
      Cm = -0.0203     CD =  0.01332   =>   CDf =  0.00706    CDp =  0.00626

 Side 1  free  transition at x/c =  0.9930   75
 Side 2  free  transition at x/c =  0.0451   19

   5   rms: 0.4239E-02   max: -.4336E-01   D at   75  1
       a = -4.000      CL = -0.3591
      Cm = -0.0199     CD =  0.01343   =>   CDf =  0.00707    CDp =  0.00636

 Side 1  free  transition at x/c =  0.9926   75
 Side 2  free  transition at x/c =  0.0450   19

   6   rms: 0.4455E-04   max: 0.5780E-03   D at   75  1
       a = -4.000      CL = -0.3591
      Cm = -0.0199     CD =  0.01343   =>   CDf =  0.00707    CDp =  0.00636
 plradd ia,ip,cpol            1           0  1.42944988E-03

 Point added to stored polar  1
 Point written to save file  rg149_Re300k.base.pol                           
 Dump file unspecified or not available
 Calculating wake trajectory ...
 Calculating source influence matrix ...

 Solving BL system ...

 Side 1  free  transition at x/c =  0.9926   75
 Side 2  free  transition at x/c =  0.0450   19

   1   rms: 0.1171E+00   max: -.5398E+00   T at   19  2   RLX: 0.926
       a = -3.500      CL = -0.2927
      Cm = -0.0232     CD =  0.01230   =>   CDf =  0.00716    CDp =  0.00514

 Side 1  free  transition at x/c =  0.9830   75
 Side 2  free  transition at x/c =  0.0538   19

   2   rms: 0.4521E-01   max: -.3988E+00   D at    2  1
       a = -3.500      CL = -0.2782
      Cm = -0.0254     CD =  0.01214   =>   CDf =  0.00715    CDp =  0.00499

 Side 1  free  transition at x/c =  0.9880   76
 Side 2  free  transition at x/c =  0.0585   19

   3   rms: 0.1991E-01   max: 0.1994E+00   D at   77  1
       a = -3.500      CL = -0.2838
      Cm = -0.0242     CD =  0.01216   =>   CDf =  0.00712    CDp =  0.00504

 Side 1  free  transition at x/c =  0.9841   76
 Side 2  free  transition at x/c =  0.0572   19

   4   rms: 0.1621E-02   max: -.1970E-01   D at   76  1
       a = -3.500      CL = -0.2836
      Cm = -0.0242     CD =  0.01221   =>   CDf =  0.00712    CDp =  0.00509

 Side 1  free  transition at x/c =  0.9843   76
 Side 2  free  transition at x/c =  0.0573   19

   5   rms: 0.5417E-05   max: 0.4293E-04   D at   87  2
       a = -3.500      CL = -0.2836
      Cm = -0.0242     CD =  0.01221   =>   CDf =  0.00712    CDp =  0.00509
 plradd ia,ip,cpol            2           0  2.74237851E-03

 Point added to stored polar  1
 Point written to save file  rg149_Re300k.base.pol                           
 Dump file unspecified or not available
 Calculating wake trajectory ...
 Calculating source influence matrix ...

 Solving BL system ...

 Side 1  free  transition at x/c =  0.9843   76
 Side 2  free  transition at x/c =  0.0573   19

   1   rms: 0.1463E+00   max: -.1205E+01   T at   19  2   RLX: 0.415
       a = -3.000      CL = -0.2503
      Cm = -0.0265     CD =  0.01181   =>   CDf =  0.00713    CDp =  0.00468

 Side 1  free  transition at x/c =  0.9818   75
 Side 2  free  transition at x/c =  0.0739   20

   2   rms: 0.1248E+00   max: -.1587E+01   T at   20  2   RLX: 0.315
       a = -3.000      CL = -0.2393
      Cm = -0.0263     CD =  0.01172   =>   CDf =  0.00708    CDp =  0.00464

 Side 1  free  transition at x/c =  0.9781   75
 Side 2  free  transition at x/c =  0.0960   22

   3   rms: 0.1461E+00   max: -.1906E+01   C at   22  2   RLX: 0.262
       a = -3.000      CL = -0.2337
      Cm = -0.0268     CD =  0.01121   =>   CDf =  0.00698    CDp =  0.00422

 Side 1  free  transition at x/c =  0.9769   75
 Side 2  free  transition at x/c =  0.1072   23

   4   rms: 0.1133E+00   max: -.1031E+01   C at   23  2   RLX: 0.485
       a = -3.000      CL = -0.2236
      Cm = -0.0272     CD =  0.01097   =>   CDf =  0.00693    CDp =  0.00404

 Side 1  free  transition at x/c =  0.9753   75
 Side 2  free  transition at x/c =  0.1282   24

   5   rms: 0.6674E-01   max: -.1185E+01   C at   24  2   RLX: 0.422
       a = -3.000      CL = -0.2184
      Cm = -0.0275     CD =  0.01103   =>   CDf =  0.00681    CDp =  0.00422

 Side 1  free  transition at x/c =  0.9748   75
 Side 2  free  transition at x/c =  0.1394   25

   6   rms: 0.5590E-01   max: -.9570E+00   C at   25  2   RLX: 0.522
       a = -3.000      CL = -0.2149
      Cm = -0.0278     CD =  0.01092   =>   CDf =  0.00676    CDp =  0.00416

 Side 1  free  transition at x/c =  0.9744   75
 Side 2  free  transition at x/c =  0.1511   26

   7   rms: 0.4492E-01   max: -.7570E+00   C at   26  2   RLX: 0.661
       a = -3.000      CL = -0.2130
      Cm = -0.0280     CD =  0.01082   =>   CDf =  0.00671    CDp =  0.00411

 Side 1  free  transition at x/c =  0.9742   75
 Side 2  free  transition at x/c =  0.1627   27

   8   rms: 0.3003E-01   max: -.4872E+00   C at   27  2
       a = -3.000      CL = -0.2125
      Cm = -0.0281     CD =  0.01073   =>   CDf =  0.00666    CDp =  0.00407

 Side 1  free  transition at x/c =  0.9741   75
 Side 2  free  transition at x/c =  0.1750   28

   9   rms: 0.1375E-01   max: -.2201E+00   C at   28  2
       a = -3.000      CL = -0.2124
      Cm = -0.0281     CD =  0.01076   =>   CDf =  0.00661    CDp =  0.00415

 Side 1  free  transition at x/c =  0.9741   75
 Side 2  free  transition at x/c =  0.1798   28

  10   rms: 0.1845E-02   max: 0.3546E-01   C at   28  2
       a = -3.000      CL = -0.2123
      Cm = -0.0281     CD =  0.01077   =>   CDf =  0.00654    CDp =  0.00423

 Side 1  free  transition at x/c =  0.9741   75
 Side 2  free  transition at x/c =  0.1790   28

  11   rms: 0.8181E-05   max: -.1254E-03   D at   30  2
       a = -3.000      CL = -0.2123
      Cm = -0.0281     CD =  0.01077   =>   CDf =  0.00655    CDp =  0.00422
 plradd ia,ip,cpol            3           0  4.59869625E-03

 Point added to stored polar  1
 Point written to save file  rg149_Re300k.base.pol                           
 Dump file unspecified or not available
 Calculating wake trajectory ...
 Calculating source influence matrix ...

 Solving BL system ...

 Side 1  free  transition at x/c =  0.9741   75
 Side 2  free  transition at x/c =  0.1790   28

   1   rms: 0.2916E+00   max: -.5129E+01   C at   28  2   RLX: 0.097
       a = -2.500      CL = -0.2050
      Cm = -0.0286     CD =  0.01064   =>   CDf =  0.00655    CDp =  0.00409

 Side 1  free  transition at x/c =  0.9732   75
 Side 2  free  transition at x/c =  0.1926   29

   2   rms: 0.2477E+00   max: -.4150E+01   C at   29  2   RLX: 0.120
       a = -2.500      CL = -0.1961
      Cm = -0.0292     CD =  0.01055   =>   CDf =  0.00650    CDp =  0.00404

 Side 1  free  transition at x/c =  0.9723   75
 Side 2  free  transition at x/c =  0.2061   30

   3   rms: 0.2173E+00   max: -.3497E+01   C at   30  2   RLX: 0.143
       a = -2.500      CL = -0.1866
      Cm = -0.0298     CD =  0.01045   =>   CDf =  0.00646    CDp =  0.00399

 Side 1  free  transition at x/c =  0.9715   75
 Side 2  free  transition at x/c =  0.2181   31

   4   rms: 0.1858E+00   max: -.2500E+01   C at   31  2   RLX: 0.200
       a = -2.500      CL = -0.1754
      Cm = -0.0306     CD =  0.01034   =>   CDf =  0.00646    CDp =  0.00388

 Side 1  free  transition at x/c =  0.9706   75
 Side 2  free  transition at x/c =  0.2327   32

   5   rms: 0.1648E+00   max: -.2261E+01   C at   32  2   RLX: 0.221
       a = -2.500      CL = -0.1654
      Cm = -0.0313     CD =  0.01025   =>   CDf =  0.00642    CDp =  0.00383

 Side 1  free  transition at x/c =  0.9700   74
 Side 2  free  transition at x/c =  0.2471   33

   6   rms: 0.1171E+00   max: -.1608E+01   C at   33  2   RLX: 0.311
       a = -2.500      CL = -0.1633
      Cm = -0.0303     CD =  0.01010   =>   CDf =  0.00645    CDp =  0.00365

 Side 1  free  transition at x/c =  0.9650   75
 Side 2  free  transition at x/c =  0.2620   33

   7   rms: 0.1621E+00   max: -.1996E+01   C at   33  2   RLX: 0.251
       a = -2.500      CL = -0.1575
      Cm = -0.0306     CD =  0.01014   =>   CDf =  0.00632    CDp =  0.00382

 Side 1  free  transition at x/c =  0.9645   75
 Side 2  free  transition at x/c =  0.2757   34

   8   rms: 0.1202E+00   max: -.1896E+01   C at   34  2   RLX: 0.264
       a = -2.500      CL = -0.1529
      Cm = -0.0310     CD =  0.01004   =>   CDf =  0.00626    CDp =  0.00378

 Side 1  free  transition at x/c =  0.9641   75
 Side 2  free  transition at x/c =  0.2901   35

   9   rms: 0.1119E+00   max: -.1826E+01   C at   35  2   RLX: 0.274
       a = -2.500      CL = -0.1494
      Cm = -0.0313     CD =  0.00995   =>   CDf =  0.00620    CDp =  0.00375

 Side 1  free  transition at x/c =  0.9639   75
 Side 2  free  transition at x/c =  0.3048   36

  10   rms: 0.1058E+00   max: -.1825E+01   C at   36  2   RLX: 0.274
       a = -2.500      CL = -0.1469
      Cm = -0.0315     CD =  0.00986   =>   CDf =  0.00612    CDp =  0.00374

 Side 1  free  transition at x/c =  0.9637   75
 Side 2  free  transition at x/c =  0.3190   36

  11   rms: 0.7195E-01   max: -.1365E+01   C at   36  2   RLX: 0.366
       a = -2.500      CL = -0.1444
      Cm = -0.0317     CD =  0.00982   =>   CDf =  0.00605    CDp =  0.00377

 Side 1  free  transition at x/c =  0.9635   75
 Side 2  free  transition at x/c =  0.3414   38

  12   rms: 0.8420E-01   max: -.1583E+01   C at   38  2   RLX: 0.316
       a = -2.500      CL = -0.1438
      Cm = -0.0318     CD =  0.00967   =>   CDf =  0.00593    CDp =  0.00375

 Side 1  free  transition at x/c =  0.9634   75
 Side 2  free  transition at x/c =  0.3529   39

  13   rms: 0.5758E-01   max: -.1073E+01   C at   39  2   RLX: 0.466
       a = -2.500      CL = -0.1428
      Cm = -0.0319     CD =  0.00961   =>   CDf =  0.00589    CDp =  0.00372

 Side 1  free  transition at x/c =  0.9633   75
 Side 2  free  transition at x/c =  0.3681   40

  14   rms: 0.3487E-01   max: -.6480E+00   C at   40  2   RLX: 0.772
       a = -2.500      CL = -0.1422
      Cm = -0.0319     CD =  0.00953   =>   CDf =  0.00582    CDp =  0.00371

 Side 1  free  transition at x/c =  0.9632   75
 Side 2  free  transition at x/c =  0.3861   41

  15   rms: 0.1044E-01   max: -.1934E+00   C at   41  2
       a = -2.500      CL = -0.1421
      Cm = -0.0319     CD =  0.00951   =>   CDf =  0.00575    CDp =  0.00376

 Side 1  free  transition at x/c =  0.9632   75
 Side 2  free  transition at x/c =  0.3937   42

  16   rms: 0.2692E-02   max: -.4870E-01   C at   42  2
       a = -2.500      CL = -0.1421
      Cm = -0.0319     CD =  0.00951   =>   CDf =  0.00573    CDp =  0.00378

 Side 1  free  transition at x/c =  0.9632   75
 Side 2  free  transition at x/c =  0.3945   42

  17   rms: 0.1673E-04   max: -.3042E-03   C at   42  2
       a = -2.500      CL = -0.1421
      Cm = -0.0319     CD =  0.00951   =>   CDf =  0.00572    CDp =  0.00379
 plradd ia,ip,cpol            4           0  7.14176241E-03

 Point added to stored polar  1
 Point written to save file  rg149_Re300k.base.pol                           
 Dump file unspecified or not available
 Calculating wake trajectory ...
 Calculating source influence matrix ...

 Solving BL system ...

 Side 1  free  transition at x/c =  0.9632   75
 Side 2  free  transition at x/c =  0.3945   42

   1   rms: 0.3992E+00   max: -.7040E+01   C at   42  2   RLX: 0.071
       a = -2.000      CL = -0.1374
      Cm = -0.0321     CD =  0.00939   =>   CDf =  0.00572    CDp =  0.00367

 Side 1  free  transition at x/c =  0.9623   75
 Side 2  free  transition at x/c =  0.4124   43

   2   rms: 0.3519E+00   max: -.6173E+01   C at   43  2   RLX: 0.081
       a = -2.000      CL = -0.1318
      Cm = -0.0325     CD =  0.00931   =>   CDf =  0.00565    CDp =  0.00366

 Side 1  free  transition at x/c =  0.9615   75
 Side 2  free  transition at x/c =  0.4346   44

   3   rms: 0.2577E+00   max: -.4355E+01   C at   44  2   RLX: 0.115
       a = -2.000      CL = -0.1243
      Cm = -0.0329     CD =  0.00921   =>   CDf =  0.00557    CDp =  0.00364

 Side 1  free  transition at x/c =  0.9605   75
 Side 2  free  transition at x/c =  0.4791   48

   4   rms: 0.3766E+00   max: -.6484E+01   C at   48  2   RLX: 0.077
       a = -2.000      CL = -0.1215
      Cm = -0.0329     CD =  0.00899   =>   CDf =  0.00541    CDp =  0.00358

 Side 1  free  transition at x/c =  0.9600   75
 Side 2  free  transition at x/c =  0.4956   49

   5   rms: 0.3419E+00   max: -.5896E+01   C at   49  2   RLX: 0.085
       a = -2.000      CL = -0.1171
      Cm = -0.0332     CD =  0.00890   =>   CDf =  0.00532    CDp =  0.00358

 Side 1  free  transition at x/c =  0.9595   75
 Side 2  free  transition at x/c =  0.5165   50

   6   rms: 0.2834E+00   max: -.4823E+01   C at   50  2   RLX: 0.104
       a = -2.000      CL = -0.1121
      Cm = -0.0335     CD =  0.00881   =>   CDf =  0.00524    CDp =  0.00357

 Side 1  free  transition at x/c =  0.9589   75
 Side 2  free  transition at x/c =  0.5480   52

   7   rms: 0.2811E+00   max: -.4755E+01   C at   52  2   RLX: 0.105
       a = -2.000      CL = -0.1083
      Cm = -0.0336     CD =  0.00866   =>   CDf =  0.00510    CDp =  0.00356

 Side 1  free  transition at x/c =  0.9584   75
 Side 2  free  transition at x/c =  0.5836   55

   8   rms: 0.3032E+00   max: -.5160E+01   C at   55  2   RLX: 0.097
       a = -2.000      CL = -0.1058
      Cm = -0.0334     CD =  0.00849   =>   CDf =  0.00494    CDp =  0.00355

 Side 1  free  transition at x/c =  0.9581   75
 Side 2  free  transition at x/c =  0.6066   56

   9   rms: 0.1856E+00   max: -.3040E+01   C at   56  2   RLX: 0.164
       a = -2.000      CL = -0.1001
      Cm = -0.0338     CD =  0.00840   =>   CDf =  0.00485    CDp =  0.00355

 Side 1  free  transition at x/c =  0.9575   75
 Side 2  free  transition at x/c =  0.6578   60

  10   rms: 0.2344E+00   max: -.3904E+01   C at   60  2   RLX: 0.128
       a = -2.000      CL = -0.0986
      Cm = -0.0332     CD =  0.00820   =>   CDf =  0.00463    CDp =  0.00358

 Side 1  free  transition at x/c =  0.9572   75
 Side 2  free  transition at x/c =  0.6769   61

  11   rms: 0.1692E+00   max: -.2749E+01   C at   61  2   RLX: 0.182
       a = -2.000      CL = -0.0944
      Cm = -0.0334     CD =  0.00814   =>   CDf =  0.00454    CDp =  0.00360

 Side 1  free  transition at x/c =  0.9568   75
 Side 2  free  transition at x/c =  0.7054   63

  12   rms: 0.9082E-01   max: -.1386E+01   C at   63  2   RLX: 0.361
       a = -2.000      CL = -0.0878
      Cm = -0.0335     CD =  0.00806   =>   CDf =  0.00442    CDp =  0.00364

 Side 1  free  transition at x/c =  0.9563   74
 Side 2  free  transition at x/c =  0.7572   67

  13   rms: 0.2859E-01   max: 0.3065E+00   T at   74  1
       a = -2.000      CL = -0.0993
      Cm = -0.0289     CD =  0.00799   =>   CDf =  0.00422    CDp =  0.00377

 Side 1  free  transition at x/c =  0.9421   73
 Side 2  free  transition at x/c =  0.7538   66

  14   rms: 0.2120E+00   max: -.1570E+01   C at   66  2   RLX: 0.318
       a = -2.000      CL = -0.0614
      Cm = -0.0361     CD =  0.00857   =>   CDf =  0.00425    CDp =  0.00432

 Side 1  free  transition at x/c =  0.9688   75
 Side 2  free  transition at x/c =  0.8207   71

  15   rms: 0.9951E-01   max: 0.6636E+00   D at   76  1
       a = -2.000      CL = -0.1031
      Cm = -0.0281     CD =  0.00791   =>   CDf =  0.00405    CDp =  0.00385

 Side 1  free  transition at x/c =  0.9413   73
 Side 2  free  transition at x/c =  0.7342   65

  16   rms: 0.1767E+00   max: -.1808E+01   C at   65  2   RLX: 0.277
       a = -2.000      CL = -0.0777
      Cm = -0.0334     CD =  0.00875   =>   CDf =  0.00433    CDp =  0.00442

 Side 1  free  transition at x/c =  0.9559   74
 Side 2  free  transition at x/c =  0.7884   69

  17   rms: 0.5551E-01   max: 0.5829E+00   C at   69  2
       a = -2.000      CL = -0.0956
      Cm = -0.0298     CD =  0.00801   =>   CDf =  0.00411    CDp =  0.00391

 Side 1  free  transition at x/c =  0.9436   74
 Side 2  free  transition at x/c =  0.7619   67

  18   rms: 0.3361E-01   max: -.1795E+00   D at   78  1
       a = -2.000      CL = -0.0859
      Cm = -0.0316     CD =  0.00794   =>   CDf =  0.00422    CDp =  0.00372

 Side 1  free  transition at x/c =  0.9490   74
 Side 2  free  transition at x/c =  0.7748   68

  19   rms: 0.9322E-02   max: -.6007E-01   D at   77  1
       a = -2.000      CL = -0.0829
      Cm = -0.0322     CD =  0.00798   =>   CDf =  0.00418    CDp =  0.00379

 Side 1  free  transition at x/c =  0.9513   74
 Side 2  free  transition at x/c =  0.7785   68

  20   rms: 0.5470E-03   max: -.3384E-02   D at   77  1
       a = -2.000      CL = -0.0826
      Cm = -0.0323     CD =  0.00798   =>   CDf =  0.00418    CDp =  0.00380

 Side 1  free  transition at x/c =  0.9515   74
 Side 2  free  transition at x/c =  0.7788   68

  21   rms: 0.3388E-05   max: -.2192E-04   T at   74  1
       a = -2.000      CL = -0.0826
      Cm = -0.0323     CD =  0.00798   =>   CDf =  0.00418    CDp =  0.00380
 plradd ia,ip,cpol            5           0  7.14176241E-03

 Point added to stored polar  1
 Point written to save file  rg149_Re300k.base.pol                           
 Dump file unspecified or not available
 Calculating wake trajectory ...
 Calculating source influence matrix ...

 Solving BL system ...

 Side 1  free  transition at x/c =  0.9515   74
 Side 2  free  transition at x/c =  0.7788   68

   1   rms: 0.1495E+00   max: -.1340E+01   C at   68  2   RLX: 0.373
       a = -1.500      CL = -0.0605
      Cm = -0.0320     CD =  0.00787   =>   CDf =  0.00424    CDp =  0.00363

 Side 1  free  transition at x/c =  0.9451   75
 Side 2  free  transition at x/c =  0.8302   71

   2   rms: 0.1034E+00   max: -.1053E+01   D at    2  1   RLX: 0.475
       a = -1.500      CL = -0.0381
      Cm = -0.0324     CD =  0.00789   =>   CDf =  0.00405    CDp =  0.00384

 Side 1  free  transition at x/c =  0.9436   75
 Side 2  free  transition at x/c =  0.8540   72

   3   rms: 0.4526E-01   max: 0.2500E+00   C at   72  2
       a = -1.500      CL = -0.0085
      Cm = -0.0349     CD =  0.00778   =>   CDf =  0.00408    CDp =  0.00370

 Side 1  free  transition at x/c =  0.9424   74
 Side 2  free  transition at x/c =  0.8801   74

   4   rms: 0.2965E-01   max: 0.3846E+00   C at   74  2
       a = -1.500      CL = -0.0166
      Cm = -0.0330     CD =  0.00772   =>   CDf =  0.00405    CDp =  0.00367

 Side 1  free  transition at x/c =  0.9392   74
 Side 2  free  transition at x/c =  0.8734   74

   5   rms: 0.6932E-02   max: -.5264E-01   D at   78  2
       a = -1.500      CL = -0.0121
      Cm = -0.0339     CD =  0.00777   =>   CDf =  0.00408    CDp =  0.00370

 Side 1  free  transition at x/c =  0.9411   74
 Side 2  free  transition at x/c =  0.8721   74

   6   rms: 0.1563E-02   max: -.9889E-02   D at   78  1
       a = -1.500      CL = -0.0111
      Cm = -0.0341     CD =  0.00777   =>   CDf =  0.00409    CDp =  0.00368

 Side 1  free  transition at x/c =  0.9417   74
 Side 2  free  transition at x/c =  0.8722   74

   7   rms: 0.1862E-03   max: -.1195E-02   T at   74  1
       a = -1.500      CL = -0.0110
      Cm = -0.0341     CD =  0.00777   =>   CDf =  0.00409    CDp =  0.00368

 Side 1  free  transition at x/c =  0.9418   74
 Side 2  free  transition at x/c =  0.8722   74

   8   rms: 0.6189E-05   max: -.4822E-04   T at   74  1
       a = -1.500      CL = -0.0110
      Cm = -0.0341     CD =  0.00777   =>   CDf =  0.00409    CDp =  0.00368
 plradd ia,ip,cpol            6           0  7.14176241E-03

 Point added to stored polar  1
 Point written to save file  rg149_Re300k.base.pol                           
 Dump file unspecified or not available
 Calculating wake trajectory ...
 Calculating source influence matrix ...

 Solving BL system ...

 Side 1  free  transition at x/c =  0.9418   74
 Side 2  free  transition at x/c =  0.8722   74

   1   rms: 0.9927E-01   max: 0.7457E+00   T at   74  1   RLX: 0.797
       a = -1.000      CL = -0.0038
      Cm = -0.0249     CD =  0.00771   =>   CDf =  0.00409    CDp =  0.00362

 Side 1  free  transition at x/c =  0.9072   72
 Side 2  free  transition at x/c =  0.8990   75

   2   rms: 0.1416E+00   max: 0.6670E+00   C at   75  2   RLX: 0.754
       a = -1.000      CL =  0.0593
      Cm = -0.0362     CD =  0.00798   =>   CDf =  0.00416    CDp =  0.00382

 MRCHDU: Convergence failed at  77  side 1    Res =  0.1501E+01
 MRCHDU: Convergence failed at  78  side 1    Res =  0.3077E+01
 MRCHDU: Convergence failed at  79  side 1    Res =  0.2977E+01
 MRCHDU: Convergence failed at  80  side 1    Res =  0.2557E+01
 MRCHDU: Convergence failed at  77  side 2    Res =  0.3844E+01
 MRCHDU: Convergence failed at  78  side 2    Res =  0.1824E+01
 MRCHDU: Convergence failed at  79  side 2    Res =  0.2932E+01
 MRCHDU: Convergence failed at  80  side 2    Res =  0.4898E+01
 MRCHDU: Convergence failed at  81  side 2    Res =  0.7050E+01
 MRCHDU: Convergence failed at  82  side 2    Res =  0.6504E+01
 Side 1  free  transition at x/c =  0.9399   75
 Side 2  free  transition at x/c =  0.9256   76

   3   rms: 0.2050E+00   max: 0.1146E+01   D at   84  2
       a = -1.000      CL =  0.0689
      Cm = -0.0375     CD =  0.00703   =>   CDf =  0.00408    CDp =  0.00295

 Side 1  free  transition at x/c =  0.9292   75
 Side 2  free  transition at x/c =  0.9156   76

   4   rms: 0.4840E-01   max: -.3289E+00   D at   86  2
       a = -1.000      CL =  0.0518
      Cm = -0.0338     CD =  0.00754   =>   CDf =  0.00413    CDp =  0.00341

 Side 1  free  transition at x/c =  0.9283   74
 Side 2  free  transition at x/c =  0.9227   76

   5   rms: 0.7445E-02   max: -.7133E-01   D at   85  2
       a = -1.000      CL =  0.0507
      Cm = -0.0336     CD =  0.00765   =>   CDf =  0.00412    CDp =  0.00353

 Side 1  free  transition at x/c =  0.9257   74
 Side 2  free  transition at x/c =  0.9219   76

   6   rms: 0.1596E-02   max: -.8992E-02   D at   76  1
       a = -1.000      CL =  0.0515
      Cm = -0.0338     CD =  0.00764   =>   CDf =  0.00411    CDp =  0.00353

 Side 1  free  transition at x/c =  0.9262   74
 Side 2  free  transition at x/c =  0.9219   76

   7   rms: 0.6887E-04   max: -.3755E-03   D at   76  1
       a = -1.000      CL =  0.0515
      Cm = -0.0338     CD =  0.00764   =>   CDf =  0.00411    CDp =  0.00353
 plradd ia,ip,cpol            7           0  1.06446045E-02

 Point added to stored polar  1
 Point written to save file  rg149_Re300k.base.pol                           
 Dump file unspecified or not available
 Calculating wake trajectory ...
 Calculating source influence matrix ...

 Solving BL system ...

 Side 1  free  transition at x/c =  0.9263   74
 Side 2  free  transition at x/c =  0.9219   76

   1   rms: 0.8849E-01   max: -.4389E+00   T at   76  2
       a = -0.500      CL =  0.0912
      Cm = -0.0289     CD =  0.00757   =>   CDf =  0.00411    CDp =  0.00346

 Side 1  free  transition at x/c =  0.8934   72
 Side 2  free  transition at x/c =  0.9518   78

   2   rms: 0.5511E-01   max: -.3735E+00   D at   73  1
       a = -0.500      CL =  0.1373
      Cm = -0.0386     CD =  0.00750   =>   CDf =  0.00428    CDp =  0.00322

 Side 1  free  transition at x/c =  0.9193   75
 Side 2  free  transition at x/c =  0.9496   77

   3   rms: 0.3339E-01   max: 0.2336E+00   C at   75  1
       a = -0.500      CL =  0.1338
      Cm = -0.0379     CD =  0.00750   =>   CDf =  0.00420    CDp =  0.00330

 Side 1  free  transition at x/c =  0.9134   74
 Side 2  free  transition at x/c =  0.9491   77
 idif Ue xi dudx           1  0.25727642      1.56533718E-03   164.35846    
 Uenew xinew           2  1.42245581E-02  8.65459442E-05

   4   rms: 0.1408E-01   max: 0.7155E-01   T at   74  1
       a = -0.500      CL =  0.1223
      Cm = -0.0355     CD =  0.00760   =>   CDf =  0.00419    CDp =  0.00341

 Side 1  free  transition at x/c =  0.9062   73
 Side 2  free  transition at x/c =  0.9509   78

   5   rms: 0.6026E-02   max: -.5418E-01   D at    2  2
       a = -0.500      CL =  0.1247
      Cm = -0.0360     CD =  0.00758   =>   CDf =  0.00420    CDp =  0.00338

 Side 1  free  transition at x/c =  0.9081   73
 Side 2  free  transition at x/c =  0.9505   78

   6   rms: 0.1344E-02   max: -.1413E-01   D at    4  2
       a = -0.500      CL =  0.1245
      Cm = -0.0360     CD =  0.00758   =>   CDf =  0.00419    CDp =  0.00339

 Side 1  free  transition at x/c =  0.9080   73
 Side 2  free  transition at x/c =  0.9505   78

   7   rms: 0.5856E-05   max: -.6137E-04   D at    7  2
       a = -0.500      CL =  0.1245
      Cm = -0.0360     CD =  0.00758   =>   CDf =  0.00419    CDp =  0.00339
 plradd ia,ip,cpol            8           0  0.19656193    

 Point added to stored polar  1
 Point written to save file  rg149_Re300k.base.pol                           
 Dump file unspecified or not available
 Calculating wake trajectory ...
 Calculating source influence matrix ...

 Solving BL system ...

 Side 1  free  transition at x/c =  0.9080   73
 Side 2  free  transition at x/c =  0.9505   78

   1   rms: 0.1069E+00   max: -.3340E+00   T at   78  2
       a =  0.000      CL =  0.1996
      Cm = -0.0388     CD =  0.00755   =>   CDf =  0.00424    CDp =  0.00330

 Side 1  free  transition at x/c =  0.8834   72
 Side 2  free  transition at x/c =  0.9697   78

   2   rms: 0.2416E-01   max: -.2318E+00   D at   73  1
       a =  0.000      CL =  0.2184
      Cm = -0.0429     CD =  0.00754   =>   CDf =  0.00433    CDp =  0.00321

 Side 1  free  transition at x/c =  0.8902   73
 Side 2  free  transition at x/c =  0.9670   78

   3   rms: 0.7372E-02   max: 0.6373E-01   C at   73  1
       a =  0.000      CL =  0.2159
      Cm = -0.0425     CD =  0.00756   =>   CDf =  0.00430    CDp =  0.00326

 Side 1  free  transition at x/c =  0.8875   73
 Side 2  free  transition at x/c =  0.9678   78

   4   rms: 0.1343E-02   max: -.1149E-01   D at   81  1
       a =  0.000      CL =  0.2149
      Cm = -0.0423     CD =  0.00756   =>   CDf =  0.00431    CDp =  0.00325

 Side 1  free  transition at x/c =  0.8871   73
 Side 2  free  transition at x/c =  0.9680   78

   5   rms: 0.2800E-04   max: -.1509E-03   D at   81  2
       a =  0.000      CL =  0.2149
      Cm = -0.0423     CD =  0.00756   =>   CDf =  0.00432    CDp =  0.00325
 plradd ia,ip,cpol            9           0  9.99919847E-02

 Point added to stored polar  1
 Point written to save file  rg149_Re300k.base.pol                           
 Dump file unspecified or not available
 Calculating wake trajectory ...
 Calculating source influence matrix ...

 Solving BL system ...

 Side 1  free  transition at x/c =  0.8871   73
 Side 2  free  transition at x/c =  0.9680   78

   1   rms: 0.1131E+00   max: 0.2949E+00   C at   78  2
       a =  0.500      CL =  0.3001
      Cm = -0.0476     CD =  0.00746   =>   CDf =  0.00435    CDp =  0.00312

 Side 1  free  transition at x/c =  0.8528   71
 Side 2  free  transition at x/c =  0.9833   79

   2   rms: 0.2377E-01   max: -.2303E+00   D at   72  1
       a =  0.500      CL =  0.3021
      Cm = -0.0482     CD =  0.00753   =>   CDf =  0.00446    CDp =  0.00307

 Side 1  free  transition at x/c =  0.8524   71
 Side 2  free  transition at x/c =  0.9819   78

   3   rms: 0.7162E-02   max: 0.5210E-01   D at   80  2
       a =  0.500      CL =  0.3077
      Cm = -0.0493     CD =  0.00751   =>   CDf =  0.00446    CDp =  0.00305

 Side 1  free  transition at x/c =  0.8523   71
 Side 2  free  transition at x/c =  0.9801   78

   4   rms: 0.7367E-03   max: -.5919E-02   D at   80  2
       a =  0.500      CL =  0.3072
      Cm = -0.0492     CD =  0.00752   =>   CDf =  0.00446    CDp =  0.00305

 Side 1  free  transition at x/c =  0.8522   71
 Side 2  free  transition at x/c =  0.9803   78

   5   rms: 0.4843E-05   max: -.3879E-04   T at   78  2
       a =  0.500      CL =  0.3072
      Cm = -0.0492     CD =  0.00752   =>   CDf =  0.00446    CDp =  0.00305
 plradd ia,ip,cpol           10           0  9.99919847E-02

 Point added to stored polar  1
 Point written to save file  rg149_Re300k.base.pol                           
 Dump file unspecified or not available
 Calculating wake trajectory ...
 Calculating source influence matrix ...

 Solving BL system ...

 Side 1  free  transition at x/c =  0.8522   71
 Side 2  free  transition at x/c =  0.9803   78

   1   rms: 0.1084E+00   max: -.3930E+00   T at   78  2
       a =  1.000      CL =  0.3839
      Cm = -0.0531     CD =  0.00755   =>   CDf =  0.00447    CDp =  0.00308

 Side 1  free  transition at x/c =  0.8054   69
 Side 2  free  transition at x/c =  0.9931   78

   2   rms: 0.1954E-01   max: -.2773E+00   D at   70  1
       a =  1.000      CL =  0.3907
      Cm = -0.0548     CD =  0.00753   =>   CDf =  0.00468    CDp =  0.00285

 Side 1  free  transition at x/c =  0.8090   69
 Side 2  free  transition at x/c =  0.9923   78

   3   rms: 0.2619E-02   max: 0.3034E-01   C at   69  1
       a =  1.000      CL =  0.3911
      Cm = -0.0548     CD =  0.00749   =>   CDf =  0.00463    CDp =  0.00287

 Side 1  free  transition at x/c =  0.8080   69
 Side 2  free  transition at x/c =  0.9923   78

   4   rms: 0.1734E-04   max: -.1322E-03   D at   69  1
       a =  1.000      CL =  0.3911
      Cm = -0.0548     CD =  0.00750   =>   CDf =  0.00464    CDp =  0.00286
 plradd ia,ip,cpol           11           0  6.17159121E-02

 Point added to stored polar  1
 Point written to save file  rg149_Re300k.base.pol                           
 Dump file unspecified or not available
 Calculating wake trajectory ...
 Calculating source influence matrix ...

 Solving BL system ...

 Side 1  free  transition at x/c =  0.8079   69
 Side 2  free  transition at x/c =  0.9923   78

   1   rms: 0.1069E+00   max: -.3521E+00   T at   78  2
       a =  1.500      CL =  0.4683
      Cm = -0.0592     CD =  0.00752   =>   CDf =  0.00462    CDp =  0.00290

 Side 1  free  transition at x/c =  0.7483   66
 Side 2 forced transition at x/c =  1.0000   78

   2   rms: 0.2858E-01   max: 0.3312E+00   D at   69  1
       a =  1.500      CL =  0.4598
      Cm = -0.0575     CD =  0.00751   =>   CDf =  0.00493    CDp =  0.00258

 Side 1  free  transition at x/c =  0.7586   67
 Side 2 forced transition at x/c =  1.0000   78

   3   rms: 0.4834E-02   max: -.7829E-01   D at   69  1
       a =  1.500      CL =  0.4601
      Cm = -0.0576     CD =  0.00751   =>   CDf =  0.00483    CDp =  0.00269

 Side 1  free  transition at x/c =  0.7561   67
 Side 2 forced transition at x/c =  1.0000   78

   4   rms: 0.4634E-03   max: -.7605E-02   D at   69  1
       a =  1.500      CL =  0.4601
      Cm = -0.0576     CD =  0.00751   =>   CDf =  0.00484    CDp =  0.00267

 Side 1  free  transition at x/c =  0.7559   67
 Side 2 forced transition at x/c =  1.0000   78

   5   rms: 0.4637E-05   max: -.6421E-04   D at   69  1
       a =  1.500      CL =  0.4601
      Cm = -0.0576     CD =  0.00751   =>   CDf =  0.00484    CDp =  0.00267
 plradd ia,ip,cpol           12           0  3.89213599E-02

 Point added to stored polar  1
 Point written to save file  rg149_Re300k.base.pol                           
 Dump file unspecified or not available
 Calculating wake trajectory ...
 Calculating source influence matrix ...

 Solving BL system ...

 Side 1  free  transition at x/c =  0.7559   67
 Side 2 forced transition at x/c =  1.0000   78

   1   rms: 0.9852E-01   max: 0.8253E+00   C at   67  1
       a =  2.000      CL =  0.5026
      Cm = -0.0547     CD =  0.00773   =>   CDf =  0.00485    CDp =  0.00289

 Side 1  free  transition at x/c =  0.7030   63
 Side 2 forced transition at x/c =  1.0000   78

   2   rms: 0.2598E-01   max: 0.3148E+00   D at   66  1
       a =  2.000      CL =  0.5004
      Cm = -0.0544     CD =  0.00763   =>   CDf =  0.00506    CDp =  0.00258

 Side 1  free  transition at x/c =  0.7045   63
 Side 2 forced transition at x/c =  1.0000   78

   3   rms: 0.4330E-02   max: -.6802E-01   D at   66  1
       a =  2.000      CL =  0.5006
      Cm = -0.0545     CD =  0.00765   =>   CDf =  0.00501    CDp =  0.00263

 Side 1  free  transition at x/c =  0.7025   63
 Side 2 forced transition at x/c =  1.0000   78

   4   rms: 0.1787E-03   max: -.3955E-02   D at   66  1
       a =  2.000      CL =  0.5006
      Cm = -0.0545     CD =  0.00765   =>   CDf =  0.00504    CDp =  0.00261

 Side 1  free  transition at x/c =  0.7025   63
 Side 2 forced transition at x/c =  1.0000   78

   5   rms: 0.1041E-05   max: -.1120E-04   C at   63  1
       a =  2.000      CL =  0.5006
      Cm = -0.0545     CD =  0.00765   =>   CDf =  0.00504    CDp =  0.00261
 plradd ia,ip,cpol           13           0  3.89213599E-02

 Point added to stored polar  1
 Point written to save file  rg149_Re300k.base.pol                           
 Dump file unspecified or not available
 Calculating wake trajectory ...
 Calculating source influence matrix ...

 Solving BL system ...

 Side 1  free  transition at x/c =  0.7025   63
 Side 2 forced transition at x/c =  1.0000   78

   1   rms: 0.9278E-01   max: 0.7636E+00   C at   63  1
       a =  2.500      CL =  0.5411
      Cm = -0.0513     CD =  0.00788   =>   CDf =  0.00497    CDp =  0.00291

 Side 1  free  transition at x/c =  0.6463   60
 Side 2 forced transition at x/c =  1.0000   77

   2   rms: 0.2501E-01   max: 0.3079E+00   D at   63  1
       a =  2.500      CL =  0.5404
      Cm = -0.0512     CD =  0.00785   =>   CDf =  0.00528    CDp =  0.00256

 Side 1  free  transition at x/c =  0.6520   60
 Side 2 forced transition at x/c =  1.0000   77

   3   rms: 0.4885E-02   max: -.7504E-01   D at   63  1
       a =  2.500      CL =  0.5406
      Cm = -0.0513     CD =  0.00785   =>   CDf =  0.00519    CDp =  0.00266

 Side 1  free  transition at x/c =  0.6494   60
 Side 2 forced transition at x/c =  1.0000   77

   4   rms: 0.2097E-03   max: -.4254E-02   D at   63  1
       a =  2.500      CL =  0.5406
      Cm = -0.0513     CD =  0.00786   =>   CDf =  0.00522    CDp =  0.00264

 Side 1  free  transition at x/c =  0.6494   60
 Side 2 forced transition at x/c =  1.0000   77

   5   rms: 0.1269E-05   max: -.9254E-05   D at   63  1
       a =  2.500      CL =  0.5406
      Cm = -0.0513     CD =  0.00786   =>   CDf =  0.00521    CDp =  0.00264
 plradd ia,ip,cpol           14           0  2.91872323E-02

 Point added to stored polar  1
 Point written to save file  rg149_Re300k.base.pol                           
 Dump file unspecified or not available
 Calculating wake trajectory ...
 Calculating source influence matrix ...

 Solving BL system ...

 Side 1  free  transition at x/c =  0.6494   60
 Side 2 forced transition at x/c =  1.0000   77

   1   rms: 0.9207E-01   max: 0.7080E+00   C at   60  1
       a =  3.000      CL =  0.5795
      Cm = -0.0479     CD =  0.00811   =>   CDf =  0.00522    CDp =  0.00289

 Side 1  free  transition at x/c =  0.5799   55
 Side 2 forced transition at x/c =  1.0000   77

   2   rms: 0.2648E-01   max: 0.2554E+00   D at   59  1
       a =  3.000      CL =  0.5777
      Cm = -0.0475     CD =  0.00818   =>   CDf =  0.00557    CDp =  0.00261

 Side 1  free  transition at x/c =  0.5923   56
 Side 2 forced transition at x/c =  1.0000   77

   3   rms: 0.9448E-02   max: 0.1422E+00   C at   56  1
       a =  3.000      CL =  0.5784
      Cm = -0.0477     CD =  0.00817   =>   CDf =  0.00540    CDp =  0.00277

 Side 1  free  transition at x/c =  0.5883   56
 Side 2 forced transition at x/c =  1.0000   77

   4   rms: 0.7693E-03   max: -.1277E-01   D at   59  1
       a =  3.000      CL =  0.5784
      Cm = -0.0477     CD =  0.00818   =>   CDf =  0.00544    CDp =  0.00274

 Side 1  free  transition at x/c =  0.5879   56
 Side 2 forced transition at x/c =  1.0000   77

   5   rms: 0.5073E-05   max: -.9901E-04   D at   59  1
       a =  3.000      CL =  0.5784
      Cm = -0.0477     CD =  0.00818   =>   CDf =  0.00544    CDp =  0.00273
 plradd ia,ip,cpol           15           0  2.16822252E-02

 Point added to stored polar  1
 Point written to save file  rg149_Re300k.base.pol                           
 Dump file unspecified or not available
 Calculating wake trajectory ...
 Calculating source influence matrix ...

 Solving BL system ...

 Side 1  free  transition at x/c =  0.5879   56
 Side 2 forced transition at x/c =  1.0000   77

   1   rms: 0.1011E+00   max: 0.9831E+00   C at   56  1
       a =  3.500      CL =  0.6154
      Cm = -0.0440     CD =  0.00860   =>   CDf =  0.00533    CDp =  0.00327

 Side 1  free  transition at x/c =  0.5222   52
 Side 2 forced transition at x/c =  1.0000   76

   2   rms: 0.2671E-01   max: 0.2500E+00   D at   56  1
       a =  3.500      CL =  0.6153
      Cm = -0.0439     CD =  0.00856   =>   CDf =  0.00573    CDp =  0.00283

 Side 1  free  transition at x/c =  0.5292   53
 Side 2 forced transition at x/c =  1.0000   76

   3   rms: 0.4511E-02   max: -.5978E-01   D at   56  1
       a =  3.500      CL =  0.6157
      Cm = -0.0440     CD =  0.00858   =>   CDf =  0.00564    CDp =  0.00294

 Side 1  free  transition at x/c =  0.5268   53
 Side 2 forced transition at x/c =  1.0000   76

   4   rms: 0.2489E-03   max: -.3888E-02   D at   56  1
       a =  3.500      CL =  0.6157
      Cm = -0.0440     CD =  0.00858   =>   CDf =  0.00565    CDp =  0.00293

 Side 1  free  transition at x/c =  0.5267   53
 Side 2 forced transition at x/c =  1.0000   76

   5   rms: 0.1037E-05   max: -.1342E-04   D at   56  1
       a =  3.500      CL =  0.6157
      Cm = -0.0440     CD =  0.00858   =>   CDf =  0.00565    CDp =  0.00293
 plradd ia,ip,cpol           16           0  1.12270983E-02

 Point added to stored polar  1
 Point written to save file  rg149_Re300k.base.pol                           
 Dump file unspecified or not available
 Calculating wake trajectory ...
 Calculating source influence matrix ...

 Solving BL system ...

 Side 1  free  transition at x/c =  0.5267   53
 Side 2 forced transition at x/c =  1.0000   76

   1   rms: 0.1089E+00   max: 0.1153E+01   C at   53  1   RLX: 0.895
       a =  4.000      CL =  0.6476
      Cm = -0.0405     CD =  0.00913   =>   CDf =  0.00566    CDp =  0.00347

 Side 1  free  transition at x/c =  0.4696   49
 Side 2 forced transition at x/c =  1.0000   76

   2   rms: 0.2398E-01   max: 0.2321E+00   D at   52  1
       a =  4.000      CL =  0.6541
      Cm = -0.0406     CD =  0.00904   =>   CDf =  0.00589    CDp =  0.00315

 Side 1  free  transition at x/c =  0.4659   48
 Side 2 forced transition at x/c =  1.0000   76

   3   rms: 0.1549E-02   max: -.2057E-01   D at   52  1
       a =  4.000      CL =  0.6541
      Cm = -0.0406     CD =  0.00906   =>   CDf =  0.00585    CDp =  0.00321

 Side 1  free  transition at x/c =  0.4649   48
 Side 2 forced transition at x/c =  1.0000   76

   4   rms: 0.2718E-04   max: -.3848E-03   C at   48  1
       a =  4.000      CL =  0.6541
      Cm = -0.0406     CD =  0.00906   =>   CDf =  0.00586    CDp =  0.00321
 plradd ia,ip,cpol           17           0  1.12270983E-02

 Point added to stored polar  1
 Point written to save file  rg149_Re300k.base.pol                           
 Dump file unspecified or not available
 Calculating wake trajectory ...
 Calculating source influence matrix ...

 Solving BL system ...

 Side 1  free  transition at x/c =  0.4649   48
 Side 2 forced transition at x/c =  1.0000   76

   1   rms: 0.9352E-01   max: 0.8133E+00   C at   48  1
       a =  4.500      CL =  0.6957
      Cm = -0.0379     CD =  0.00948   =>   CDf =  0.00570    CDp =  0.00379

 Side 1  free  transition at x/c =  0.3860   44
 Side 2 forced transition at x/c =  1.0000   75

   2   rms: 0.3026E-01   max: -.3055E+00   D at   45  1
       a =  4.500      CL =  0.6934
      Cm = -0.0375     CD =  0.00965   =>   CDf =  0.00620    CDp =  0.00345

 Side 1  free  transition at x/c =  0.3966   45
 Side 2 forced transition at x/c =  1.0000   75

   3   rms: 0.3601E-02   max: -.4405E-01   D at   47  1
       a =  4.500      CL =  0.6934
      Cm = -0.0375     CD =  0.00969   =>   CDf =  0.00609    CDp =  0.00360

 Side 1  free  transition at x/c =  0.3945   44
 Side 2 forced transition at x/c =  1.0000   75

   4   rms: 0.3984E-03   max: -.4994E-02   D at   47  1
       a =  4.500      CL =  0.6935
      Cm = -0.0375     CD =  0.00969   =>   CDf =  0.00610    CDp =  0.00359

 Side 1  free  transition at x/c =  0.3942   44
 Side 2 forced transition at x/c =  1.0000   75

   5   rms: 0.2916E-05   max: -.4894E-04   C at   44  1
       a =  4.500      CL =  0.6935
      Cm = -0.0375     CD =  0.00969   =>   CDf =  0.00610    CDp =  0.00359
 plradd ia,ip,cpol           18           0  1.12270983E-02

 Point added to stored polar  1
 Point written to save file  rg149_Re300k.base.pol                           
 Dump file unspecified or not available
 Calculating wake trajectory ...
 Calculating source influence matrix ...

 Solving BL system ...

 Side 1  free  transition at x/c =  0.3942   44
 Side 2 forced transition at x/c =  1.0000   75

   1   rms: 0.1024E+00   max: 0.1048E+01   C at   44  1
       a =  5.000      CL =  0.7371
      Cm = -0.0352     CD =  0.01020   =>   CDf =  0.00610    CDp =  0.00410

 Side 1  free  transition at x/c =  0.3039   38
 Side 2 forced transition at x/c =  1.0000   75

   2   rms: 0.2927E-01   max: -.3108E+00   D at   39  1
       a =  5.000      CL =  0.7341
      Cm = -0.0348     CD =  0.01047   =>   CDf =  0.00649    CDp =  0.00398

 Side 1  free  transition at x/c =  0.3088   38
 Side 2 forced transition at x/c =  1.0000   75

   3   rms: 0.2101E-02   max: -.3053E-01   D at   38  1
       a =  5.000      CL =  0.7339
      Cm = -0.0348     CD =  0.01051   =>   CDf =  0.00644    CDp =  0.00408

 Side 1  free  transition at x/c =  0.3058   38
 Side 2 forced transition at x/c =  1.0000   75

   4   rms: 0.5707E-03   max: -.1000E-01   C at   38  1
       a =  5.000      CL =  0.7339
      Cm = -0.0348     CD =  0.01052   =>   CDf =  0.00644    CDp =  0.00408

 Side 1  free  transition at x/c =  0.3061   38
 Side 2 forced transition at x/c =  1.0000   75

   5   rms: 0.2870E-05   max: 0.4093E-04   C at   38  1
       a =  5.000      CL =  0.7339
      Cm = -0.0348     CD =  0.01052   =>   CDf =  0.00643    CDp =  0.00409
 plradd ia,ip,cpol           19           0  1.12270983E-02

 Point added to stored polar  1
 Point written to save file  rg149_Re300k.base.pol                           
 Dump file unspecified or not available
 Calculating wake trajectory ...
 Calculating source influence matrix ...

 Solving BL system ...

 Side 1  free  transition at x/c =  0.3061   38
 Side 2 forced transition at x/c =  1.0000   75

   1   rms: 0.1343E+00   max: 0.1939E+01   C at   38  1   RLX: 0.754
       a =  5.500      CL =  0.7663
      Cm = -0.0331     CD =  0.01117   =>   CDf =  0.00644    CDp =  0.00473

 Side 1  free  transition at x/c =  0.2299   33
 Side 2 forced transition at x/c =  1.0000   75

   2   rms: 0.3055E-01   max: -.3157E+00   D at   33  1
       a =  5.500      CL =  0.7750
      Cm = -0.0324     CD =  0.01159   =>   CDf =  0.00681    CDp =  0.00479

 Side 1  free  transition at x/c =  0.2069   31
 Side 2 forced transition at x/c =  1.0000   75

   3   rms: 0.5805E-02   max: -.8973E-01   C at   31  1
       a =  5.500      CL =  0.7742
      Cm = -0.0323     CD =  0.01167   =>   CDf =  0.00690    CDp =  0.00477

 Side 1  free  transition at x/c =  0.2079   31
 Side 2 forced transition at x/c =  1.0000   75

   4   rms: 0.3902E-03   max: 0.7699E-02   C at   31  1
       a =  5.500      CL =  0.7742
      Cm = -0.0323     CD =  0.01167   =>   CDf =  0.00689    CDp =  0.00478

 Side 1  free  transition at x/c =  0.2077   31
 Side 2 forced transition at x/c =  1.0000   75

   5   rms: 0.1438E-05   max: -.5354E-05   C at   31  1
       a =  5.500      CL =  0.7742
      Cm = -0.0323     CD =  0.01167   =>   CDf =  0.00689    CDp =  0.00478
 plradd ia,ip,cpol           20           0  1.58327958E-03

 Point added to stored polar  1
 Point written to save file  rg149_Re300k.base.pol                           
 Dump file unspecified or not available
 Calculating wake trajectory ...
 Calculating source influence matrix ...

 Solving BL system ...

 Side 1  free  transition at x/c =  0.2077   31
 Side 2 forced transition at x/c =  1.0000   75

   1   rms: 0.1319E+00   max: 0.1971E+01   C at   31  1   RLX: 0.750
       a =  6.000      CL =  0.8073
      Cm = -0.0309     CD =  0.01242   =>   CDf =  0.00666    CDp =  0.00576

 Side 1  free  transition at x/c =  0.1612   29
 Side 2 forced transition at x/c =  1.0000   74

   2   rms: 0.3170E-01   max: -.3977E+00   D at   29  1
       a =  6.000      CL =  0.8171
      Cm = -0.0303     CD =  0.01279   =>   CDf =  0.00714    CDp =  0.00566

 Side 1  free  transition at x/c =  0.1501   28
 Side 2 forced transition at x/c =  1.0000   74

   3   rms: 0.7698E-02   max: -.9397E-01   D at   29  1
       a =  6.000      CL =  0.8167
      Cm = -0.0303     CD =  0.01282   =>   CDf =  0.00715    CDp =  0.00567

 Side 1  free  transition at x/c =  0.1492   28
 Side 2 forced transition at x/c =  1.0000   74

   4   rms: 0.2792E-03   max: 0.4202E-02   C at   28  1
       a =  6.000      CL =  0.8166
      Cm = -0.0302     CD =  0.01284   =>   CDf =  0.00715    CDp =  0.00569

 Side 1  free  transition at x/c =  0.1491   28
 Side 2 forced transition at x/c =  1.0000   74

   5   rms: 0.1435E-05   max: -.1108E-04   D at   29  1
       a =  6.000      CL =  0.8166
      Cm = -0.0302     CD =  0.01284   =>   CDf =  0.00715    CDp =  0.00569
 plradd ia,ip,cpol           21           0  6.84868079E-04

 Point added to stored polar  1
 Point written to save file  rg149_Re300k.base.pol                           
 Dump file unspecified or not available
 Calculating wake trajectory ...
 Calculating source influence matrix ...

 Solving BL system ...

 Side 1  free  transition at x/c =  0.1491   28
 Side 2 forced transition at x/c =  1.0000   74

   1   rms: 0.1107E+00   max: 0.8937E+00   C at   28  1   RLX: 0.769
       a =  6.500      CL =  0.8507
      Cm = -0.0289     CD =  0.01370   =>   CDf =  0.00715    CDp =  0.00654

 Side 1  free  transition at x/c =  0.1217   26
 Side 2 forced transition at x/c =  1.0000   74

   2   rms: 0.3679E-01   max: -.3614E+00   D at   26  1
       a =  6.500      CL =  0.8609
      Cm = -0.0284     CD =  0.01392   =>   CDf =  0.00727    CDp =  0.00665

 Side 1  free  transition at x/c =  0.1109   25
 Side 2 forced transition at x/c =  1.0000   74

   3   rms: 0.9855E-02   max: -.1064E+00   C at   25  1
       a =  6.500      CL =  0.8604
      Cm = -0.0284     CD =  0.01394   =>   CDf =  0.00730    CDp =  0.00664

 Side 1  free  transition at x/c =  0.1109   25
 Side 2 forced transition at x/c =  1.0000   74

   4   rms: 0.5045E-03   max: 0.6940E-02   C at   25  1
       a =  6.500      CL =  0.8603
      Cm = -0.0284     CD =  0.01396   =>   CDf =  0.00728    CDp =  0.00668

 Side 1  free  transition at x/c =  0.1108   25
 Side 2 forced transition at x/c =  1.0000   74

   5   rms: 0.2918E-05   max: -.2430E-04   D at   26  1
       a =  6.500      CL =  0.8603
      Cm = -0.0284     CD =  0.01396   =>   CDf =  0.00728    CDp =  0.00667
 plradd ia,ip,cpol           22           0  6.84868079E-04

 Point added to stored polar  1
 Point written to save file  rg149_Re300k.base.pol                           
 Dump file unspecified or not available
 Calculating wake trajectory ...
 Calculating source influence matrix ...

 Solving BL system ...

 Side 1  free  transition at x/c =  0.1108   25
 Side 2 forced transition at x/c =  1.0000   74

   1   rms: 0.9289E-01   max: 0.6833E+00   T at   25  1
       a =  7.000      CL =  0.9088
      Cm = -0.0270     CD =  0.01469   =>   CDf =  0.00702    CDp =  0.00767

 Side 1  free  transition at x/c =  0.0867   24
 Side 2 forced transition at x/c =  1.0000   73

   2   rms: 0.2401E-01   max: -.2617E+00   D at   26  1
       a =  7.000      CL =  0.9031
      Cm = -0.0264     CD =  0.01522   =>   CDf =  0.00739    CDp =  0.00783

 Side 1  free  transition at x/c =  0.0853   24
 Side 2 forced transition at x/c =  1.0000   73

   3   rms: 0.3754E-02   max: 0.2814E-01   T at   24  1
       a =  7.000      CL =  0.9034
      Cm = -0.0264     CD =  0.01518   =>   CDf =  0.00733    CDp =  0.00786

 Side 1  free  transition at x/c =  0.0846   24
 Side 2 forced transition at x/c =  1.0000   73

   4   rms: 0.8671E-04   max: -.9671E-03   D at   24  1
       a =  7.000      CL =  0.9034
      Cm = -0.0264     CD =  0.01518   =>   CDf =  0.00733    CDp =  0.00785
 plradd ia,ip,cpol           23           0  6.84868079E-04

 Point added to stored polar  1
 Point written to save file  rg149_Re300k.base.pol                           
 Dump file unspecified or not available
 Calculating wake trajectory ...
 Calculating source influence matrix ...

 Solving BL system ...

 Side 1  free  transition at x/c =  0.0846   24
 Side 2 forced transition at x/c =  1.0000   73

   1   rms: 0.9181E-01   max: 0.7073E+00   T at   24  1
       a =  7.500      CL =  0.9500
      Cm = -0.0247     CD =  0.01614   =>   CDf =  0.00733    CDp =  0.00881

 Side 1  free  transition at x/c =  0.0674   23
 Side 2 forced transition at x/c =  1.0000   73

   2   rms: 0.7290E-01   max: -.5142E+00   D at   23  1   RLX: 0.972
       a =  7.500      CL =  0.9425
      Cm = -0.0238     CD =  0.01632   =>   CDf =  0.00727    CDp =  0.00905

 Side 1  free  transition at x/c =  0.0681   23
 Side 2 forced transition at x/c =  1.0000   73

   3   rms: 0.7188E-02   max: 0.8303E-01   T at   23  1
       a =  7.500      CL =  0.9461
      Cm = -0.0244     CD =  0.01647   =>   CDf =  0.00727    CDp =  0.00919

 Side 1  free  transition at x/c =  0.0666   23
 Side 2 forced transition at x/c =  1.0000   73

   4   rms: 0.7060E-03   max: -.5981E-02   D at   23  1
       a =  7.500      CL =  0.9459
      Cm = -0.0244     CD =  0.01648   =>   CDf =  0.00729    CDp =  0.00919

 Side 1  free  transition at x/c =  0.0666   23
 Side 2 forced transition at x/c =  1.0000   73

   5   rms: 0.2309E-05   max: -.1668E-04   D at   24  1
       a =  7.500      CL =  0.9459
      Cm = -0.0244     CD =  0.01648   =>   CDf =  0.00729    CDp =  0.00919
 plradd ia,ip,cpol           24           0  1.42920733E-04

 Point added to stored polar  1
 Point written to save file  rg149_Re300k.base.pol                           
 Dump file unspecified or not available
 Calculating wake trajectory ...
 Calculating source influence matrix ...

 Solving BL system ...

 Side 1  free  transition at x/c =  0.0666   23
 Side 2 forced transition at x/c =  1.0000   73

   1   rms: 0.9762E-01   max: 0.7121E+00   T at   23  1   RLX: 0.910
       a =  8.000      CL =  0.9842
      Cm = -0.0225     CD =  0.01776   =>   CDf =  0.00729    CDp =  0.01047

 MRCHDU: Convergence failed at  23  side 1    Res =  0.3339E+01
 MRCHDU: Convergence failed at  24  side 1    Res =  0.3019E+01
 MRCHDU: Convergence failed at  25  side 1    Res =  0.9369E+01
 MRCHDU: Convergence failed at  26  side 1    Res =  0.1928E+02
 MRCHDU: Convergence failed at  27  side 1    Res =  0.3572E+02
 MRCHDU: Convergence failed at  28  side 1    Res =  0.2610E+02
 MRCHDU: Convergence failed at  29  side 1    Res =  0.3304E+02
 MRCHDU: Convergence failed at  30  side 1    Res =  0.7131E+02
 MRCHDU: Convergence failed at  31  side 1    Res =  0.3933E+03
 MRCHDU: Convergence failed at  32  side 1    Res =  0.1634E+02
 MRCHDU: Convergence failed at  33  side 1    Res =  0.1404E+02
 MRCHDU: Convergence failed at  34  side 1    Res =  0.1249E+02
 MRCHDU: Convergence failed at  35  side 1    Res =  0.1127E+02
 MRCHDU: Convergence failed at  36  side 1    Res =  0.7694E+01
 MRCHDU: Convergence failed at  37  side 1    Res =  0.6150E+01
 MRCHDU: Convergence failed at  38  side 1    Res =  0.5543E+02
 MRCHDU: Convergence failed at  39  side 1    Res =  0.9317E+02
 MRCHDU: Convergence failed at  40  side 1    Res =  0.2149E+03
 MRCHDU: Convergence failed at  41  side 1    Res =  0.1865E+03
 MRCHDU: Convergence failed at  42  side 1    Res =  0.1082E+02
 MRCHDU: Convergence failed at  43  side 1    Res =  0.1068E+02
 MRCHDU: Convergence failed at  44  side 1    Res =  0.3300E+02
 MRCHDU: Convergence failed at  45  side 1    Res =  0.1117E+02
 MRCHDU: Convergence failed at  46  side 1    Res =  0.1176E+02
 MRCHDU: Convergence failed at  47  side 1    Res =  0.1208E+02
 MRCHDU: Convergence failed at  48  side 1    Res =  0.1638E+02
 MRCHDU: Convergence failed at  49  side 1    Res =  0.2167E+02
 MRCHDU: Convergence failed at  50  side 1    Res =  0.2235E+02
 MRCHDU: Convergence failed at  51  side 1    Res =  0.2101E+02
 MRCHDU: Convergence failed at  52  side 1    Res =  0.1971E+02
 MRCHDU: Convergence failed at  53  side 1    Res =  0.1862E+02
 MRCHDU: Convergence failed at  54  side 1    Res =  0.1767E+02
 MRCHDU: Convergence failed at  55  side 1    Res =  0.1676E+02
 MRCHDU: Convergence failed at  56  side 1    Res =  0.1366E+02
 MRCHDU: Convergence failed at  57  side 1    Res =  0.1438E+02
 MRCHDU: Convergence failed at  58  side 1    Res =  0.1481E+02
 MRCHDU: Convergence failed at  59  side 1    Res =  0.3193E+02
 MRCHDU: Convergence failed at  60  side 1    Res =  0.3390E+02
 MRCHDU: Convergence failed at  61  side 1    Res =  0.3610E+02
 MRCHDU: Convergence failed at  62  side 1    Res =  0.3857E+02
 MRCHDU: Convergence failed at  63  side 1    Res =  0.4138E+02
 MRCHDU: Convergence failed at  64  side 1    Res =  0.3051E+02
 MRCHDU: Convergence failed at  65  side 1    Res =  0.3356E+02
 MRCHDU: Convergence failed at  66  side 1    Res =  0.3723E+02
 MRCHDU: Convergence failed at  67  side 1    Res =  0.4323E+02
 MRCHDU: Convergence failed at  68  side 1    Res =  0.4876E+02
 MRCHDU: Convergence failed at  69  side 1    Res =  0.2466E+02
 MRCHDU: Convergence failed at  70  side 1    Res =  0.1980E+02
 MRCHDU: Convergence failed at  71  side 1    Res =  0.7781E+02
 MRCHDU: Convergence failed at  72  side 1    Res =  0.2227E+02
 MRCHDU: Convergence failed at  73  side 1    Res =  0.2978E+02
 MRCHDU: Convergence failed at  74  side 1    Res =  0.2989E+04
 MRCHDU: Convergence failed at  75  side 1    Res =  0.3399E+03
 MRCHDU: Convergence failed at  76  side 1    Res =  0.1542E+03
 MRCHDU: Convergence failed at  77  side 1    Res =  0.9695E+02
 MRCHDU: Convergence failed at  78  side 1    Res =  0.1621E+03
 MRCHDU: Convergence failed at  79  side 1    Res =  0.1046E+03
 MRCHDU: Convergence failed at  80  side 1    Res =  0.7246E+02
 MRCHDU: Convergence failed at  81  side 1    Res =  0.3725E+02
 MRCHDU: Convergence failed at  82  side 1    Res =  0.3306E+02
 MRCHDU: Convergence failed at  83  side 1    Res =  0.2975E+02
 MRCHDU: Convergence failed at  84  side 1    Res =  0.2696E+02
 MRCHDU: Convergence failed at  85  side 1    Res =  0.2130E+02
 MRCHDU: Convergence failed at  86  side 1    Res =  0.2364E+02
 MRCHDU: Convergence failed at  87  side 1    Res =  0.4564E+02
 MRCHDU: Convergence failed at  88  side 1    Res =  0.6733E+02
 MRCHDU: Convergence failed at  89  side 1    Res =  0.3120E+03
 Side 1  free  transition at x/c =  0.0556   22
 Side 2 forced transition at x/c =  1.0000   73

   2   rms: 0.1279E+01   max: 0.5899E+01   D at   75  2   RLX: 0.254
       a =  8.000      CL =  1.9795
      Cm = -0.4023     CD =  0.00663   =>   CDf =  0.00208    CDp =  0.00455

 MRCHDU: Convergence failed at  76  side 2    Res =  0.1181E+01
 MRCHDU: Convergence failed at  77  side 2    Res =  0.2208E+01
 MRCHDU: Convergence failed at  78  side 2    Res =  0.3501E+01
 Side 1  free  transition at x/c =  0.0597   22
 Side 2 forced transition at x/c =  1.0000   73

   3   rms: 0.5025E+00   max: -.2074E+01   T at   22  1   RLX: 0.241
       a =  8.000      CL =  1.4079
      Cm = -0.2116     CD =  0.03387   =>   CDf =  0.00473    CDp =  0.02914

 MRCHDU: Convergence failed at  23  side 1    Res =  0.1649E+03
 MRCHDU: Convergence failed at  24  side 1    Res =  0.6199E+01
 MRCHDU: Convergence failed at  37  side 1    Res =  0.9848E-01
 MRCHDU: Convergence failed at  55  side 1    Res =  0.6348E-01
 Side 1  free  transition at x/c =  0.0669   23
 Side 2 forced transition at x/c =  1.0000   73

   4   rms: 0.5370E+00   max: -.3357E+01   D at   37  1   RLX: 0.149
       a =  8.000      CL =  1.2657
      Cm = -0.1425     CD =  0.03329   =>   CDf =  0.00458    CDp =  0.02871

 MRCHDU: Convergence failed at  37  side 1    Res =  0.8074E-01
 Side 1  free  transition at x/c =  0.0673   23
 Side 2 forced transition at x/c =  1.0000   73

   5   rms: 0.7448E+00   max: -.5093E+01   D at   32  1   RLX: 0.098
       a =  8.000      CL =  1.2590
      Cm = -0.1356     CD =  0.03399   =>   CDf =  0.00522    CDp =  0.02878

 MRCHDU: Convergence failed at  37  side 1    Res =  0.2141E-01
 Side 1  free  transition at x/c =  0.0654   23
 Side 2 forced transition at x/c =  1.0000   73

   6   rms: 0.3960E+00   max: -.1812E+01   D at   34  1   RLX: 0.276
       a =  8.000      CL =  1.1781
      Cm = -0.0990     CD =  0.03106   =>   CDf =  0.00534    CDp =  0.02572

 Side 1  free  transition at x/c =  0.0637   23
 Side 2 forced transition at x/c =  1.0000   73

   7   rms: 0.4196E+00   max: -.1820E+01   D at   55  1   RLX: 0.275
       a =  8.000      CL =  1.0916
      Cm = -0.0640     CD =  0.02764   =>   CDf =  0.00537    CDp =  0.02227

 Side 1  free  transition at x/c =  0.0627   23
 Side 2 forced transition at x/c =  1.0000   73

   8   rms: 0.5403E+00   max: -.2579E+01   D at   46  1   RLX: 0.194
       a =  8.000      CL =  1.0291
      Cm = -0.0492     CD =  0.02651   =>   CDf =  0.00546    CDp =  0.02105

 Side 1  free  transition at x/c =  0.0656   23
 Side 2 forced transition at x/c =  1.0000   73

   9   rms: 0.6781E+00   max: -.3631E+01   D at   44  1   RLX: 0.138
       a =  8.000      CL =  1.0093
      Cm = -0.0491     CD =  0.02813   =>   CDf =  0.00562    CDp =  0.02252

 Side 1  free  transition at x/c =  0.0687   23
 Side 2 forced transition at x/c =  1.0000   73

  10   rms: 0.5652E+00   max: -.3055E+01   D at   44  1   RLX: 0.164
       a =  8.000      CL =  0.9926
      Cm = -0.0483     CD =  0.02900   =>   CDf =  0.00572    CDp =  0.02328

 MRCHDU: Convergence failed at  39  side 1    Res =  0.3580E+00
 MRCHDU: Convergence failed at  40  side 1    Res =  0.1799E+01
 MRCHDU: Convergence failed at  41  side 1    Res =  0.1823E+00
 MRCHDU: Convergence failed at  53  side 1    Res =  0.8937E+00
 MRCHDU: Convergence failed at  54  side 1    Res =  0.2754E+01
 Side 1  free  transition at x/c =  0.0714   23
 Side 2 forced transition at x/c =  1.0000   73

  11   rms: 0.3418E+00   max: -.1807E+01   D at   48  1   RLX: 0.277
       a =  8.000      CL =  1.0074
      Cm = -0.0444     CD =  0.02827   =>   CDf =  0.00664    CDp =  0.02163

 MRCHDU: Convergence failed at  50  side 1    Res =  0.2036E+01
 MRCHDU: Convergence failed at  51  side 1    Res =  0.3404E+01
 MRCHDU: Convergence failed at  52  side 1    Res =  0.3113E+02
 MRCHDU: Convergence failed at  53  side 1    Res =  0.5117E+01
 MRCHDU: Convergence failed at  54  side 1    Res =  0.2084E+01
 Side 1  free  transition at x/c =  0.0720   23
 Side 2 forced transition at x/c =  1.0000   73

  12   rms: 0.3369E+00   max: -.1794E+01   D at   47  1   RLX: 0.279
       a =  8.000      CL =  0.9944
      Cm = -0.0403     CD =  0.02809   =>   CDf =  0.00613    CDp =  0.02196

 Side 1  free  transition at x/c =  0.0715   23
 Side 2 forced transition at x/c =  1.0000   73

  13   rms: 0.5282E+00   max: 0.1739E+01   T at   23  1   RLX: 0.317
       a =  8.000      CL =  1.0203
      Cm = -0.0270     CD =  0.02118   =>   CDf =  0.00624    CDp =  0.01494

 Side 1  free  transition at x/c =  0.0603   22
 Side 2 forced transition at x/c =  1.0000   73

  14   rms: 0.6001E+00   max: -.2510E+01   D at   64  1   RLX: 0.199
       a =  8.000      CL =  1.0229
      Cm = -0.0162     CD =  0.01850   =>   CDf =  0.00666    CDp =  0.01184

 Side 1  free  transition at x/c =  0.0562   22
 Side 2 forced transition at x/c =  1.0000   73

  15   rms: 0.4761E+00   max: -.1807E+01   D at   76  1   RLX: 0.277
       a =  8.000      CL =  1.0626
      Cm = -0.0220     CD =  0.01693   =>   CDf =  0.00683    CDp =  0.01009

 Side 1  free  transition at x/c =  0.0504   22
 Side 2 forced transition at x/c =  1.0000   73

  16   rms: 0.1835E+00   max: -.7633E+00   D at   70  1   RLX: 0.655
       a =  8.000      CL =  1.0409
      Cm = -0.0252     CD =  0.01757   =>   CDf =  0.00707    CDp =  0.01049

 Side 1  free  transition at x/c =  0.0489   21
 Side 2 forced transition at x/c =  1.0000   73

  17   rms: 0.8000E-01   max: -.3330E+00   D at   66  1
       a =  8.000      CL =  0.9887
      Cm = -0.0220     CD =  0.01827   =>   CDf =  0.00719    CDp =  0.01109

 Side 1  free  transition at x/c =  0.0525   22
 Side 2 forced transition at x/c =  1.0000   73

  18   rms: 0.9293E-02   max: 0.1008E+00   D at   22  1
       a =  8.000      CL =  0.9879
      Cm = -0.0224     CD =  0.01778   =>   CDf =  0.00726    CDp =  0.01052

 Side 1  free  transition at x/c =  0.0535   22
 Side 2 forced transition at x/c =  1.0000   73

  19   rms: 0.2065E-02   max: 0.2279E-01   D at   22  1
       a =  8.000      CL =  0.9877
      Cm = -0.0224     CD =  0.01781   =>   CDf =  0.00724    CDp =  0.01057

 Side 1  free  transition at x/c =  0.0534   22
 Side 2 forced transition at x/c =  1.0000   73

  20   rms: 0.1522E-04   max: 0.1179E-03   D at   22  1
       a =  8.000      CL =  0.9876
      Cm = -0.0224     CD =  0.01781   =>   CDf =  0.00724    CDp =  0.01057
 plradd ia,ip,cpol           25           0  1.42920733E-04

 Point added to stored polar  1
 Point written to save file  rg149_Re300k.base.pol                           
 Dump file unspecified or not available
 Calculating wake trajectory ...
 Calculating source influence matrix ...

 Solving BL system ...

 Side 1  free  transition at x/c =  0.0534   22
 Side 2 forced transition at x/c =  1.0000   73

   1   rms: 0.9804E-01   max: 0.6765E+00   T at   22  1   RLX: 0.873
       a =  8.500      CL =  1.0221
      Cm = -0.0205     CD =  0.01924   =>   CDf =  0.00692    CDp =  0.01232

 MRCHDU: Convergence failed at  23  side 1    Res =  0.2654E+01
 MRCHDU: Convergence failed at  24  side 1    Res =  0.2301E+01
 MRCHDU: Convergence failed at  25  side 1    Res =  0.4066E+01
 MRCHDU: Convergence failed at  26  side 1    Res =  0.5946E+01
 MRCHDU: Convergence failed at  27  side 1    Res =  0.7043E+01
 MRCHDU: Convergence failed at  28  side 1    Res =  0.8170E+01
 MRCHDU: Convergence failed at  29  side 1    Res =  0.9321E+01
 MRCHDU: Convergence failed at  30  side 1    Res =  0.1501E+02
 MRCHDU: Convergence failed at  31  side 1    Res =  0.2197E+02
 MRCHDU: Convergence failed at  32  side 1    Res =  0.4065E+02
 MRCHDU: Convergence failed at  33  side 1    Res =  0.1262E+03
 MRCHDU: Convergence failed at  34  side 1    Res =  0.2352E+02
 MRCHDU: Convergence failed at  35  side 1    Res =  0.1919E+02
 MRCHDU: Convergence failed at  36  side 1    Res =  0.1632E+02
 MRCHDU: Convergence failed at  37  side 1    Res =  0.8109E+01
 MRCHDU: Convergence failed at  38  side 1    Res =  0.9782E+02
 MRCHDU: Convergence failed at  39  side 1    Res =  0.1253E+02
 MRCHDU: Convergence failed at  40  side 1    Res =  0.1563E+02
 MRCHDU: Convergence failed at  41  side 1    Res =  0.1725E+02
 MRCHDU: Convergence failed at  42  side 1    Res =  0.1842E+02
 MRCHDU: Convergence failed at  43  side 1    Res =  0.2281E+02
 MRCHDU: Convergence failed at  44  side 1    Res =  0.4750E+02
 MRCHDU: Convergence failed at  45  side 1    Res =  0.3997E+02
 MRCHDU: Convergence failed at  46  side 1    Res =  0.3418E+02
 MRCHDU: Convergence failed at  47  side 1    Res =  0.3013E+02
 MRCHDU: Convergence failed at  48  side 1    Res =  0.2690E+02
 MRCHDU: Convergence failed at  49  side 1    Res =  0.2443E+02
 MRCHDU: Convergence failed at  50  side 1    Res =  0.2299E+02
 MRCHDU: Convergence failed at  51  side 1    Res =  0.1548E+02
 MRCHDU: Convergence failed at  52  side 1    Res =  0.3692E+02
 MRCHDU: Convergence failed at  53  side 1    Res =  0.3949E+02
 MRCHDU: Convergence failed at  54  side 1    Res =  0.4235E+02
 MRCHDU: Convergence failed at  55  side 1    Res =  0.4555E+02
 MRCHDU: Convergence failed at  56  side 1    Res =  0.4923E+02
 MRCHDU: Convergence failed at  57  side 1    Res =  0.5333E+02
 MRCHDU: Convergence failed at  58  side 1    Res =  0.5819E+02
 MRCHDU: Convergence failed at  59  side 1    Res =  0.6399E+02
 MRCHDU: Convergence failed at  60  side 1    Res =  0.4805E+02
 MRCHDU: Convergence failed at  61  side 1    Res =  0.5092E+02
 MRCHDU: Convergence failed at  62  side 1    Res =  0.4699E+02
 MRCHDU: Convergence failed at  63  side 1    Res =  0.5178E+02
 MRCHDU: Convergence failed at  64  side 1    Res =  0.4382E+02
 MRCHDU: Convergence failed at  65  side 1    Res =  0.5034E+02
 MRCHDU: Convergence failed at  66  side 1    Res =  0.3125E+02
 MRCHDU: Convergence failed at  67  side 1    Res =  0.4421E+02
 MRCHDU: Convergence failed at  68  side 1    Res =  0.1340E+04
 MRCHDU: Convergence failed at  69  side 1    Res =  0.3065E+03
 MRCHDU: Convergence failed at  70  side 1    Res =  0.1742E+03
 MRCHDU: Convergence failed at  71  side 1    Res =  0.1222E+03
 MRCHDU: Convergence failed at  72  side 1    Res =  0.9346E+02
 MRCHDU: Convergence failed at  73  side 1    Res =  0.7484E+02
 MRCHDU: Convergence failed at  74  side 1    Res =  0.3716E+03
 MRCHDU: Convergence failed at  75  side 1    Res =  0.1975E+03
 MRCHDU: Convergence failed at  76  side 1    Res =  0.1345E+03
 MRCHDU: Convergence failed at  77  side 1    Res =  0.1026E+03
 MRCHDU: Convergence failed at  78  side 1    Res =  0.8141E+02
 MRCHDU: Convergence failed at  79  side 1    Res =  0.3302E+02
 MRCHDU: Convergence failed at  80  side 1    Res =  0.3023E+02
 MRCHDU: Convergence failed at  81  side 1    Res =  0.2786E+02
 MRCHDU: Convergence failed at  82  side 1    Res =  0.2656E+02
 MRCHDU: Convergence failed at  83  side 1    Res =  0.2499E+02
 MRCHDU: Convergence failed at  84  side 1    Res =  0.2511E+02
 MRCHDU: Convergence failed at  85  side 1    Res =  0.2814E+02
 MRCHDU: Convergence failed at  86  side 1    Res =  0.1549E+03
 MRCHDU: Convergence failed at  87  side 1    Res =  0.1052E+04
 MRCHDU: Convergence failed at  88  side 1    Res =  0.1915E+03
 MRCHDU: Convergence failed at  89  side 1    Res =  0.1132E+03
 MRCHDU: Convergence failed at  90  side 1    Res =  0.1101E+03
 Side 1  free  transition at x/c =  0.0463   22
 Side 2 forced transition at x/c =  1.0000   72
 idif Ue xi dudx           1  0.17211264      6.66773319E-03   25.812767    
 Uenew xinew           2  9.38214362E-03  3.63469124E-04

   2   rms: 0.1499E+01   max: 0.6413E+01   D at   74  2   RLX: 0.188
       a =  8.500      CL =  2.4284
      Cm = -0.5239     CD =  0.00557   =>   CDf =  0.00219    CDp =  0.00338

 MRCHDU: Convergence failed at  41  side 1    Res =  0.8927E-01
 MRCHDU: Convergence failed at  69  side 1    Res =  0.1884E+00
 MRCHDU: Convergence failed at  70  side 1    Res =  0.1774E+00
 MRCHDU: Convergence failed at  71  side 1    Res =  0.1653E+00
 MRCHDU: Convergence failed at  72  side 1    Res =  0.1520E+00
 MRCHDU: Convergence failed at  73  side 1    Res =  0.1366E+00
 MRCHDU: Convergence failed at  74  side 1    Res =  0.1194E+00
 MRCHDU: Convergence failed at  75  side 1    Res =  0.9778E-01
 MRCHDU: Convergence failed at  76  side 1    Res =  0.9493E-03
 Side 1  free  transition at x/c =  0.0485   21
 Side 2 forced transition at x/c =  1.0000   73

   3   rms: 0.5674E+00   max: -.6097E+00   U at   89  1   RLX: 0.345
       a =  8.500      CL =  1.5751
      Cm = -0.2377     CD =  0.02659   =>   CDf =  0.00425    CDp =  0.02234

 MRCHDU: Convergence failed at  41  side 1    Res =  0.1532E+00
 MRCHDU: Convergence failed at  42  side 1    Res =  0.3727E+00
 Side 1  free  transition at x/c =  0.0497   21
 Side 2 forced transition at x/c =  1.0000   73

   4   rms: 0.5547E+00   max: -.2096E+01   D at   29  1   RLX: 0.239
       a =  8.500      CL =  1.2497
      Cm = -0.1321     CD =  0.02756   =>   CDf =  0.00377    CDp =  0.02379

 MRCHDU: Convergence failed at  22  side 1    Res =  0.4394E+01
 MRCHDU: Convergence failed at  23  side 1    Res =  0.2719E+01
 MRCHDU: Convergence failed at  25  side 1    Res =  0.2398E+01
 MRCHDU: Convergence failed at  26  side 1    Res =  0.1072E+02
 MRCHDU: Convergence failed at  27  side 1    Res =  0.9265E+01
 MRCHDU: Convergence failed at  28  side 1    Res =  0.1949E+01
 MRCHDU: Convergence failed at  74  side 1    Res =  0.3548E-01
 Side 1  free  transition at x/c =  0.0558   22
 Side 2 forced transition at x/c =  1.0000   73

   5   rms: 0.9557E+00   max: -.4710E+01   D at   33  1   RLX: 0.106
       a =  8.500      CL =  1.2720
      Cm = -0.0862     CD =  0.01787   =>   CDf =  0.00632    CDp =  0.01155

 Side 1  free  transition at x/c =  0.0525   22
 Side 2 forced transition at x/c =  1.0000   73

   6   rms: 0.4402E+00   max: -.2067E+01   D at   34  1   RLX: 0.242
       a =  8.500      CL =  1.2420
      Cm = -0.0767     CD =  0.01950   =>   CDf =  0.00629    CDp =  0.01320

 Side 1  free  transition at x/c =  0.0488   22
 Side 2 forced transition at x/c =  1.0000   72

   7   rms: 0.3229E+00   max: -.1116E+01   D at   36  1   RLX: 0.448
       a =  8.500      CL =  1.1786
      Cm = -0.0521     CD =  0.01910   =>   CDf =  0.00656    CDp =  0.01254

 Side 1  free  transition at x/c =  0.0433   22
 Side 2 forced transition at x/c =  1.0000   72

   8   rms: 0.4409E+00   max: -.1433E+01   D at   82  1   RLX: 0.349
       a =  8.500      CL =  1.1997
      Cm = -0.0458     CD =  0.01723   =>   CDf =  0.00641    CDp =  0.01082

 MRCHDU: Convergence failed at  22  side 1    Res =  0.2303E+01
 MRCHDU: Convergence failed at  23  side 1    Res =  0.2644E+01
 MRCHDU: Convergence failed at  24  side 1    Res =  0.3088E+01
 MRCHDU: Convergence failed at  25  side 1    Res =  0.2893E+01
 MRCHDU: Convergence failed at  26  side 1    Res =  0.3083E+01
 MRCHDU: Convergence failed at  27  side 1    Res =  0.3360E+01
 MRCHDU: Convergence failed at  28  side 1    Res =  0.3550E+01
 MRCHDU: Convergence failed at  29  side 1    Res =  0.3735E+01
 MRCHDU: Convergence failed at  30  side 1    Res =  0.4927E+01
 MRCHDU: Convergence failed at  31  side 1    Res =  0.4358E+01
 MRCHDU: Convergence failed at  32  side 1    Res =  0.1401E+02
 MRCHDU: Convergence failed at  33  side 1    Res =  0.3252E+02
 MRCHDU: Convergence failed at  34  side 1    Res =  0.2303E+02
 MRCHDU: Convergence failed at  35  side 1    Res =  0.2571E+02
 MRCHDU: Convergence failed at  36  side 1    Res =  0.3217E+02
 MRCHDU: Convergence failed at  37  side 1    Res =  0.4553E+02
 MRCHDU: Convergence failed at  38  side 1    Res =  0.2613E+02
 MRCHDU: Convergence failed at  39  side 1    Res =  0.2465E+02
 MRCHDU: Convergence failed at  40  side 1    Res =  0.2813E+02
 MRCHDU: Convergence failed at  41  side 1    Res =  0.2079E+02
 MRCHDU: Convergence failed at  42  side 1    Res =  0.3285E+02
 MRCHDU: Convergence failed at  43  side 1    Res =  0.3731E+02
 MRCHDU: Convergence failed at  44  side 1    Res =  0.4051E+02
 MRCHDU: Convergence failed at  45  side 1    Res =  0.4206E+02
 MRCHDU: Convergence failed at  46  side 1    Res =  0.4586E+02
 MRCHDU: Convergence failed at  47  side 1    Res =  0.4999E+02
 MRCHDU: Convergence failed at  48  side 1    Res =  0.5469E+02
 MRCHDU: Convergence failed at  49  side 1    Res =  0.5777E+02
 MRCHDU: Convergence failed at  50  side 1    Res =  0.2349E+02
 MRCHDU: Convergence failed at  51  side 1    Res =  0.2282E+02
 MRCHDU: Convergence failed at  52  side 1    Res =  0.2178E+02
 MRCHDU: Convergence failed at  53  side 1    Res =  0.1925E+02
 MRCHDU: Convergence failed at  54  side 1    Res =  0.1755E+02
 MRCHDU: Convergence failed at  55  side 1    Res =  0.2121E+02
 MRCHDU: Convergence failed at  56  side 1    Res =  0.6218E+02
 MRCHDU: Convergence failed at  57  side 1    Res =  0.1961E+02
 MRCHDU: Convergence failed at  58  side 1    Res =  0.3342E+03
 MRCHDU: Convergence failed at  59  side 1    Res =  0.8943E+02
 MRCHDU: Convergence failed at  60  side 1    Res =  0.1209E+03
 MRCHDU: Convergence failed at  61  side 1    Res =  0.1569E+03
 MRCHDU: Convergence failed at  62  side 1    Res =  0.2428E+03
 MRCHDU: Convergence failed at  63  side 1    Res =  0.1979E+03
 MRCHDU: Convergence failed at  64  side 1    Res =  0.5737E+03
 MRCHDU: Convergence failed at  65  side 1    Res =  0.9271E+02
 MRCHDU: Convergence failed at  66  side 1    Res =  0.1416E+03
 MRCHDU: Convergence failed at  67  side 1    Res =  0.9684E+02
 MRCHDU: Convergence failed at  68  side 1    Res =  0.9606E+02
 MRCHDU: Convergence failed at  69  side 1    Res =  0.2146E+02
 MRCHDU: Convergence failed at  70  side 1    Res =  0.2075E+02
 MRCHDU: Convergence failed at  71  side 1    Res =  0.2197E+02
 MRCHDU: Convergence failed at  72  side 1    Res =  0.2346E+02
 MRCHDU: Convergence failed at  73  side 1    Res =  0.3810E+02
 MRCHDU: Convergence failed at  74  side 1    Res =  0.4250E+02
 MRCHDU: Convergence failed at  75  side 1    Res =  0.1622E+03
 MRCHDU: Convergence failed at  76  side 1    Res =  0.2379E+06
 MRCHDU: Convergence failed at  77  side 1    Res =  0.2477E+02
 MRCHDU: Convergence failed at  78  side 1    Res =  0.2494E+02
 MRCHDU: Convergence failed at  79  side 1    Res =  0.5746E+02
 MRCHDU: Convergence failed at  80  side 1    Res =  0.2569E+03
 MRCHDU: Convergence failed at  81  side 1    Res =  0.7153E+03
 MRCHDU: Convergence failed at  82  side 1    Res =  0.2762E+03
 MRCHDU: Convergence failed at  83  side 1    Res =  0.1290E+03
 MRCHDU: Convergence failed at  84  side 1    Res =  0.1492E+03
 MRCHDU: Convergence failed at  85  side 1    Res =  0.1843E+03
 MRCHDU: Convergence failed at  86  side 1    Res =  0.9474E+02
 MRCHDU: Convergence failed at  87  side 1    Res =  0.6532E+02
 MRCHDU: Convergence failed at  88  side 1    Res =  0.5745E+02
 MRCHDU: Convergence failed at  89  side 1    Res =  0.8218E+02
 MRCHDU: Convergence failed at  90  side 1    Res =  0.5518E+02
 Side 1  free  transition at x/c =  0.0380   21
 Side 2 forced transition at x/c =  1.0000   72

   9   rms: 0.1723E+01   max: 0.7516E+01   D at   74  2   RLX: 0.190
       a =  8.500      CL =  2.9810
      Cm = -0.6651     CD =  0.00418   =>   CDf =  0.00147    CDp =  0.00270

 MRCHDU: Convergence failed at  37  side 1    Res =  0.2211E+00
 MRCHDU: Convergence failed at  38  side 1    Res =  0.1924E+00
 MRCHDU: Convergence failed at  39  side 1    Res =  0.1274E+00
 MRCHDU: Convergence failed at  41  side 1    Res =  0.2144E+00
 MRCHDU: Convergence failed at  42  side 1    Res =  0.2023E+00
 MRCHDU: Convergence failed at  43  side 1    Res =  0.1897E+00
[...]
 MRCHDU: Convergence failed at  86  side 1    Res =  0.1947E-01
 MRCHDU: Convergence failed at  87  side 1    Res =  0.1022E-01
 MRCHDU: Convergence failed at  88  side 1    Res =  0.2895E-02
 MRCHDU: Convergence failed at  78  side 2    Res =  0.1654E-02
 MRCHDU: Convergence failed at  79  side 2    Res =  0.4431E-02
 MRCHDU: Convergence failed at  80  side 2    Res =  0.6703E-02
 MRCHDU: Convergence failed at  81  side 2    Res =  0.1121E-01
 MRCHDU: Convergence failed at  82  side 2    Res =  0.2264E-01
 MRCHDU: Convergence failed at  83  side 2    Res =  0.5305E-01
 MRCHDU: Convergence failed at  84  side 2    Res =  0.6689E-01
 MRCHDU: Convergence failed at  85  side 2    Res =  0.1182E-01
 MRCHDU: Convergence failed at  95  side 2    Res =  0.1535E-02
 MRCHDU: Convergence failed at  96  side 2    Res =  0.1271E-03
 Side 1  free  transition at x/c =  0.0340   19
 Side 2 forced transition at x/c =  1.0000   74

 139   rms: 0.5874E+07   max: 0.4260E+08   C at   95  2   RLX: 0.000
       a = 16.000      CL =  0.6860
      Cm = -0.0775     CD =*********   =>   CDf =  0.00343    CDp =*********

 MRCHDU: Convergence failed at  85  side 1    Res =  0.1363E-01
 MRCHDU: Convergence failed at  86  side 1    Res =  0.1947E-01
 MRCHDU: Convergence failed at  87  side 1    Res =  0.1022E-01
 MRCHDU: Convergence failed at  88  side 1    Res =  0.2895E-02
 MRCHDU: Convergence failed at  78  side 2    Res =  0.1655E-02
 MRCHDU: Convergence failed at  79  side 2    Res =  0.4431E-02
 MRCHDU: Convergence failed at  80  side 2    Res =  0.6703E-02
 MRCHDU: Convergence failed at  81  side 2    Res =  0.1121E-01
 MRCHDU: Convergence failed at  82  side 2    Res =  0.2265E-01
 MRCHDU: Convergence failed at  83  side 2    Res =  0.5235E-01
 MRCHDU: Convergence failed at  84  side 2    Res =  0.7944E-01
 MRCHDU: Convergence failed at  85  side 2    Res =  0.1591E-01
 MRCHDU: Convergence failed at  95  side 2    Res =  0.1588E-02
 MRCHDU: Convergence failed at  96  side 2    Res =  0.1263E-03
 Side 1  free  transition at x/c =  0.0340   19
 Side 2 forced transition at x/c =  1.0000   74

 140   rms: 0.2136E+07   max: 0.1557E+08   C at   95  2   RLX: 0.000
       a = 16.000      CL =  0.6861
      Cm = -0.0775     CD =*********   =>   CDf =  0.00343    CDp =*********

 MRCHDU: Convergence failed at  85  side 1    Res =  0.1361E-01
 MRCHDU: Convergence failed at  86  side 1    Res =  0.1947E-01
 MRCHDU: Convergence failed at  87  side 1    Res =  0.1022E-01
 MRCHDU: Convergence failed at  88  side 1    Res =  0.2895E-02
 MRCHDU: Convergence failed at  78  side 2    Res =  0.1655E-02
 MRCHDU: Convergence failed at  79  side 2    Res =  0.4431E-02
 MRCHDU: Convergence failed at  80  side 2    Res =  0.6703E-02
 MRCHDU: Convergence failed at  81  side 2    Res =  0.1121E-01
 MRCHDU: Convergence failed at  82  side 2    Res =  0.2268E-01
 MRCHDU: Convergence failed at  83  side 2    Res =  0.5012E-01
 MRCHDU: Convergence failed at  84  side 2    Res =  0.1348E+00
 MRCHDU: Convergence failed at  85  side 2    Res =  0.1030E+00
 MRCHDU: Convergence failed at  95  side 2    Res =  0.1752E-02
 MRCHDU: Convergence failed at  96  side 2    Res =  0.1213E-03
 Side 1  free  transition at x/c =  0.0340   19
 Side 2 forced transition at x/c =  1.0000   74

 141   rms: 0.3188E+07   max: 0.2340E+08   C at   95  2   RLX: 0.000
       a = 16.000      CL =  0.6863
      Cm = -0.0775     CD =*********   =>   CDf =  0.00343    CDp =*********

 MRCHDU: Convergence failed at  85  side 1    Res =  0.1358E-01
 MRCHDU: Convergence failed at  86  side 1    Res =  0.1947E-01
 MRCHDU: Convergence failed at  87  side 1    Res =  0.1022E-01
 MRCHDU: Convergence failed at  88  side 1    Res =  0.2895E-02
 MRCHDU: Convergence failed at  78  side 2    Res =  0.1655E-02
 MRCHDU: Convergence failed at  79  side 2    Res =  0.4430E-02
 MRCHDU: Convergence failed at  80  side 2    Res =  0.6702E-02
 MRCHDU: Convergence failed at  81  side 2    Res =  0.1121E-01
 MRCHDU: Convergence failed at  82  side 2    Res =  0.2261E-01
 MRCHDU: Convergence failed at  83  side 2    Res =  0.5622E-01
 MRCHDU: Convergence failed at  84  side 2    Res =  0.3559E-01
 Side 1  free  transition at x/c =  0.0340   19
 Side 2 forced transition at x/c =  1.0000   74

 142   rms: 0.1028E+08   max: -.7947E+08   C at   95  2   RLX: 0.000
       a = 16.000      CL =  0.6862
      Cm = -0.0775     CD =*********   =>   CDf =  0.00343    CDp =*********

 MRCHDU: Convergence failed at  85  side 1    Res =  0.1359E-01
 MRCHDU: Convergence failed at  86  side 1    Res =  0.1947E-01
 MRCHDU: Convergence failed at  87  side 1    Res =  0.1022E-01
 MRCHDU: Convergence failed at  88  side 1    Res =  0.2895E-02
 MRCHDU: Convergence failed at  78  side 2    Res =  0.1655E-02
 MRCHDU: Convergence failed at  79  side 2    Res =  0.4430E-02
 MRCHDU: Convergence failed at  80  side 2    Res =  0.6702E-02
 MRCHDU: Convergence failed at  81  side 2    Res =  0.1121E-01
 MRCHDU: Convergence failed at  82  side 2    Res =  0.2261E-01
 MRCHDU: Convergence failed at  83  side 2    Res =  0.5607E-01
 MRCHDU: Convergence failed at  84  side 2    Res =  0.3339E-01
 MRCHDU: Convergence failed at  85  side 2    Res =  0.2000E+00
 MRCHDU: Convergence failed at  95  side 2    Res =  0.1884E-02
 MRCHDU: Convergence failed at  96  side 2    Res =  0.1185E-03
 Side 1  free  transition at x/c =  0.0340   19
 Side 2 forced transition at x/c =  1.0000   74

 143   rms: 0.5944E+07   max: 0.4252E+08   C at   95  2   RLX: 0.000
       a = 16.000      CL =  0.6862
      Cm = -0.0775     CD =*********   =>   CDf =  0.00343    CDp =*********

 MRCHDU: Convergence failed at  85  side 1    Res =  0.1359E-01
 MRCHDU: Convergence failed at  86  side 1    Res =  0.1947E-01
 MRCHDU: Convergence failed at  87  side 1    Res =  0.1022E-01
 MRCHDU: Convergence failed at  88  side 1    Res =  0.2895E-02
 MRCHDU: Convergence failed at  78  side 2    Res =  0.1655E-02
 MRCHDU: Convergence failed at  79  side 2    Res =  0.4430E-02
 MRCHDU: Convergence failed at  80  side 2    Res =  0.6702E-02
 MRCHDU: Convergence failed at  81  side 2    Res =  0.1121E-01
 MRCHDU: Convergence failed at  82  side 2    Res =  0.2261E-01
 MRCHDU: Convergence failed at  83  side 2    Res =  0.5637E-01
 MRCHDU: Convergence failed at  84  side 2    Res =  0.3668E-01
 MRCHDU: Convergence failed at  85  side 2    Res =  0.4086E-01
 MRCHDU: Convergence failed at  95  side 2    Res =  0.1943E-02
 MRCHDU: Convergence failed at  96  side 2    Res =  0.1166E-03
 Side 1  free  transition at x/c =  0.0340   19
 Side 2 forced transition at x/c =  1.0000   74

 144   rms: 0.9999E+07   max: 0.7164E+08   C at   95  2   RLX: 0.000
       a = 16.000      CL =  0.6863
      Cm = -0.0776     CD =*********   =>   CDf =  0.00343    CDp =*********

 MRCHDU: Convergence failed at  85  side 1    Res =  0.1358E-01
 MRCHDU: Convergence failed at  86  side 1    Res =  0.1947E-01
 MRCHDU: Convergence failed at  87  side 1    Res =  0.1022E-01
 MRCHDU: Convergence failed at  88  side 1    Res =  0.2895E-02
 MRCHDU: Convergence failed at  78  side 2    Res =  0.1655E-02
 MRCHDU: Convergence failed at  79  side 2    Res =  0.4430E-02
 MRCHDU: Convergence failed at  80  side 2    Res =  0.6702E-02
 MRCHDU: Convergence failed at  81  side 2    Res =  0.1121E-01
 MRCHDU: Convergence failed at  82  side 2    Res =  0.2261E-01
 MRCHDU: Convergence failed at  83  side 2    Res =  0.5640E-01
 MRCHDU: Convergence failed at  84  side 2    Res =  0.3714E-01
 MRCHDU: Convergence failed at  85  side 2    Res =  0.9174E-01
 MRCHDU: Convergence failed at  95  side 2    Res =  0.1992E-02
 MRCHDU: Convergence failed at  96  side 2    Res =  0.1146E-03
 Side 1  free  transition at x/c =  0.0340   19
 Side 2 forced transition at x/c =  1.0000   74

 145   rms: 0.1098E+08   max: 0.7818E+08   C at   95  2   RLX: 0.000
       a = 16.000      CL =  0.6863
      Cm = -0.0776     CD =*********   =>   CDf =  0.00343    CDp =*********

 MRCHDU: Convergence failed at  85  side 1    Res =  0.1357E-01
 MRCHDU: Convergence failed at  86  side 1    Res =  0.1947E-01
 MRCHDU: Convergence failed at  87  side 1    Res =  0.1022E-01
 MRCHDU: Convergence failed at  88  side 1    Res =  0.2895E-02
 MRCHDU: Convergence failed at  78  side 2    Res =  0.1655E-02
 MRCHDU: Convergence failed at  79  side 2    Res =  0.4430E-02
 MRCHDU: Convergence failed at  80  side 2    Res =  0.6702E-02
 MRCHDU: Convergence failed at  81  side 2    Res =  0.1121E-01
 MRCHDU: Convergence failed at  82  side 2    Res =  0.2261E-01
 MRCHDU: Convergence failed at  83  side 2    Res =  0.5618E-01
 MRCHDU: Convergence failed at  84  side 2    Res =  0.3275E-01
 MRCHDU: Convergence failed at  85  side 2    Res =  0.1422E+00
 MRCHDU: Convergence failed at  95  side 2    Res =  0.2057E-02
 MRCHDU: Convergence failed at  96  side 2    Res =  0.1104E-03
 Side 1  free  transition at x/c =  0.0340   19
 Side 2 forced transition at x/c =  1.0000   74

 146   rms: 0.8489E+07   max: 0.7057E+08   T at   88  2   RLX: 0.000
       a = 16.000      CL =  0.6863
      Cm = -0.0776     CD =*********   =>   CDf =  0.00343    CDp =*********

 MRCHDU: Convergence failed at  85  side 1    Res =  0.1356E-01
 MRCHDU: Convergence failed at  86  side 1    Res =  0.1947E-01
 MRCHDU: Convergence failed at  87  side 1    Res =  0.1022E-01
 MRCHDU: Convergence failed at  88  side 1    Res =  0.2895E-02
 MRCHDU: Convergence failed at  78  side 2    Res =  0.1655E-02
 MRCHDU: Convergence failed at  79  side 2    Res =  0.4430E-02
 MRCHDU: Convergence failed at  80  side 2    Res =  0.6702E-02
 MRCHDU: Convergence failed at  81  side 2    Res =  0.1121E-01
 MRCHDU: Convergence failed at  82  side 2    Res =  0.2260E-01
 MRCHDU: Convergence failed at  83  side 2    Res =  0.5643E-01
 MRCHDU: Convergence failed at  84  side 2    Res =  0.3521E-01
 MRCHDU: Convergence failed at  85  side 2    Res =  0.3267E-01
 MRCHDU: Convergence failed at  95  side 2    Res =  0.2102E-02
 MRCHDU: Convergence failed at  96  side 2    Res =  0.1079E-03
 Side 1  free  transition at x/c =  0.0340   19
 Side 2 forced transition at x/c =  1.0000   74

 147   rms: 0.6918E+07   max: 0.5825E+08   T at   88  2   RLX: 0.000
       a = 16.000      CL =  0.6864
      Cm = -0.0776     CD =*********   =>   CDf =  0.00343    CDp =*********

 MRCHDU: Convergence failed at  85  side 1    Res =  0.1355E-01
 MRCHDU: Convergence failed at  86  side 1    Res =  0.1947E-01
 MRCHDU: Convergence failed at  87  side 1    Res =  0.1022E-01
 MRCHDU: Convergence failed at  88  side 1    Res =  0.2895E-02
 MRCHDU: Convergence failed at  78  side 2    Res =  0.1655E-02
 MRCHDU: Convergence failed at  79  side 2    Res =  0.4430E-02
 MRCHDU: Convergence failed at  80  side 2    Res =  0.6702E-02
 MRCHDU: Convergence failed at  81  side 2    Res =  0.1121E-01
 MRCHDU: Convergence failed at  82  side 2    Res =  0.2260E-01
 MRCHDU: Convergence failed at  83  side 2    Res =  0.5658E-01
 MRCHDU: Convergence failed at  84  side 2    Res =  0.3741E-01
 MRCHDU: Convergence failed at  85  side 2    Res =  0.1014E+00
 MRCHDU: Convergence failed at  95  side 2    Res =  0.2175E-02
 MRCHDU: Convergence failed at  96  side 2    Res =  0.1028E-03
 Side 1  free  transition at x/c =  0.0340   19
 Side 2 forced transition at x/c =  1.0000   74

 148   rms: 0.2656E+07   max: -.2501E+08   T at   88  2   RLX: 0.000
       a = 16.000      CL =  0.6863
      Cm = -0.0776     CD =*********   =>   CDf =  0.00343    CDp =*********

 MRCHDU: Convergence failed at  85  side 1    Res =  0.1357E-01
 MRCHDU: Convergence failed at  86  side 1    Res =  0.1947E-01
 MRCHDU: Convergence failed at  87  side 1    Res =  0.1022E-01
 MRCHDU: Convergence failed at  88  side 1    Res =  0.2895E-02
 MRCHDU: Convergence failed at  78  side 2    Res =  0.1655E-02
 MRCHDU: Convergence failed at  79  side 2    Res =  0.4430E-02
 MRCHDU: Convergence failed at  80  side 2    Res =  0.6702E-02
 MRCHDU: Convergence failed at  81  side 2    Res =  0.1121E-01
 MRCHDU: Convergence failed at  82  side 2    Res =  0.2261E-01
 MRCHDU: Convergence failed at  83  side 2    Res =  0.5633E-01
 MRCHDU: Convergence failed at  84  side 2    Res =  0.3195E-01
 MRCHDU: Convergence failed at  85  side 2    Res =  0.9941E-02
 MRCHDU: Convergence failed at  95  side 2    Res =  0.2003E-02
 MRCHDU: Convergence failed at  96  side 2    Res =  0.1154E-03
 Side 1  free  transition at x/c =  0.0340   19
 Side 2 forced transition at x/c =  1.0000   74

 149   rms: 0.4743E+07   max: -.3313E+08   C at   95  2   RLX: 0.000
       a = 16.000      CL =  0.6863
      Cm = -0.0776     CD =*********   =>   CDf =  0.00343    CDp =*********

 MRCHDU: Convergence failed at  85  side 1    Res =  0.1358E-01
 MRCHDU: Convergence failed at  86  side 1    Res =  0.1947E-01
 MRCHDU: Convergence failed at  87  side 1    Res =  0.1022E-01
 MRCHDU: Convergence failed at  88  side 1    Res =  0.2895E-02
 MRCHDU: Convergence failed at  78  side 2    Res =  0.1655E-02
 MRCHDU: Convergence failed at  79  side 2    Res =  0.4430E-02
 MRCHDU: Convergence failed at  80  side 2    Res =  0.6702E-02
 MRCHDU: Convergence failed at  81  side 2    Res =  0.1121E-01
 MRCHDU: Convergence failed at  82  side 2    Res =  0.2262E-01
 MRCHDU: Convergence failed at  83  side 2    Res =  0.5571E-01
 MRCHDU: Convergence failed at  84  side 2    Res =  0.2769E-01
 MRCHDU: Convergence failed at  85  side 2    Res =  0.7757E-02
 MRCHDU: Convergence failed at  95  side 2    Res =  0.1932E-02
 MRCHDU: Convergence failed at  96  side 2    Res =  0.1181E-03
 Side 1  free  transition at x/c =  0.0340   19
 Side 2 forced transition at x/c =  1.0000   74

 150   rms: 0.3410E+07   max: -.2372E+08   C at   95  2   RLX: 0.000
       a = 16.000      CL =  0.6862
      Cm = -0.0775     CD =*********   =>   CDf =  0.00343    CDp =*********

 MRCHDU: Convergence failed at  85  side 1    Res =  0.1359E-01
 MRCHDU: Convergence failed at  86  side 1    Res =  0.1947E-01
 MRCHDU: Convergence failed at  87  side 1    Res =  0.1022E-01
 MRCHDU: Convergence failed at  88  side 1    Res =  0.2895E-02
 MRCHDU: Convergence failed at  78  side 2    Res =  0.1655E-02
 MRCHDU: Convergence failed at  79  side 2    Res =  0.4431E-02
 MRCHDU: Convergence failed at  80  side 2    Res =  0.6703E-02
 MRCHDU: Convergence failed at  81  side 2    Res =  0.1121E-01
 MRCHDU: Convergence failed at  82  side 2    Res =  0.2264E-01
 MRCHDU: Convergence failed at  83  side 2    Res =  0.5439E-01
 MRCHDU: Convergence failed at  84  side 2    Res =  0.2299E-01
 MRCHDU: Convergence failed at  85  side 2    Res =  0.5847E-02
 MRCHDU: Convergence failed at  95  side 2    Res =  0.1846E-02
 MRCHDU: Convergence failed at  96  side 2    Res =  0.1211E-03
 Side 1  free  transition at x/c =  0.0340   19
 Side 2 forced transition at x/c =  1.0000   74

 151   rms: 0.5610E+07   max: 0.3874E+08   T at   85  2   RLX: 0.000
       a = 16.000      CL =  0.6863
      Cm = -0.0775     CD =*********   =>   CDf =  0.00343    CDp =*********

 MRCHDU: Convergence failed at  85  side 1    Res =  0.1358E-01
 MRCHDU: Convergence failed at  86  side 1    Res =  0.1947E-01
 MRCHDU: Convergence failed at  87  side 1    Res =  0.1022E-01
 MRCHDU: Convergence failed at  88  side 1    Res =  0.2895E-02
 MRCHDU: Convergence failed at  78  side 2    Res =  0.1655E-02
 MRCHDU: Convergence failed at  79  side 2    Res =  0.4430E-02
 MRCHDU: Convergence failed at  80  side 2    Res =  0.6702E-02
 MRCHDU: Convergence failed at  81  side 2    Res =  0.1121E-01
 MRCHDU: Convergence failed at  82  side 2    Res =  0.2262E-01
 MRCHDU: Convergence failed at  83  side 2    Res =  0.5559E-01
 MRCHDU: Convergence failed at  84  side 2    Res =  0.2586E-01
 MRCHDU: Convergence failed at  85  side 2    Res =  0.6826E-02
 MRCHDU: Convergence failed at  95  side 2    Res =  0.1890E-02
 MRCHDU: Convergence failed at  96  side 2    Res =  0.1196E-03
 Side 1  free  transition at x/c =  0.0340   19
 Side 2 forced transition at x/c =  1.0000   74

 152   rms: 0.6064E+07   max: -.4210E+08   C at   95  2   RLX: 0.000
       a = 16.000      CL =  0.6862
      Cm = -0.0775     CD =*********   =>   CDf =  0.00343    CDp =*********

 MRCHDU: Convergence failed at  85  side 1    Res =  0.1359E-01
 MRCHDU: Convergence failed at  86  side 1    Res =  0.1947E-01
 MRCHDU: Convergence failed at  87  side 1    Res =  0.1022E-01
 MRCHDU: Convergence failed at  88  side 1    Res =  0.2895E-02
 MRCHDU: Convergence failed at  78  side 2    Res =  0.1655E-02
 MRCHDU: Convergence failed at  79  side 2    Res =  0.4430E-02
 MRCHDU: Convergence failed at  80  side 2    Res =  0.6703E-02
 MRCHDU: Convergence failed at  81  side 2    Res =  0.1121E-01
 MRCHDU: Convergence failed at  82  side 2    Res =  0.2264E-01
 MRCHDU: Convergence failed at  83  side 2    Res =  0.5471E-01
 MRCHDU: Convergence failed at  84  side 2    Res =  0.2328E-01
 MRCHDU: Convergence failed at  85  side 2    Res =  0.5876E-02
 MRCHDU: Convergence failed at  95  side 2    Res =  0.1844E-02
 MRCHDU: Convergence failed at  96  side 2    Res =  0.1211E-03
 Side 1  free  transition at x/c =  0.0340   19
 Side 2 forced transition at x/c =  1.0000   74

 153   rms: 0.7718E+06   max: 0.5333E+07   C at   95  2   RLX: 0.000
       a = 16.000      CL =  0.6864
      Cm = -0.0776     CD =*********   =>   CDf =  0.00343    CDp =*********

 MRCHDU: Convergence failed at  85  side 1    Res =  0.1355E-01
 MRCHDU: Convergence failed at  86  side 1    Res =  0.1947E-01
 MRCHDU: Convergence failed at  87  side 1    Res =  0.1022E-01
 MRCHDU: Convergence failed at  88  side 1    Res =  0.2895E-02
 MRCHDU: Convergence failed at  78  side 2    Res =  0.1654E-02
 MRCHDU: Convergence failed at  79  side 2    Res =  0.4429E-02
 MRCHDU: Convergence failed at  80  side 2    Res =  0.6699E-02
 MRCHDU: Convergence failed at  81  side 2    Res =  0.1120E-01
 MRCHDU: Convergence failed at  82  side 2    Res =  0.2250E-01
 MRCHDU: Convergence failed at  83  side 2    Res =  0.6453E-01
 MRCHDU: Convergence failed at  84  side 2    Res =  0.9155E-01
 MRCHDU: Convergence failed at  85  side 2    Res =  0.3175E-01
 MRCHDU: Convergence failed at  95  side 2    Res =  0.2135E-02
 MRCHDU: Convergence failed at  96  side 2    Res =  0.1108E-03
 Side 1  free  transition at x/c =  0.0340   19
 Side 2 forced transition at x/c =  1.0000   74

 154   rms: 0.6043E+07   max: -.4299E+08   C at   95  2   RLX: 0.000
       a = 16.000      CL =  0.6864
      Cm = -0.0776     CD =*********   =>   CDf =  0.00343    CDp =*********

 MRCHDU: Convergence failed at  85  side 1    Res =  0.1356E-01
 MRCHDU: Convergence failed at  86  side 1    Res =  0.1947E-01
 MRCHDU: Convergence failed at  87  side 1    Res =  0.1022E-01
 MRCHDU: Convergence failed at  88  side 1    Res =  0.2895E-02
 MRCHDU: Convergence failed at  78  side 2    Res =  0.1654E-02
 MRCHDU: Convergence failed at  79  side 2    Res =  0.4429E-02
 MRCHDU: Convergence failed at  80  side 2    Res =  0.6699E-02
 MRCHDU: Convergence failed at  81  side 2    Res =  0.1120E-01
 MRCHDU: Convergence failed at  82  side 2    Res =  0.2248E-01
 MRCHDU: Convergence failed at  83  side 2    Res =  0.6518E-01
 MRCHDU: Convergence failed at  84  side 2    Res =  0.8443E-01
 MRCHDU: Convergence failed at  85  side 2    Res =  0.1659E-01
 MRCHDU: Convergence failed at  95  side 2    Res =  0.2039E-02
 MRCHDU: Convergence failed at  96  side 2    Res =  0.1163E-03
 Side 1  free  transition at x/c =  0.0340   19
 Side 2 forced transition at x/c =  1.0000   74

 155   rms: 0.2502E+07   max: -.1789E+08   C at   95  2   RLX: 0.000
       a = 16.000      CL =  0.6863
      Cm = -0.0776     CD =*********   =>   CDf =  0.00343    CDp =*********
 VISCAL:  Convergence failed

 Sequence halted since previous  4 points did not converge
 Last-converged  alpha =  15.000    CL =   0.92318

.OPERva   c>  
 Polar accumulation disabled

.OPERv   c>  
 XFOIL   c>  
 XFOIL   c>  