
 ===================================================
  XFOIL Version 6.99
  Copyright (C) 2000   Mark Drela, Harold Youngren

  This software comes with ABSOLUTELY NO WARRANTY,
    subject to the GNU General Public License.

  Caveat computor
 ===================================================

 File  xfoil.def  not found

   QUIT    Exit program

  .OPER    Direct operating point(s)
  .MDES    Complex mapping design routine
  .QDES    Surface speed design routine
  .GDES    Geometry design routine

   SAVE f  Write airfoil to labeled coordinate file
   PSAV f  Write airfoil to plain coordinate file
   ISAV f  Write airfoil to ISES coordinate file
   MSAV f  Write airfoil to MSES coordinate file
   REVE    Reverse written-airfoil node ordering

   LOAD f  Read buffer airfoil from coordinate file
   NACA i  Set NACA 4,5-digit airfoil and buffer airfoil
   INTE    Set buffer airfoil by interpolating two airfoils
   NORM    Buffer airfoil normalization toggle
   XYCM rr Change CM reference location, currently  0.25000 0.00000

   BEND    Display structural properties of current airfoil

   PCOP    Set current-airfoil panel nodes directly from buffer airfoil points
   PANE    Set current-airfoil panel nodes ( 160 ) based on curvature
  .PPAR    Show/change paneling

  .PLOP    Plotting options

   WDEF f  Write  current-settings file
   RDEF f  Reread current-settings file
   NAME s  Specify new airfoil name
   NINC    Increment name version number

   Z       Zoom    | (available in all menus)
   U       Unzoom  | 

 XFOIL   c>  
 Labeled airfoil file.  Name:  RG 15A-1.8/11.0 AIRFOIL                         

 Number of input coordinate points:  63
 Counterclockwise ordering
 Max thickness =     0.109975  at x =   0.304
 Max camber    =     0.017486  at x =   0.397

  LE  x,y  =  -0.00005   0.00079  |   Chord =   1.00005
  TE  x,y  =   1.00000   0.00000  |

 Current airfoil nodes set from buffer airfoil nodes (  63 )

 WARNING: Poor input coordinate distribution
          Excessive panel angle   48.5  at i =  32
          Repaneling with PANE and/or PPAR suggested
           (doing GDES,CADD before repaneling _may_
            improve excessively coarse LE spacing

 XFOIL   c>  
 XFOIL   c>  
 Sharp trailing edge

 Paneling parameters used...
   Number of panel nodes       160
   Panel bunching parameter    1.000
   TE/LE panel density ratio   0.150
   Refined-area/LE panel density ratio    0.200
   Top    side refined area x/c limits  1.000 1.000
   Bottom side refined area x/c limits  1.000 1.000

 XFOIL   c>  
.OPERi   c>  
 Xtr/c     =  1.0000    top    side
 Xtr/c     =  1.0000    bottom side
 Ncrit     =    9.00   ( 0.070 % turb. level )
 Vacc      =  0.0100

 Klag  =  5.6000     Uxwt  =    1.00
 A     =  6.7000     B     =  0.7500       KCt = 0.01485
 CtiniK=  1.8000     CtiniX=  3.3000

..VPAR   c>  
..VPAR   c>  
.OPERi   c>  
 M  =    0.0000
 Re =    600000

.OPERv   c>  
.OPERv   c>  
.OPERv   c>  
 Polar  1 newly created for accumulation
 Airfoil archived with polar: RG 15A-1.8/11.0 AIRFOIL                         

Enter  polar save filename  OR  <return> for no file   s>  
 New polar save file available

Enter  polar dump filename  OR  <return> for no file   s>  
 Polar dump file will NOT be written

 Polar accumulation enabled

.OPERva   c>   Calculating unit vorticity distributions ...
 Calculating wake trajectory ...
 Calculating source influence matrix ...

 Solving BL system ...

 Initializing BL ...
    side            1  ...
 MRCHUE: Inverse mode at  62     Hk =   4.218
 MRCHUE: Inverse mode at  63     Hk =   4.764
 MRCHUE: Inverse mode at  64     Hk =   5.303
 MRCHUE: Inverse mode at  65     Hk =   5.836
 MRCHUE: Inverse mode at  66     Hk =   6.364
 MRCHUE: Inverse mode at  67     Hk =   6.888
 MRCHUE: Inverse mode at  68     Hk =   7.409
 MRCHUE: Inverse mode at  69     Hk =   7.254
 MRCHUE: Inverse mode at  70     Hk =   4.915
 MRCHUE: Inverse mode at  71     Hk =   3.411
    side            2  ...
 MRCHUE: Inverse mode at  14     Hk =   4.444
 MRCHUE: Inverse mode at  15     Hk =   5.827
 MRCHUE: Inverse mode at  16     Hk =   7.300
 MRCHUE: Inverse mode at  17     Hk =   8.956
 MRCHUE: Inverse mode at  18     Hk =   7.234
 MRCHUE: Inverse mode at  19     Hk =   2.500

 Side 1  free  transition at x/c =  0.8967   69
 Side 2  free  transition at x/c =  0.0374   18

   1   rms: 0.1727E+00   max: -.1603E+01   T at   18  2   RLX: 0.312
       a = -4.000      CL = -0.1600
      Cm = -0.0629     CD =  0.00983   =>   CDf =  0.00621    CDp =  0.00362

 MRCHDU: Convergence failed at  71  side 1    Res =  0.1222E+01
 Side 1  free  transition at x/c =  0.9111   70
 Side 2  free  transition at x/c =  0.0484   19

   2   rms: 0.2030E+00   max: -.2520E+01   T at   19  2   RLX: 0.198
       a = -4.000      CL = -0.1553
      Cm = -0.0652     CD =  0.00890   =>   CDf =  0.00619    CDp =  0.00270

 Side 1  free  transition at x/c =  0.9161   71
 Side 2  free  transition at x/c =  0.0679   21

   3   rms: 0.5218E+00   max: -.1070E+02   C at   21  2   RLX: 0.047
       a = -4.000      CL = -0.1562
      Cm = -0.0636     CD =  0.00885   =>   CDf =  0.00615    CDp =  0.00270

 Side 1  free  transition at x/c =  0.9173   71
 Side 2  free  transition at x/c =  0.0731   21

   4   rms: 0.1502E+00   max: -.1469E+01   T at   21  2   RLX: 0.340
       a = -4.000      CL = -0.1590
      Cm = -0.0628     CD =  0.00859   =>   CDf =  0.00609    CDp =  0.00250

 Side 1  free  transition at x/c =  0.9271   71
 Side 2  free  transition at x/c =  0.1364   26

   5   rms: 0.1651E+00   max: -.2735E+01   C at   26  2   RLX: 0.183
       a = -4.000      CL = -0.1609
      Cm = -0.0652     CD =  0.00834   =>   CDf =  0.00581    CDp =  0.00253

 Side 1  free  transition at x/c =  0.9362   72
 Side 2  free  transition at x/c =  0.1448   27
 idif Ue xi dudx           1  0.17893374      2.93028355E-03   61.063625    
 Uenew xinew           2  3.90901184E-03  6.40153885E-05

   6   rms: 0.7698E-01   max: 0.7338E+00   D at   27  2   RLX: 0.853
       a = -4.000      CL = -0.1809
      Cm = -0.0599     CD =  0.00818   =>   CDf =  0.00561    CDp =  0.00257

 Side 1  free  transition at x/c =  0.9388   71
 Side 2  free  transition at x/c =  0.1574   28

   7   rms: 0.3374E-01   max: -.3825E+00   T at    2  2
       a = -4.000      CL = -0.1693
      Cm = -0.0621     CD =  0.00842   =>   CDf =  0.00567    CDp =  0.00275

 Side 1  free  transition at x/c =  0.9430   73
 Side 2  free  transition at x/c =  0.1663   28

   8   rms: 0.9602E-02   max: 0.1468E+00   C at   28  2
       a = -4.000      CL = -0.1686
      Cm = -0.0623     CD =  0.00839   =>   CDf =  0.00552    CDp =  0.00286

 Side 1  free  transition at x/c =  0.9440   73
 Side 2  free  transition at x/c =  0.1613   28

   9   rms: 0.6687E-03   max: 0.4566E-02   D at    4  1
       a = -4.000      CL = -0.1689
      Cm = -0.0622     CD =  0.00840   =>   CDf =  0.00554    CDp =  0.00285

 Side 1  free  transition at x/c =  0.9439   73
 Side 2  free  transition at x/c =  0.1613   28

  10   rms: 0.5816E-05   max: -.2944E-04   T at   74  1
       a = -4.000      CL = -0.1689
      Cm = -0.0622     CD =  0.00840   =>   CDf =  0.00554    CDp =  0.00285
 plradd ia,ip,cpol            1           0  4.15166048E-03

 Point added to stored polar  1
 Point written to save file  rg15a111_Re600k.base.pol                        
 Dump file unspecified or not available
 Calculating wake trajectory ...
 Calculating source influence matrix ...

 Solving BL system ...

 Side 1  free  transition at x/c =  0.9439   73
 Side 2  free  transition at x/c =  0.1613   28

   1   rms: 0.2059E+00   max: -.2941E+01   C at   28  2   RLX: 0.170
       a = -3.500      CL = -0.1570
      Cm = -0.0628     CD =  0.00821   =>   CDf =  0.00555    CDp =  0.00267

 Side 1  free  transition at x/c =  0.9427   72
 Side 2  free  transition at x/c =  0.1723   28

   2   rms: 0.7253E-01   max: -.4020E+00   C at   28  2
       a = -3.500      CL = -0.1313
      Cm = -0.0581     CD =  0.00810   =>   CDf =  0.00552    CDp =  0.00258

 Side 1  free  transition at x/c =  0.9124   70
 Side 2  free  transition at x/c =  0.2306   32

   3   rms: 0.5773E-01   max: 0.4259E+00   D at   28  2
       a = -3.500      CL = -0.0902
      Cm = -0.0670     CD =  0.00776   =>   CDf =  0.00547    CDp =  0.00228

 MRCHDU: Convergence failed at  73  side 1    Res =  0.1767E+01
 MRCHDU: Convergence failed at  74  side 1    Res =  0.1383E+01
 MRCHDU: Convergence failed at  75  side 1    Res =  0.2131E+01
 MRCHDU: Convergence failed at  76  side 1    Res =  0.2628E+01
 MRCHDU: Convergence failed at  77  side 1    Res =  0.4440E+01
 Side 1  free  transition at x/c =  0.9463   73
 Side 2  free  transition at x/c =  0.2824   36

   4   rms: 0.1139E+00   max: 0.8215E+00   T at   77  1
       a = -3.500      CL = -0.1298
      Cm = -0.0587     CD =  0.00724   =>   CDf =  0.00512    CDp =  0.00212

 Side 1  free  transition at x/c =  0.9151   71
 Side 2  free  transition at x/c =  0.2393   33

   5   rms: 0.5417E-01   max: -.5901E+00   C at   33  2   RLX: 0.847
       a = -3.500      CL = -0.1008
      Cm = -0.0650     CD =  0.00756   =>   CDf =  0.00535    CDp =  0.00222

 Side 1  free  transition at x/c =  0.9336   72
 Side 2  free  transition at x/c =  0.2570   34

   6   rms: 0.1599E-01   max: 0.1501E+00   C at   72  1
       a = -3.500      CL = -0.1051
      Cm = -0.0641     CD =  0.00760   =>   CDf =  0.00520    CDp =  0.00240

 Side 1  free  transition at x/c =  0.9302   72
 Side 2  free  transition at x/c =  0.2527   34

   7   rms: 0.3632E-02   max: -.3900E-01   D at   77  1
       a = -3.500      CL = -0.1065
      Cm = -0.0638     CD =  0.00763   =>   CDf =  0.00522    CDp =  0.00240

 Side 1  free  transition at x/c =  0.9294   72
 Side 2  free  transition at x/c =  0.2519   34

   8   rms: 0.2091E-03   max: 0.2736E-02   C at   34  2
       a = -3.500      CL = -0.1066
      Cm = -0.0638     CD =  0.00763   =>   CDf =  0.00523    CDp =  0.00240

 Side 1  free  transition at x/c =  0.9293   72
 Side 2  free  transition at x/c =  0.2518   34

   9   rms: 0.2256E-05   max: -.9120E-05   C at   34  2
       a = -3.500      CL = -0.1066
      Cm = -0.0638     CD =  0.00763   =>   CDf =  0.00523    CDp =  0.00239
 plradd ia,ip,cpol            2           0  6.35561068E-03

 Point added to stored polar  1
 Point written to save file  rg15a111_Re600k.base.pol                        
 Dump file unspecified or not available
 Calculating wake trajectory ...
 Calculating source influence matrix ...

 Solving BL system ...

 Side 1  free  transition at x/c =  0.9293   72
 Side 2  free  transition at x/c =  0.2518   34

   1   rms: 0.2045E+00   max: -.3604E+01   C at   34  2   RLX: 0.139
       a = -3.000      CL = -0.0970
      Cm = -0.0642     CD =  0.00751   =>   CDf =  0.00523    CDp =  0.00228

 Side 1  free  transition at x/c =  0.9278   71
 Side 2  free  transition at x/c =  0.2618   35

   2   rms: 0.1313E+00   max: -.1858E+01   C at   35  2   RLX: 0.269
       a = -3.000      CL = -0.0875
      Cm = -0.0635     CD =  0.00740   =>   CDf =  0.00522    CDp =  0.00218

 Side 1  free  transition at x/c =  0.9194   71
 Side 2  free  transition at x/c =  0.2763   36

   3   rms: 0.1256E+00   max: -.1812E+01   C at   36  2   RLX: 0.276
       a = -3.000      CL = -0.0770
      Cm = -0.0634     CD =  0.00732   =>   CDf =  0.00520    CDp =  0.00212

 Side 1  free  transition at x/c =  0.9165   71
 Side 2  free  transition at x/c =  0.2913   37

   4   rms: 0.1111E+00   max: -.1735E+01   C at   37  2   RLX: 0.288
       a = -3.000      CL = -0.0682
      Cm = -0.0638     CD =  0.00723   =>   CDf =  0.00522    CDp =  0.00201

 Side 1  free  transition at x/c =  0.9147   72
 Side 2  free  transition at x/c =  0.3057   36

   5   rms: 0.2113E+00   max: -.3430E+01   T at    2  1   RLX: 0.146
       a = -3.000      CL = -0.0644
      Cm = -0.0640     CD =  0.00724   =>   CDf =  0.00511    CDp =  0.00213

 Side 1  free  transition at x/c =  0.9142   72
 Side 2  free  transition at x/c =  0.3118   37

   6   rms: 0.9297E-01   max: -.1800E+01   C at   37  2   RLX: 0.278
       a = -3.000      CL = -0.0595
      Cm = -0.0642     CD =  0.00713   =>   CDf =  0.00508    CDp =  0.00205

 Side 1  free  transition at x/c =  0.9134   71
 Side 2  free  transition at x/c =  0.3222   38

   7   rms: 0.6996E-01   max: -.1283E+01   C at   38  2   RLX: 0.390
       a = -3.000      CL = -0.0557
      Cm = -0.0642     CD =  0.00705   =>   CDf =  0.00505    CDp =  0.00200

 Side 1  free  transition at x/c =  0.9112   71
 Side 2  free  transition at x/c =  0.3350   38

   8   rms: 0.4301E-01   max: -.8826E+00   C at   38  2   RLX: 0.566
       a = -3.000      CL = -0.0518
      Cm = -0.0642     CD =  0.00702   =>   CDf =  0.00501    CDp =  0.00202

 Side 1  free  transition at x/c =  0.9096   71
 Side 2  free  transition at x/c =  0.3538   40

   9   rms: 0.2683E-01   max: -.5277E+00   C at   40  2   RLX: 0.947
       a = -3.000      CL = -0.0497
      Cm = -0.0642     CD =  0.00689   =>   CDf =  0.00493    CDp =  0.00196

 Side 1  free  transition at x/c =  0.9085   71
 Side 2  free  transition at x/c =  0.3651   40

  10   rms: 0.8551E-02   max: -.1787E+00   C at   40  2
       a = -3.000      CL = -0.0493
      Cm = -0.0643     CD =  0.00691   =>   CDf =  0.00490    CDp =  0.00201

 Side 1  free  transition at x/c =  0.9086   71
 Side 2  free  transition at x/c =  0.3703   41

  11   rms: 0.6180E-03   max: -.8076E-02   D at   42  2
       a = -3.000      CL = -0.0495
      Cm = -0.0642     CD =  0.00690   =>   CDf =  0.00487    CDp =  0.00203

 Side 1  free  transition at x/c =  0.9085   71
 Side 2  free  transition at x/c =  0.3699   41

  12   rms: 0.7747E-05   max: -.1554E-03   C at   41  2
       a = -3.000      CL = -0.0495
      Cm = -0.0642     CD =  0.00690   =>   CDf =  0.00487    CDp =  0.00203
 plradd ia,ip,cpol            3           0  6.35561068E-03

 Point added to stored polar  1
 Point written to save file  rg15a111_Re600k.base.pol                        
 Dump file unspecified or not available
 Calculating wake trajectory ...
 Calculating source influence matrix ...

 Solving BL system ...

 Side 1  free  transition at x/c =  0.9085   71
 Side 2  free  transition at x/c =  0.3699   41

   1   rms: 0.2311E+00   max: -.4301E+01   C at   41  2   RLX: 0.116
       a = -2.500      CL = -0.0433
      Cm = -0.0642     CD =  0.00681   =>   CDf =  0.00487    CDp =  0.00194

 Side 1  free  transition at x/c =  0.9055   71
 Side 2  free  transition at x/c =  0.3810   42

   2   rms: 0.2016E+00   max: -.3464E+01   C at   42  2   RLX: 0.144
       a = -2.500      CL = -0.0357
      Cm = -0.0643     CD =  0.00673   =>   CDf =  0.00486    CDp =  0.00188

 Side 1  free  transition at x/c =  0.9026   71
 Side 2  free  transition at x/c =  0.3941   42

   3   rms: 0.1634E+00   max: -.3054E+01   C at   42  2   RLX: 0.164
       a = -2.500      CL = -0.0280
      Cm = -0.0644     CD =  0.00670   =>   CDf =  0.00482    CDp =  0.00188

 Side 1  free  transition at x/c =  0.9002   71
 Side 2  free  transition at x/c =  0.4098   44

   4   rms: 0.1655E+00   max: -.2845E+01   C at   44  2   RLX: 0.176
       a = -2.500      CL = -0.0214
      Cm = -0.0645     CD =  0.00659   =>   CDf =  0.00479    CDp =  0.00180

 Side 1  free  transition at x/c =  0.8983   70
 Side 2  free  transition at x/c =  0.4236   44

   5   rms: 0.1352E+00   max: -.2629E+01   C at   44  2   RLX: 0.190
       a = -2.500      CL = -0.0165
      Cm = -0.0644     CD =  0.00655   =>   CDf =  0.00474    CDp =  0.00182

 Side 1  free  transition at x/c =  0.8951   70
 Side 2  free  transition at x/c =  0.4377   45

   6   rms: 0.1222E+00   max: -.2382E+01   C at   45  2   RLX: 0.210
       a = -2.500      CL = -0.0121
      Cm = -0.0643     CD =  0.00648   =>   CDf =  0.00469    CDp =  0.00179

 Side 1  free  transition at x/c =  0.8926   70
 Side 2  free  transition at x/c =  0.4533   46

   7   rms: 0.1037E+00   max: -.2017E+01   C at   46  2   RLX: 0.248
       a = -2.500      CL = -0.0078
      Cm = -0.0642     CD =  0.00641   =>   CDf =  0.00464    CDp =  0.00177

 Side 1  free  transition at x/c =  0.8905   70
 Side 2  free  transition at x/c =  0.4704   48

   8   rms: 0.9082E-01   max: -.1702E+01   C at   48  2   RLX: 0.294
       a = -2.500      CL = -0.0043
      Cm = -0.0642     CD =  0.00631   =>   CDf =  0.00459    CDp =  0.00172

 Side 1  free  transition at x/c =  0.8888   70
 Side 2  free  transition at x/c =  0.4835   48

   9   rms: 0.5760E-01   max: -.1110E+01   C at   48  2   RLX: 0.450
       a = -2.500      CL =  0.0003
      Cm = -0.0642     CD =  0.00628   =>   CDf =  0.00455    CDp =  0.00173

 Side 1  free  transition at x/c =  0.8871   70
 Side 2  free  transition at x/c =  0.5064   50

  10   rms: 0.3903E-01   max: -.7550E+00   C at   50  2   RLX: 0.662
       a = -2.500      CL =  0.0032
      Cm = -0.0641     CD =  0.00617   =>   CDf =  0.00446    CDp =  0.00171

 Side 1  free  transition at x/c =  0.8858   70
 Side 2  free  transition at x/c =  0.5217   51

  11   rms: 0.1403E-01   max: -.2714E+00   C at   51  2
       a = -2.500      CL =  0.0049
      Cm = -0.0641     CD =  0.00614   =>   CDf =  0.00442    CDp =  0.00173

 Side 1  free  transition at x/c =  0.8853   70
 Side 2  free  transition at x/c =  0.5310   52

  12   rms: 0.1884E-02   max: -.3731E-01   C at   52  2
       a = -2.500      CL =  0.0049
      Cm = -0.0641     CD =  0.00614   =>   CDf =  0.00439    CDp =  0.00175

 Side 1  free  transition at x/c =  0.8853   70
 Side 2  free  transition at x/c =  0.5319   52

  13   rms: 0.1825E-04   max: -.3590E-03   C at   52  2
       a = -2.500      CL =  0.0049
      Cm = -0.0641     CD =  0.00614   =>   CDf =  0.00439    CDp =  0.00176
 plradd ia,ip,cpol            4           0  6.35561068E-03

 Point added to stored polar  1
 Point written to save file  rg15a111_Re600k.base.pol                        
 Dump file unspecified or not available
 Calculating wake trajectory ...
 Calculating source influence matrix ...

 Solving BL system ...

 Side 1  free  transition at x/c =  0.8853   70
 Side 2  free  transition at x/c =  0.5319   52

   1   rms: 0.2704E+00   max: -.4957E+01   C at   52  2   RLX: 0.101
       a = -2.000      CL =  0.0105
      Cm = -0.0641     CD =  0.00607   =>   CDf =  0.00439    CDp =  0.00168

 Side 1  free  transition at x/c =  0.8833   69
 Side 2  free  transition at x/c =  0.5441   53

   2   rms: 0.1982E+00   max: -.3464E+01   C at   53  2   RLX: 0.144
       a = -2.000      CL =  0.0170
      Cm = -0.0640     CD =  0.00602   =>   CDf =  0.00436    CDp =  0.00165

 Side 1  free  transition at x/c =  0.8790   69
 Side 2  free  transition at x/c =  0.5566   53

   3   rms: 0.1227E+00   max: -.2038E+01   C at   53  2   RLX: 0.245
       a = -2.000      CL =  0.0274
      Cm = -0.0639     CD =  0.00601   =>   CDf =  0.00439    CDp =  0.00162

 Side 1  free  transition at x/c =  0.8734   70
 Side 2  free  transition at x/c =  0.5842   54

   4   rms: 0.1154E+00   max: -.1540E+01   C at   54  2   RLX: 0.325
       a = -2.000      CL =  0.0371
      Cm = -0.0635     CD =  0.00594   =>   CDf =  0.00426    CDp =  0.00168

 Side 1  free  transition at x/c =  0.8692   69
 Side 2  free  transition at x/c =  0.6096   56

   5   rms: 0.4081E-01   max: -.3607E+00   C at   56  2
       a = -2.000      CL =  0.0573
      Cm = -0.0631     CD =  0.00590   =>   CDf =  0.00421    CDp =  0.00169

 Side 1  free  transition at x/c =  0.8562   69
 Side 2  free  transition at x/c =  0.6431   58

   6   rms: 0.9600E-02   max: -.1041E+00   C at   69  1
       a = -2.000      CL =  0.0580
      Cm = -0.0632     CD =  0.00586   =>   CDf =  0.00420    CDp =  0.00167

 Side 1  free  transition at x/c =  0.8591   69
 Side 2  free  transition at x/c =  0.6373   58

   7   rms: 0.1299E-02   max: -.1777E-01   C at   58  2
       a = -2.000      CL =  0.0581
      Cm = -0.0632     CD =  0.00588   =>   CDf =  0.00419    CDp =  0.00170

 Side 1  free  transition at x/c =  0.8589   69
 Side 2  free  transition at x/c =  0.6378   58

   8   rms: 0.1543E-04   max: -.2226E-03   D at   60  2
       a = -2.000      CL =  0.0581
      Cm = -0.0632     CD =  0.00588   =>   CDf =  0.00418    CDp =  0.00170
 plradd ia,ip,cpol            5           0  3.01816687E-02

 Point added to stored polar  1
 Point written to save file  rg15a111_Re600k.base.pol                        
 Dump file unspecified or not available
 Calculating wake trajectory ...
 Calculating source influence matrix ...

 Solving BL system ...

 Side 1  free  transition at x/c =  0.8589   69
 Side 2  free  transition at x/c =  0.6378   58

   1   rms: 0.1147E+00   max: -.1094E+01   C at   58  2   RLX: 0.457
       a = -1.500      CL =  0.0833
      Cm = -0.0629     CD =  0.00585   =>   CDf =  0.00418    CDp =  0.00167

 Side 1  free  transition at x/c =  0.8470   68
 Side 2  free  transition at x/c =  0.6591   59

   2   rms: 0.5234E-01   max: -.2634E+00   T at   59  2
       a = -1.500      CL =  0.1134
      Cm = -0.0627     CD =  0.00598   =>   CDf =  0.00428    CDp =  0.00170

 Side 1  free  transition at x/c =  0.8297   68
 Side 2  free  transition at x/c =  0.6895   60

   3   rms: 0.1236E-01   max: -.1611E+00   C at   60  2
       a = -1.500      CL =  0.1122
      Cm = -0.0624     CD =  0.00586   =>   CDf =  0.00427    CDp =  0.00159

 Side 1  free  transition at x/c =  0.8316   68
 Side 2  free  transition at x/c =  0.6875   60

   4   rms: 0.9660E-03   max: 0.1093E-01   C at   68  1
       a = -1.500      CL =  0.1122
      Cm = -0.0624     CD =  0.00586   =>   CDf =  0.00421    CDp =  0.00166

 Side 1  free  transition at x/c =  0.8313   68
 Side 2  free  transition at x/c =  0.6876   60

   5   rms: 0.3790E-05   max: -.3964E-04   D at   70  1
       a = -1.500      CL =  0.1122
      Cm = -0.0624     CD =  0.00587   =>   CDf =  0.00421    CDp =  0.00166
 plradd ia,ip,cpol            6           0  3.01816687E-02

 Point added to stored polar  1
 Point written to save file  rg15a111_Re600k.base.pol                        
 Dump file unspecified or not available
 Calculating wake trajectory ...
 Calculating source influence matrix ...

 Solving BL system ...

 Side 1  free  transition at x/c =  0.8313   68
 Side 2  free  transition at x/c =  0.6876   60

   1   rms: 0.9145E-01   max: 0.2775E+00   D at   61  2
       a = -1.000      CL =  0.1672
      Cm = -0.0618     CD =  0.00596   =>   CDf =  0.00421    CDp =  0.00175

 Side 1  free  transition at x/c =  0.8012   66
 Side 2  free  transition at x/c =  0.7137   62

   2   rms: 0.1592E-01   max: 0.2501E+00   D at   67  1
       a = -1.000      CL =  0.1660
      Cm = -0.0616     CD =  0.00591   =>   CDf =  0.00432    CDp =  0.00159

 Side 1  free  transition at x/c =  0.8035   66
 Side 2  free  transition at x/c =  0.7172   62

   3   rms: 0.2711E-02   max: 0.3443E-01   C at   66  1
       a = -1.000      CL =  0.1663
      Cm = -0.0617     CD =  0.00591   =>   CDf =  0.00428    CDp =  0.00163

 Side 1  free  transition at x/c =  0.8026   66
 Side 2  free  transition at x/c =  0.7180   62

   4   rms: 0.2784E-04   max: -.2625E-03   D at   64  2
       a = -1.000      CL =  0.1663
      Cm = -0.0617     CD =  0.00591   =>   CDf =  0.00429    CDp =  0.00162
 plradd ia,ip,cpol            7           0  0.21104683    

 Point added to stored polar  1
 Point written to save file  rg15a111_Re600k.base.pol                        
 Dump file unspecified or not available
 Calculating wake trajectory ...
 Calculating source influence matrix ...

 Solving BL system ...

 Side 1  free  transition at x/c =  0.8026   66
 Side 2  free  transition at x/c =  0.7180   62

   1   rms: 0.8814E-01   max: -.2718E+00   T at   62  2
       a = -0.500      CL =  0.2208
      Cm = -0.0610     CD =  0.00604   =>   CDf =  0.00430    CDp =  0.00174

 Side 1  free  transition at x/c =  0.7711   65
 Side 2  free  transition at x/c =  0.7431   63

   2   rms: 0.1727E-01   max: 0.2520E+00   D at   66  1
       a = -0.500      CL =  0.2198
      Cm = -0.0608     CD =  0.00598   =>   CDf =  0.00439    CDp =  0.00159

 Side 1  free  transition at x/c =  0.7740   65
 Side 2  free  transition at x/c =  0.7431   63

   3   rms: 0.2467E-02   max: 0.4067E-01   C at   65  1
       a = -0.500      CL =  0.2199
      Cm = -0.0608     CD =  0.00597   =>   CDf =  0.00435    CDp =  0.00162

 Side 1  free  transition at x/c =  0.7729   65
 Side 2  free  transition at x/c =  0.7429   63

   4   rms: 0.1827E-04   max: -.2621E-03   D at   65  1
       a = -0.500      CL =  0.2199
      Cm = -0.0608     CD =  0.00597   =>   CDf =  0.00436    CDp =  0.00161
 plradd ia,ip,cpol            8           0  0.18269023    

 Point added to stored polar  1
 Point written to save file  rg15a111_Re600k.base.pol                        
 Dump file unspecified or not available
 Calculating wake trajectory ...
 Calculating source influence matrix ...

 Solving BL system ...

 Side 1  free  transition at x/c =  0.7729   65
 Side 2  free  transition at x/c =  0.7429   63

   1   rms: 0.8978E-01   max: 0.2861E+00   D at   64  2
       a =  0.000      CL =  0.2732
      Cm = -0.0599     CD =  0.00608   =>   CDf =  0.00436    CDp =  0.00172

 Side 1  free  transition at x/c =  0.7401   64
 Side 2  free  transition at x/c =  0.7600   63

   2   rms: 0.1966E-01   max: 0.2635E+00   D at   65  1
       a =  0.000      CL =  0.2733
      Cm = -0.0600     CD =  0.00608   =>   CDf =  0.00453    CDp =  0.00155

 Side 1  free  transition at x/c =  0.7435   64
 Side 2  free  transition at x/c =  0.7651   63

   3   rms: 0.3624E-02   max: 0.5275E-01   C at   64  1
       a =  0.000      CL =  0.2735
      Cm = -0.0600     CD =  0.00608   =>   CDf =  0.00446    CDp =  0.00162

 Side 1  free  transition at x/c =  0.7422   64
 Side 2  free  transition at x/c =  0.7650   63

   4   rms: 0.6019E-02   max: -.9338E-01   C at   63  2
       a =  0.000      CL =  0.2735
      Cm = -0.0600     CD =  0.00608   =>   CDf =  0.00449    CDp =  0.00159

 Side 1  free  transition at x/c =  0.7422   64
 Side 2  free  transition at x/c =  0.7652   63

   5   rms: 0.5721E-02   max: -.9174E-01   C at   63  2
       a =  0.000      CL =  0.2735
      Cm = -0.0600     CD =  0.00608   =>   CDf =  0.00449    CDp =  0.00159

 Side 1  free  transition at x/c =  0.7422   64
 Side 2  free  transition at x/c =  0.7651   63

   6   rms: 0.5769E-02   max: -.9201E-01   C at   63  2
       a =  0.000      CL =  0.2735
      Cm = -0.0600     CD =  0.00608   =>   CDf =  0.00449    CDp =  0.00159

 Side 1  free  transition at x/c =  0.7422   64
 Side 2  free  transition at x/c =  0.7651   63

   7   rms: 0.5761E-02   max: -.9197E-01   C at   63  2
       a =  0.000      CL =  0.2735
      Cm = -0.0600     CD =  0.00608   =>   CDf =  0.00449    CDp =  0.00159

 Side 1  free  transition at x/c =  0.7422   64
 Side 2  free  transition at x/c =  0.7651   63

   8   rms: 0.5762E-02   max: -.9198E-01   C at   63  2
       a =  0.000      CL =  0.2735
      Cm = -0.0600     CD =  0.00608   =>   CDf =  0.00449    CDp =  0.00159

 Side 1  free  transition at x/c =  0.7422   64
 Side 2  free  transition at x/c =  0.7651   63

   9   rms: 0.5762E-02   max: -.9198E-01   C at   63  2
       a =  0.000      CL =  0.2735
      Cm = -0.0600     CD =  0.00608   =>   CDf =  0.00449    CDp =  0.00159

 Side 1  free  transition at x/c =  0.7422   64
 Side 2  free  transition at x/c =  0.7651   63

  10   rms: 0.5762E-02   max: -.9197E-01   C at   63  2
       a =  0.000      CL =  0.2735
      Cm = -0.0600     CD =  0.00608   =>   CDf =  0.00449    CDp =  0.00159

 Side 1  free  transition at x/c =  0.7422   64
 Side 2  free  transition at x/c =  0.7651   63

  11   rms: 0.5762E-02   max: -.9198E-01   C at   63  2
       a =  0.000      CL =  0.2735
      Cm = -0.0600     CD =  0.00608   =>   CDf =  0.00449    CDp =  0.00159

 Side 1  free  transition at x/c =  0.7422   64
 Side 2  free  transition at x/c =  0.7651   63

  12   rms: 0.5762E-02   max: -.9198E-01   C at   63  2
       a =  0.000      CL =  0.2735
      Cm = -0.0600     CD =  0.00608   =>   CDf =  0.00449    CDp =  0.00159

 Side 1  free  transition at x/c =  0.7422   64
 Side 2  free  transition at x/c =  0.7651   63

  13   rms: 0.5762E-02   max: -.9197E-01   C at   63  2
       a =  0.000      CL =  0.2735
      Cm = -0.0600     CD =  0.00608   =>   CDf =  0.00449    CDp =  0.00159

 Side 1  free  transition at x/c =  0.7422   64
 Side 2  free  transition at x/c =  0.7651   63

  14   rms: 0.5762E-02   max: -.9198E-01   C at   63  2
       a =  0.000      CL =  0.2735
      Cm = -0.0600     CD =  0.00608   =>   CDf =  0.00449    CDp =  0.00159

 Side 1  free  transition at x/c =  0.7422   64
 Side 2  free  transition at x/c =  0.7651   63

  15   rms: 0.5762E-02   max: -.9198E-01   C at   63  2
       a =  0.000      CL =  0.2735
      Cm = -0.0600     CD =  0.00608   =>   CDf =  0.00449    CDp =  0.00159

 Side 1  free  transition at x/c =  0.7422   64
 Side 2  free  transition at x/c =  0.7651   63

  16   rms: 0.5762E-02   max: -.9198E-01   C at   63  2
       a =  0.000      CL =  0.2735
      Cm = -0.0600     CD =  0.00608   =>   CDf =  0.00449    CDp =  0.00159

 Side 1  free  transition at x/c =  0.7422   64
 Side 2  free  transition at x/c =  0.7651   63

  17   rms: 0.5762E-02   max: -.9197E-01   C at   63  2
       a =  0.000      CL =  0.2735
      Cm = -0.0600     CD =  0.00608   =>   CDf =  0.00449    CDp =  0.00159

 Side 1  free  transition at x/c =  0.7422   64
 Side 2  free  transition at x/c =  0.7651   63

  18   rms: 0.5762E-02   max: -.9197E-01   C at   63  2
       a =  0.000      CL =  0.2735
      Cm = -0.0600     CD =  0.00608   =>   CDf =  0.00449    CDp =  0.00159

 Side 1  free  transition at x/c =  0.7422   64
 Side 2  free  transition at x/c =  0.7651   63

  19   rms: 0.5762E-02   max: -.9198E-01   C at   63  2
       a =  0.000      CL =  0.2735
      Cm = -0.0600     CD =  0.00608   =>   CDf =  0.00449    CDp =  0.00159

 Side 1  free  transition at x/c =  0.7422   64
 Side 2  free  transition at x/c =  0.7651   63

  20   rms: 0.5762E-02   max: -.9198E-01   C at   63  2
       a =  0.000      CL =  0.2735
      Cm = -0.0600     CD =  0.00608   =>   CDf =  0.00449    CDp =  0.00159

 Side 1  free  transition at x/c =  0.7422   64
 Side 2  free  transition at x/c =  0.7651   63

  21   rms: 0.5762E-02   max: -.9198E-01   C at   63  2
       a =  0.000      CL =  0.2735
      Cm = -0.0600     CD =  0.00608   =>   CDf =  0.00449    CDp =  0.00159

 Side 1  free  transition at x/c =  0.7422   64
 Side 2  free  transition at x/c =  0.7651   63

  22   rms: 0.5762E-02   max: -.9197E-01   C at   63  2
       a =  0.000      CL =  0.2735
      Cm = -0.0600     CD =  0.00608   =>   CDf =  0.00449    CDp =  0.00159

 Side 1  free  transition at x/c =  0.7422   64
 Side 2  free  transition at x/c =  0.7651   63

  23   rms: 0.5762E-02   max: -.9197E-01   C at   63  2
       a =  0.000      CL =  0.2735
      Cm = -0.0600     CD =  0.00608   =>   CDf =  0.00449    CDp =  0.00159

 Side 1  free  transition at x/c =  0.7422   64
 Side 2  free  transition at x/c =  0.7651   63

  24   rms: 0.5762E-02   max: -.9198E-01   C at   63  2
       a =  0.000      CL =  0.2735
      Cm = -0.0600     CD =  0.00608   =>   CDf =  0.00449    CDp =  0.00159

 Side 1  free  transition at x/c =  0.7422   64
 Side 2  free  transition at x/c =  0.7651   63

  25   rms: 0.5762E-02   max: -.9197E-01   C at   63  2
       a =  0.000      CL =  0.2735
      Cm = -0.0600     CD =  0.00608   =>   CDf =  0.00449    CDp =  0.00159

 Side 1  free  transition at x/c =  0.7422   64
 Side 2  free  transition at x/c =  0.7651   63

  26   rms: 0.5762E-02   max: -.9198E-01   C at   63  2
       a =  0.000      CL =  0.2735
      Cm = -0.0600     CD =  0.00608   =>   CDf =  0.00449    CDp =  0.00159

 Side 1  free  transition at x/c =  0.7422   64
 Side 2  free  transition at x/c =  0.7651   63

  27   rms: 0.5762E-02   max: -.9198E-01   C at   63  2
       a =  0.000      CL =  0.2735
      Cm = -0.0600     CD =  0.00608   =>   CDf =  0.00449    CDp =  0.00159

 Side 1  free  transition at x/c =  0.7422   64
 Side 2  free  transition at x/c =  0.7651   63

  28   rms: 0.5762E-02   max: -.9198E-01   C at   63  2
       a =  0.000      CL =  0.2735
      Cm = -0.0600     CD =  0.00608   =>   CDf =  0.00449    CDp =  0.00159

 Side 1  free  transition at x/c =  0.7422   64
 Side 2  free  transition at x/c =  0.7651   63

  29   rms: 0.5762E-02   max: -.9198E-01   C at   63  2
       a =  0.000      CL =  0.2735
      Cm = -0.0600     CD =  0.00608   =>   CDf =  0.00449    CDp =  0.00159

 Side 1  free  transition at x/c =  0.7422   64
 Side 2  free  transition at x/c =  0.7651   63

  30   rms: 0.5762E-02   max: -.9198E-01   C at   63  2
       a =  0.000      CL =  0.2735
      Cm = -0.0600     CD =  0.00608   =>   CDf =  0.00449    CDp =  0.00159

 Side 1  free  transition at x/c =  0.7422   64
 Side 2  free  transition at x/c =  0.7651   63

  31   rms: 0.5762E-02   max: -.9198E-01   C at   63  2
       a =  0.000      CL =  0.2735
      Cm = -0.0600     CD =  0.00608   =>   CDf =  0.00449    CDp =  0.00159

 Side 1  free  transition at x/c =  0.7422   64
 Side 2  free  transition at x/c =  0.7651   63

  32   rms: 0.5762E-02   max: -.9198E-01   C at   63  2
       a =  0.000      CL =  0.2735
      Cm = -0.0600     CD =  0.00608   =>   CDf =  0.00449    CDp =  0.00159

 Side 1  free  transition at x/c =  0.7422   64
 Side 2  free  transition at x/c =  0.7651   63

  33   rms: 0.5762E-02   max: -.9197E-01   C at   63  2
       a =  0.000      CL =  0.2735
      Cm = -0.0600     CD =  0.00608   =>   CDf =  0.00449    CDp =  0.00159

 Side 1  free  transition at x/c =  0.7422   64
 Side 2  free  transition at x/c =  0.7651   63

  34   rms: 0.5762E-02   max: -.9198E-01   C at   63  2
       a =  0.000      CL =  0.2735
      Cm = -0.0600     CD =  0.00608   =>   CDf =  0.00449    CDp =  0.00159

 Side 1  free  transition at x/c =  0.7422   64
 Side 2  free  transition at x/c =  0.7651   63

  35   rms: 0.5762E-02   max: -.9198E-01   C at   63  2
       a =  0.000      CL =  0.2735
      Cm = -0.0600     CD =  0.00608   =>   CDf =  0.00449    CDp =  0.00159

 Side 1  free  transition at x/c =  0.7422   64
 Side 2  free  transition at x/c =  0.7651   63

  36   rms: 0.5762E-02   max: -.9198E-01   C at   63  2
       a =  0.000      CL =  0.2735
      Cm = -0.0600     CD =  0.00608   =>   CDf =  0.00449    CDp =  0.00159

 Side 1  free  transition at x/c =  0.7422   64
 Side 2  free  transition at x/c =  0.7651   63

  37   rms: 0.5762E-02   max: -.9197E-01   C at   63  2
       a =  0.000      CL =  0.2735
      Cm = -0.0600     CD =  0.00608   =>   CDf =  0.00449    CDp =  0.00159

 Side 1  free  transition at x/c =  0.7422   64
 Side 2  free  transition at x/c =  0.7651   63

  38   rms: 0.5762E-02   max: -.9198E-01   C at   63  2
       a =  0.000      CL =  0.2735
      Cm = -0.0600     CD =  0.00608   =>   CDf =  0.00449    CDp =  0.00159

 Side 1  free  transition at x/c =  0.7422   64
 Side 2  free  transition at x/c =  0.7651   63

  39   rms: 0.5762E-02   max: -.9198E-01   C at   63  2
       a =  0.000      CL =  0.2735
      Cm = -0.0600     CD =  0.00608   =>   CDf =  0.00449    CDp =  0.00159

 Side 1  free  transition at x/c =  0.7422   64
 Side 2  free  transition at x/c =  0.7651   63

  40   rms: 0.5762E-02   max: -.9198E-01   C at   63  2
       a =  0.000      CL =  0.2735
      Cm = -0.0600     CD =  0.00608   =>   CDf =  0.00449    CDp =  0.00159

 Side 1  free  transition at x/c =  0.7422   64
 Side 2  free  transition at x/c =  0.7651   63

  41   rms: 0.5762E-02   max: -.9198E-01   C at   63  2
       a =  0.000      CL =  0.2735
      Cm = -0.0600     CD =  0.00608   =>   CDf =  0.00449    CDp =  0.00159

 Side 1  free  transition at x/c =  0.7422   64
 Side 2  free  transition at x/c =  0.7651   63

  42   rms: 0.5762E-02   max: -.9198E-01   C at   63  2
       a =  0.000      CL =  0.2735
      Cm = -0.0600     CD =  0.00608   =>   CDf =  0.00449    CDp =  0.00159

 Side 1  free  transition at x/c =  0.7422   64
 Side 2  free  transition at x/c =  0.7651   63

  43   rms: 0.5762E-02   max: -.9198E-01   C at   63  2
       a =  0.000      CL =  0.2735
      Cm = -0.0600     CD =  0.00608   =>   CDf =  0.00449    CDp =  0.00159

 Side 1  free  transition at x/c =  0.7422   64
 Side 2  free  transition at x/c =  0.7651   63

  44   rms: 0.5762E-02   max: -.9198E-01   C at   63  2
       a =  0.000      CL =  0.2735
      Cm = -0.0600     CD =  0.00608   =>   CDf =  0.00449    CDp =  0.00159

 Side 1  free  transition at x/c =  0.7422   64
 Side 2  free  transition at x/c =  0.7651   63

  45   rms: 0.5762E-02   max: -.9198E-01   C at   63  2
       a =  0.000      CL =  0.2735
      Cm = -0.0600     CD =  0.00608   =>   CDf =  0.00449    CDp =  0.00159

 Side 1  free  transition at x/c =  0.7422   64
 Side 2  free  transition at x/c =  0.7651   63

  46   rms: 0.5762E-02   max: -.9198E-01   C at   63  2
       a =  0.000      CL =  0.2735
      Cm = -0.0600     CD =  0.00608   =>   CDf =  0.00449    CDp =  0.00159

 Side 1  free  transition at x/c =  0.7422   64
 Side 2  free  transition at x/c =  0.7651   63

  47   rms: 0.5762E-02   max: -.9198E-01   C at   63  2
       a =  0.000      CL =  0.2735
      Cm = -0.0600     CD =  0.00608   =>   CDf =  0.00449    CDp =  0.00159

 Side 1  free  transition at x/c =  0.7422   64
 Side 2  free  transition at x/c =  0.7651   63

  48   rms: 0.5762E-02   max: -.9197E-01   C at   63  2
       a =  0.000      CL =  0.2735
      Cm = -0.0600     CD =  0.00608   =>   CDf =  0.00449    CDp =  0.00159

 Side 1  free  transition at x/c =  0.7422   64
 Side 2  free  transition at x/c =  0.7651   63

  49   rms: 0.5762E-02   max: -.9198E-01   C at   63  2
       a =  0.000      CL =  0.2735
      Cm = -0.0600     CD =  0.00608   =>   CDf =  0.00449    CDp =  0.00159

 Side 1  free  transition at x/c =  0.7422   64
 Side 2  free  transition at x/c =  0.7651   63

  50   rms: 0.5762E-02   max: -.9197E-01   C at   63  2
       a =  0.000      CL =  0.2735
      Cm = -0.0600     CD =  0.00608   =>   CDf =  0.00449    CDp =  0.00159

 Side 1  free  transition at x/c =  0.7422   64
 Side 2  free  transition at x/c =  0.7651   63

  51   rms: 0.5762E-02   max: -.9198E-01   C at   63  2
       a =  0.000      CL =  0.2735
      Cm = -0.0600     CD =  0.00608   =>   CDf =  0.00449    CDp =  0.00159

 Side 1  free  transition at x/c =  0.7422   64
 Side 2  free  transition at x/c =  0.7651   63

  52   rms: 0.5762E-02   max: -.9198E-01   C at   63  2
       a =  0.000      CL =  0.2735
      Cm = -0.0600     CD =  0.00608   =>   CDf =  0.00449    CDp =  0.00159

 Side 1  free  transition at x/c =  0.7422   64
 Side 2  free  transition at x/c =  0.7651   63

  53   rms: 0.5762E-02   max: -.9198E-01   C at   63  2
       a =  0.000      CL =  0.2735
      Cm = -0.0600     CD =  0.00608   =>   CDf =  0.00449    CDp =  0.00159

 Side 1  free  transition at x/c =  0.7422   64
 Side 2  free  transition at x/c =  0.7651   63

  54   rms: 0.5762E-02   max: -.9197E-01   C at   63  2
       a =  0.000      CL =  0.2735
      Cm = -0.0600     CD =  0.00608   =>   CDf =  0.00449    CDp =  0.00159

 Side 1  free  transition at x/c =  0.7422   64
 Side 2  free  transition at x/c =  0.7651   63

  55   rms: 0.5762E-02   max: -.9198E-01   C at   63  2
       a =  0.000      CL =  0.2735
      Cm = -0.0600     CD =  0.00608   =>   CDf =  0.00449    CDp =  0.00159

 Side 1  free  transition at x/c =  0.7422   64
 Side 2  free  transition at x/c =  0.7651   63

  56   rms: 0.5762E-02   max: -.9198E-01   C at   63  2
       a =  0.000      CL =  0.2735
      Cm = -0.0600     CD =  0.00608   =>   CDf =  0.00449    CDp =  0.00159

 Side 1  free  transition at x/c =  0.7422   64
 Side 2  free  transition at x/c =  0.7651   63

  57   rms: 0.5762E-02   max: -.9198E-01   C at   63  2
       a =  0.000      CL =  0.2735
      Cm = -0.0600     CD =  0.00608   =>   CDf =  0.00449    CDp =  0.00159

 Side 1  free  transition at x/c =  0.7422   64
 Side 2  free  transition at x/c =  0.7651   63

  58   rms: 0.5762E-02   max: -.9198E-01   C at   63  2
       a =  0.000      CL =  0.2735
      Cm = -0.0600     CD =  0.00608   =>   CDf =  0.00449    CDp =  0.00159

 Side 1  free  transition at x/c =  0.7422   64
 Side 2  free  transition at x/c =  0.7651   63

  59   rms: 0.5762E-02   max: -.9197E-01   C at   63  2
       a =  0.000      CL =  0.2735
      Cm = -0.0600     CD =  0.00608   =>   CDf =  0.00449    CDp =  0.00159

 Side 1  free  transition at x/c =  0.7422   64
 Side 2  free  transition at x/c =  0.7651   63

  60   rms: 0.5762E-02   max: -.9198E-01   C at   63  2
       a =  0.000      CL =  0.2735
      Cm = -0.0600     CD =  0.00608   =>   CDf =  0.00449    CDp =  0.00159

 Side 1  free  transition at x/c =  0.7422   64
 Side 2  free  transition at x/c =  0.7651   63

  61   rms: 0.5762E-02   max: -.9198E-01   C at   63  2
       a =  0.000      CL =  0.2735
      Cm = -0.0600     CD =  0.00608   =>   CDf =  0.00449    CDp =  0.00159

 Side 1  free  transition at x/c =  0.7422   64
 Side 2  free  transition at x/c =  0.7651   63

  62   rms: 0.5762E-02   max: -.9198E-01   C at   63  2
       a =  0.000      CL =  0.2735
      Cm = -0.0600     CD =  0.00608   =>   CDf =  0.00449    CDp =  0.00159

 Side 1  free  transition at x/c =  0.7422   64
 Side 2  free  transition at x/c =  0.7651   63

  63   rms: 0.5762E-02   max: -.9197E-01   C at   63  2
       a =  0.000      CL =  0.2735
      Cm = -0.0600     CD =  0.00608   =>   CDf =  0.00449    CDp =  0.00159

 Side 1  free  transition at x/c =  0.7422   64
 Side 2  free  transition at x/c =  0.7651   63

  64   rms: 0.5762E-02   max: -.9198E-01   C at   63  2
       a =  0.000      CL =  0.2735
      Cm = -0.0600     CD =  0.00608   =>   CDf =  0.00449    CDp =  0.00159

 Side 1  free  transition at x/c =  0.7422   64
 Side 2  free  transition at x/c =  0.7651   63

  65   rms: 0.5762E-02   max: -.9198E-01   C at   63  2
       a =  0.000      CL =  0.2735
      Cm = -0.0600     CD =  0.00608   =>   CDf =  0.00449    CDp =  0.00159

 Side 1  free  transition at x/c =  0.7422   64
 Side 2  free  transition at x/c =  0.7651   63

  66   rms: 0.5762E-02   max: -.9198E-01   C at   63  2
       a =  0.000      CL =  0.2735
      Cm = -0.0600     CD =  0.00608   =>   CDf =  0.00449    CDp =  0.00159

 Side 1  free  transition at x/c =  0.7422   64
 Side 2  free  transition at x/c =  0.7651   63

  67   rms: 0.5762E-02   max: -.9197E-01   C at   63  2
       a =  0.000      CL =  0.2735
      Cm = -0.0600     CD =  0.00608   =>   CDf =  0.00449    CDp =  0.00159

 Side 1  free  transition at x/c =  0.7422   64
 Side 2  free  transition at x/c =  0.7651   63

  68   rms: 0.5762E-02   max: -.9198E-01   C at   63  2
       a =  0.000      CL =  0.2735
      Cm = -0.0600     CD =  0.00608   =>   CDf =  0.00449    CDp =  0.00159

 Side 1  free  transition at x/c =  0.7422   64
 Side 2  free  transition at x/c =  0.7651   63

  69   rms: 0.5762E-02   max: -.9198E-01   C at   63  2
       a =  0.000      CL =  0.2735
      Cm = -0.0600     CD =  0.00608   =>   CDf =  0.00449    CDp =  0.00159

 Side 1  free  transition at x/c =  0.7422   64
 Side 2  free  transition at x/c =  0.7651   63

  70   rms: 0.5762E-02   max: -.9198E-01   C at   63  2
       a =  0.000      CL =  0.2735
      Cm = -0.0600     CD =  0.00608   =>   CDf =  0.00449    CDp =  0.00159

 Side 1  free  transition at x/c =  0.7422   64
 Side 2  free  transition at x/c =  0.7651   63

  71   rms: 0.5762E-02   max: -.9197E-01   C at   63  2
       a =  0.000      CL =  0.2735
      Cm = -0.0600     CD =  0.00608   =>   CDf =  0.00449    CDp =  0.00159

 Side 1  free  transition at x/c =  0.7422   64
 Side 2  free  transition at x/c =  0.7651   63

  72   rms: 0.5762E-02   max: -.9198E-01   C at   63  2
       a =  0.000      CL =  0.2735
      Cm = -0.0600     CD =  0.00608   =>   CDf =  0.00449    CDp =  0.00159

 Side 1  free  transition at x/c =  0.7422   64
 Side 2  free  transition at x/c =  0.7651   63

  73   rms: 0.5762E-02   max: -.9198E-01   C at   63  2
       a =  0.000      CL =  0.2735
      Cm = -0.0600     CD =  0.00608   =>   CDf =  0.00449    CDp =  0.00159

 Side 1  free  transition at x/c =  0.7422   64
 Side 2  free  transition at x/c =  0.7651   63

  74   rms: 0.5762E-02   max: -.9197E-01   C at   63  2
       a =  0.000      CL =  0.2735
      Cm = -0.0600     CD =  0.00608   =>   CDf =  0.00449    CDp =  0.00159

 Side 1  free  transition at x/c =  0.7422   64
 Side 2  free  transition at x/c =  0.7651   63

  75   rms: 0.5762E-02   max: -.9198E-01   C at   63  2
       a =  0.000      CL =  0.2735
      Cm = -0.0600     CD =  0.00608   =>   CDf =  0.00449    CDp =  0.00159

 Side 1  free  transition at x/c =  0.7422   64
 Side 2  free  transition at x/c =  0.7651   63

  76   rms: 0.5762E-02   max: -.9198E-01   C at   63  2
       a =  0.000      CL =  0.2735
      Cm = -0.0600     CD =  0.00608   =>   CDf =  0.00449    CDp =  0.00159

 Side 1  free  transition at x/c =  0.7422   64
 Side 2  free  transition at x/c =  0.7651   63

  77   rms: 0.5762E-02   max: -.9198E-01   C at   63  2
       a =  0.000      CL =  0.2735
      Cm = -0.0600     CD =  0.00608   =>   CDf =  0.00449    CDp =  0.00159

 Side 1  free  transition at x/c =  0.7422   64
 Side 2  free  transition at x/c =  0.7651   63

  78   rms: 0.5762E-02   max: -.9198E-01   C at   63  2
       a =  0.000      CL =  0.2735
      Cm = -0.0600     CD =  0.00608   =>   CDf =  0.00449    CDp =  0.00159

 Side 1  free  transition at x/c =  0.7422   64
 Side 2  free  transition at x/c =  0.7651   63

  79   rms: 0.5762E-02   max: -.9198E-01   C at   63  2
       a =  0.000      CL =  0.2735
      Cm = -0.0600     CD =  0.00608   =>   CDf =  0.00449    CDp =  0.00159

 Side 1  free  transition at x/c =  0.7422   64
 Side 2  free  transition at x/c =  0.7651   63

  80   rms: 0.5762E-02   max: -.9198E-01   C at   63  2
       a =  0.000      CL =  0.2735
      Cm = -0.0600     CD =  0.00608   =>   CDf =  0.00449    CDp =  0.00159

 Side 1  free  transition at x/c =  0.7422   64
 Side 2  free  transition at x/c =  0.7651   63

  81   rms: 0.5762E-02   max: -.9198E-01   C at   63  2
       a =  0.000      CL =  0.2735
      Cm = -0.0600     CD =  0.00608   =>   CDf =  0.00449    CDp =  0.00159

 Side 1  free  transition at x/c =  0.7422   64
 Side 2  free  transition at x/c =  0.7651   63

  82   rms: 0.5762E-02   max: -.9198E-01   C at   63  2
       a =  0.000      CL =  0.2735
      Cm = -0.0600     CD =  0.00608   =>   CDf =  0.00449    CDp =  0.00159

 Side 1  free  transition at x/c =  0.7422   64
 Side 2  free  transition at x/c =  0.7651   63

  83   rms: 0.5762E-02   max: -.9198E-01   C at   63  2
       a =  0.000      CL =  0.2735
      Cm = -0.0600     CD =  0.00608   =>   CDf =  0.00449    CDp =  0.00159

 Side 1  free  transition at x/c =  0.7422   64
 Side 2  free  transition at x/c =  0.7651   63

  84   rms: 0.5762E-02   max: -.9198E-01   C at   63  2
       a =  0.000      CL =  0.2735
      Cm = -0.0600     CD =  0.00608   =>   CDf =  0.00449    CDp =  0.00159

 Side 1  free  transition at x/c =  0.7422   64
 Side 2  free  transition at x/c =  0.7651   63

  85   rms: 0.5762E-02   max: -.9197E-01   C at   63  2
       a =  0.000      CL =  0.2735
      Cm = -0.0600     CD =  0.00608   =>   CDf =  0.00449    CDp =  0.00159

 Side 1  free  transition at x/c =  0.7422   64
 Side 2  free  transition at x/c =  0.7651   63

  86   rms: 0.5762E-02   max: -.9198E-01   C at   63  2
       a =  0.000      CL =  0.2735
      Cm = -0.0600     CD =  0.00608   =>   CDf =  0.00449    CDp =  0.00159

 Side 1  free  transition at x/c =  0.7422   64
 Side 2  free  transition at x/c =  0.7651   63

  87   rms: 0.5762E-02   max: -.9198E-01   C at   63  2
       a =  0.000      CL =  0.2735
      Cm = -0.0600     CD =  0.00608   =>   CDf =  0.00449    CDp =  0.00159

 Side 1  free  transition at x/c =  0.7422   64
 Side 2  free  transition at x/c =  0.7651   63

  88   rms: 0.5762E-02   max: -.9198E-01   C at   63  2
       a =  0.000      CL =  0.2735
      Cm = -0.0600     CD =  0.00608   =>   CDf =  0.00449    CDp =  0.00159

 Side 1  free  transition at x/c =  0.7422   64
 Side 2  free  transition at x/c =  0.7651   63

  89   rms: 0.5762E-02   max: -.9197E-01   C at   63  2
       a =  0.000      CL =  0.2735
      Cm = -0.0600     CD =  0.00608   =>   CDf =  0.00449    CDp =  0.00159

 Side 1  free  transition at x/c =  0.7422   64
 Side 2  free  transition at x/c =  0.7651   63

  90   rms: 0.5762E-02   max: -.9198E-01   C at   63  2
       a =  0.000      CL =  0.2735
      Cm = -0.0600     CD =  0.00608   =>   CDf =  0.00449    CDp =  0.00159

 Side 1  free  transition at x/c =  0.7422   64
 Side 2  free  transition at x/c =  0.7651   63

  91   rms: 0.5762E-02   max: -.9198E-01   C at   63  2
       a =  0.000      CL =  0.2735
      Cm = -0.0600     CD =  0.00608   =>   CDf =  0.00449    CDp =  0.00159

 Side 1  free  transition at x/c =  0.7422   64
 Side 2  free  transition at x/c =  0.7651   63

  92   rms: 0.5762E-02   max: -.9198E-01   C at   63  2
       a =  0.000      CL =  0.2735
      Cm = -0.0600     CD =  0.00608   =>   CDf =  0.00449    CDp =  0.00159

 Side 1  free  transition at x/c =  0.7422   64
 Side 2  free  transition at x/c =  0.7651   63

  93   rms: 0.5762E-02   max: -.9198E-01   C at   63  2
       a =  0.000      CL =  0.2735
      Cm = -0.0600     CD =  0.00608   =>   CDf =  0.00449    CDp =  0.00159

 Side 1  free  transition at x/c =  0.7422   64
 Side 2  free  transition at x/c =  0.7651   63

  94   rms: 0.5762E-02   max: -.9198E-01   C at   63  2
       a =  0.000      CL =  0.2735
      Cm = -0.0600     CD =  0.00608   =>   CDf =  0.00449    CDp =  0.00159

 Side 1  free  transition at x/c =  0.7422   64
 Side 2  free  transition at x/c =  0.7651   63

  95   rms: 0.5762E-02   max: -.9198E-01   C at   63  2
       a =  0.000      CL =  0.2735
      Cm = -0.0600     CD =  0.00608   =>   CDf =  0.00449    CDp =  0.00159

 Side 1  free  transition at x/c =  0.7422   64
 Side 2  free  transition at x/c =  0.7651   63

  96   rms: 0.5762E-02   max: -.9198E-01   C at   63  2
       a =  0.000      CL =  0.2735
      Cm = -0.0600     CD =  0.00608   =>   CDf =  0.00449    CDp =  0.00159

 Side 1  free  transition at x/c =  0.7422   64
 Side 2  free  transition at x/c =  0.7651   63

  97   rms: 0.5762E-02   max: -.9198E-01   C at   63  2
       a =  0.000      CL =  0.2735
      Cm = -0.0600     CD =  0.00608   =>   CDf =  0.00449    CDp =  0.00159

 Side 1  free  transition at x/c =  0.7422   64
 Side 2  free  transition at x/c =  0.7651   63

  98   rms: 0.5762E-02   max: -.9197E-01   C at   63  2
       a =  0.000      CL =  0.2735
      Cm = -0.0600     CD =  0.00608   =>   CDf =  0.00449    CDp =  0.00159

 Side 1  free  transition at x/c =  0.7422   64
 Side 2  free  transition at x/c =  0.7651   63

  99   rms: 0.5762E-02   max: -.9198E-01   C at   63  2
       a =  0.000      CL =  0.2735
      Cm = -0.0600     CD =  0.00608   =>   CDf =  0.00449    CDp =  0.00159

 Side 1  free  transition at x/c =  0.7422   64
 Side 2  free  transition at x/c =  0.7651   63

 100   rms: 0.5762E-02   max: -.9197E-01   C at   63  2
       a =  0.000      CL =  0.2735
      Cm = -0.0600     CD =  0.00608   =>   CDf =  0.00449    CDp =  0.00159

 Side 1  free  transition at x/c =  0.7422   64
 Side 2  free  transition at x/c =  0.7651   63

 101   rms: 0.5762E-02   max: -.9197E-01   C at   63  2
       a =  0.000      CL =  0.2735
      Cm = -0.0600     CD =  0.00608   =>   CDf =  0.00449    CDp =  0.00159

 Side 1  free  transition at x/c =  0.7422   64
 Side 2  free  transition at x/c =  0.7651   63

 102   rms: 0.5762E-02   max: -.9198E-01   C at   63  2
       a =  0.000      CL =  0.2735
      Cm = -0.0600     CD =  0.00608   =>   CDf =  0.00449    CDp =  0.00159

 Side 1  free  transition at x/c =  0.7422   64
 Side 2  free  transition at x/c =  0.7651   63

 103   rms: 0.5762E-02   max: -.9198E-01   C at   63  2
       a =  0.000      CL =  0.2735
      Cm = -0.0600     CD =  0.00608   =>   CDf =  0.00449    CDp =  0.00159

 Side 1  free  transition at x/c =  0.7422   64
 Side 2  free  transition at x/c =  0.7651   63

 104   rms: 0.5762E-02   max: -.9198E-01   C at   63  2
       a =  0.000      CL =  0.2735
      Cm = -0.0600     CD =  0.00608   =>   CDf =  0.00449    CDp =  0.00159

 Side 1  free  transition at x/c =  0.7422   64
 Side 2  free  transition at x/c =  0.7651   63

 105   rms: 0.5762E-02   max: -.9198E-01   C at   63  2
       a =  0.000      CL =  0.2735
      Cm = -0.0600     CD =  0.00608   =>   CDf =  0.00449    CDp =  0.00159

 Side 1  free  transition at x/c =  0.7422   64
 Side 2  free  transition at x/c =  0.7651   63

 106   rms: 0.5762E-02   max: -.9198E-01   C at   63  2
       a =  0.000      CL =  0.2735
      Cm = -0.0600     CD =  0.00608   =>   CDf =  0.00449    CDp =  0.00159

 Side 1  free  transition at x/c =  0.7422   64
 Side 2  free  transition at x/c =  0.7651   63

 107   rms: 0.5762E-02   max: -.9198E-01   C at   63  2
       a =  0.000      CL =  0.2735
      Cm = -0.0600     CD =  0.00608   =>   CDf =  0.00449    CDp =  0.00159

 Side 1  free  transition at x/c =  0.7422   64
 Side 2  free  transition at x/c =  0.7651   63

 108   rms: 0.5762E-02   max: -.9197E-01   C at   63  2
       a =  0.000      CL =  0.2735
      Cm = -0.0600     CD =  0.00608   =>   CDf =  0.00449    CDp =  0.00159

 Side 1  free  transition at x/c =  0.7422   64
 Side 2  free  transition at x/c =  0.7651   63

 109   rms: 0.5762E-02   max: -.9197E-01   C at   63  2
       a =  0.000      CL =  0.2735
      Cm = -0.0600     CD =  0.00608   =>   CDf =  0.00449    CDp =  0.00159

 Side 1  free  transition at x/c =  0.7422   64
 Side 2  free  transition at x/c =  0.7651   63

 110   rms: 0.5762E-02   max: -.9198E-01   C at   63  2
       a =  0.000      CL =  0.2735
      Cm = -0.0600     CD =  0.00608   =>   CDf =  0.00449    CDp =  0.00159

 Side 1  free  transition at x/c =  0.7422   64
 Side 2  free  transition at x/c =  0.7651   63

 111   rms: 0.5762E-02   max: -.9197E-01   C at   63  2
       a =  0.000      CL =  0.2735
      Cm = -0.0600     CD =  0.00608   =>   CDf =  0.00449    CDp =  0.00159

 Side 1  free  transition at x/c =  0.7422   64
 Side 2  free  transition at x/c =  0.7651   63

 112   rms: 0.5762E-02   max: -.9198E-01   C at   63  2
       a =  0.000      CL =  0.2735
      Cm = -0.0600     CD =  0.00608   =>   CDf =  0.00449    CDp =  0.00159

 Side 1  free  transition at x/c =  0.7422   64
 Side 2  free  transition at x/c =  0.7651   63

 113   rms: 0.5762E-02   max: -.9198E-01   C at   63  2
       a =  0.000      CL =  0.2735
      Cm = -0.0600     CD =  0.00608   =>   CDf =  0.00449    CDp =  0.00159

 Side 1  free  transition at x/c =  0.7422   64
 Side 2  free  transition at x/c =  0.7651   63

 114   rms: 0.5762E-02   max: -.9198E-01   C at   63  2
       a =  0.000      CL =  0.2735
      Cm = -0.0600     CD =  0.00608   =>   CDf =  0.00449    CDp =  0.00159

 Side 1  free  transition at x/c =  0.7422   64
 Side 2  free  transition at x/c =  0.7651   63

 115   rms: 0.5762E-02   max: -.9198E-01   C at   63  2
       a =  0.000      CL =  0.2735
      Cm = -0.0600     CD =  0.00608   =>   CDf =  0.00449    CDp =  0.00159

 Side 1  free  transition at x/c =  0.7422   64
 Side 2  free  transition at x/c =  0.7651   63

 116   rms: 0.5762E-02   max: -.9198E-01   C at   63  2
       a =  0.000      CL =  0.2735
      Cm = -0.0600     CD =  0.00608   =>   CDf =  0.00449    CDp =  0.00159

 Side 1  free  transition at x/c =  0.7422   64
 Side 2  free  transition at x/c =  0.7651   63

 117   rms: 0.5762E-02   max: -.9198E-01   C at   63  2
       a =  0.000      CL =  0.2735
      Cm = -0.0600     CD =  0.00608   =>   CDf =  0.00449    CDp =  0.00159

 Side 1  free  transition at x/c =  0.7422   64
 Side 2  free  transition at x/c =  0.7651   63

 118   rms: 0.5762E-02   max: -.9198E-01   C at   63  2
       a =  0.000      CL =  0.2735
      Cm = -0.0600     CD =  0.00608   =>   CDf =  0.00449    CDp =  0.00159

 Side 1  free  transition at x/c =  0.7422   64
 Side 2  free  transition at x/c =  0.7651   63

 119   rms: 0.5762E-02   max: -.9198E-01   C at   63  2
       a =  0.000      CL =  0.2735
      Cm = -0.0600     CD =  0.00608   =>   CDf =  0.00449    CDp =  0.00159

 Side 1  free  transition at x/c =  0.7422   64
 Side 2  free  transition at x/c =  0.7651   63

 120   rms: 0.5762E-02   max: -.9198E-01   C at   63  2
       a =  0.000      CL =  0.2735
      Cm = -0.0600     CD =  0.00608   =>   CDf =  0.00449    CDp =  0.00159

 Side 1  free  transition at x/c =  0.7422   64
 Side 2  free  transition at x/c =  0.7651   63

 121   rms: 0.5762E-02   max: -.9197E-01   C at   63  2
       a =  0.000      CL =  0.2735
      Cm = -0.0600     CD =  0.00608   =>   CDf =  0.00449    CDp =  0.00159

 Side 1  free  transition at x/c =  0.7422   64
 Side 2  free  transition at x/c =  0.7651   63

 122   rms: 0.5762E-02   max: -.9198E-01   C at   63  2
       a =  0.000      CL =  0.2735
      Cm = -0.0600     CD =  0.00608   =>   CDf =  0.00449    CDp =  0.00159

 Side 1  free  transition at x/c =  0.7422   64
 Side 2  free  transition at x/c =  0.7651   63

 123   rms: 0.5762E-02   max: -.9198E-01   C at   63  2
       a =  0.000      CL =  0.2735
      Cm = -0.0600     CD =  0.00608   =>   CDf =  0.00449    CDp =  0.00159

 Side 1  free  transition at x/c =  0.7422   64
 Side 2  free  transition at x/c =  0.7651   63

 124   rms: 0.5762E-02   max: -.9197E-01   C at   63  2
       a =  0.000      CL =  0.2735
      Cm = -0.0600     CD =  0.00608   =>   CDf =  0.00449    CDp =  0.00159

 Side 1  free  transition at x/c =  0.7422   64
 Side 2  free  transition at x/c =  0.7651   63

 125   rms: 0.5762E-02   max: -.9198E-01   C at   63  2
       a =  0.000      CL =  0.2735
      Cm = -0.0600     CD =  0.00608   =>   CDf =  0.00449    CDp =  0.00159

 Side 1  free  transition at x/c =  0.7422   64
 Side 2  free  transition at x/c =  0.7651   63

 126   rms: 0.5762E-02   max: -.9198E-01   C at   63  2
       a =  0.000      CL =  0.2735
      Cm = -0.0600     CD =  0.00608   =>   CDf =  0.00449    CDp =  0.00159

 Side 1  free  transition at x/c =  0.7422   64
 Side 2  free  transition at x/c =  0.7651   63

 127   rms: 0.5762E-02   max: -.9198E-01   C at   63  2
       a =  0.000      CL =  0.2735
      Cm = -0.0600     CD =  0.00608   =>   CDf =  0.00449    CDp =  0.00159

 Side 1  free  transition at x/c =  0.7422   64
 Side 2  free  transition at x/c =  0.7651   63

 128   rms: 0.5762E-02   max: -.9198E-01   C at   63  2
       a =  0.000      CL =  0.2735
      Cm = -0.0600     CD =  0.00608   =>   CDf =  0.00449    CDp =  0.00159

 Side 1  free  transition at x/c =  0.7422   64
 Side 2  free  transition at x/c =  0.7651   63

 129   rms: 0.5762E-02   max: -.9198E-01   C at   63  2
       a =  0.000      CL =  0.2735
      Cm = -0.0600     CD =  0.00608   =>   CDf =  0.00449    CDp =  0.00159

 Side 1  free  transition at x/c =  0.7422   64
 Side 2  free  transition at x/c =  0.7651   63

 130   rms: 0.5762E-02   max: -.9197E-01   C at   63  2
       a =  0.000      CL =  0.2735
      Cm = -0.0600     CD =  0.00608   =>   CDf =  0.00449    CDp =  0.00159

 Side 1  free  transition at x/c =  0.7422   64
 Side 2  free  transition at x/c =  0.7651   63

 131   rms: 0.5762E-02   max: -.9198E-01   C at   63  2
       a =  0.000      CL =  0.2735
      Cm = -0.0600     CD =  0.00608   =>   CDf =  0.00449    CDp =  0.00159

 Side 1  free  transition at x/c =  0.7422   64
 Side 2  free  transition at x/c =  0.7651   63

 132   rms: 0.5762E-02   max: -.9198E-01   C at   63  2
       a =  0.000      CL =  0.2735
      Cm = -0.0600     CD =  0.00608   =>   CDf =  0.00449    CDp =  0.00159

 Side 1  free  transition at x/c =  0.7422   64
 Side 2  free  transition at x/c =  0.7651   63

 133   rms: 0.5762E-02   max: -.9198E-01   C at   63  2
       a =  0.000      CL =  0.2735
      Cm = -0.0600     CD =  0.00608   =>   CDf =  0.00449    CDp =  0.00159

 Side 1  free  transition at x/c =  0.7422   64
 Side 2  free  transition at x/c =  0.7651   63

 134   rms: 0.5762E-02   max: -.9198E-01   C at   63  2
       a =  0.000      CL =  0.2735
      Cm = -0.0600     CD =  0.00608   =>   CDf =  0.00449    CDp =  0.00159

 Side 1  free  transition at x/c =  0.7422   64
 Side 2  free  transition at x/c =  0.7651   63

 135   rms: 0.5762E-02   max: -.9197E-01   C at   63  2
       a =  0.000      CL =  0.2735
      Cm = -0.0600     CD =  0.00608   =>   CDf =  0.00449    CDp =  0.00159

 Side 1  free  transition at x/c =  0.7422   64
 Side 2  free  transition at x/c =  0.7651   63

 136   rms: 0.5762E-02   max: -.9198E-01   C at   63  2
       a =  0.000      CL =  0.2735
      Cm = -0.0600     CD =  0.00608   =>   CDf =  0.00449    CDp =  0.00159

 Side 1  free  transition at x/c =  0.7422   64
 Side 2  free  transition at x/c =  0.7651   63

 137   rms: 0.5762E-02   max: -.9198E-01   C at   63  2
       a =  0.000      CL =  0.2735
      Cm = -0.0600     CD =  0.00608   =>   CDf =  0.00449    CDp =  0.00159

 Side 1  free  transition at x/c =  0.7422   64
 Side 2  free  transition at x/c =  0.7651   63

 138   rms: 0.5762E-02   max: -.9198E-01   C at   63  2
       a =  0.000      CL =  0.2735
      Cm = -0.0600     CD =  0.00608   =>   CDf =  0.00449    CDp =  0.00159

 Side 1  free  transition at x/c =  0.7422   64
 Side 2  free  transition at x/c =  0.7651   63

 139   rms: 0.5762E-02   max: -.9197E-01   C at   63  2
       a =  0.000      CL =  0.2735
      Cm = -0.0600     CD =  0.00608   =>   CDf =  0.00449    CDp =  0.00159

 Side 1  free  transition at x/c =  0.7422   64
 Side 2  free  transition at x/c =  0.7651   63

 140   rms: 0.5762E-02   max: -.9198E-01   C at   63  2
       a =  0.000      CL =  0.2735
      Cm = -0.0600     CD =  0.00608   =>   CDf =  0.00449    CDp =  0.00159

 Side 1  free  transition at x/c =  0.7422   64
 Side 2  free  transition at x/c =  0.7651   63

 141   rms: 0.5762E-02   max: -.9198E-01   C at   63  2
       a =  0.000      CL =  0.2735
      Cm = -0.0600     CD =  0.00608   =>   CDf =  0.00449    CDp =  0.00159

 Side 1  free  transition at x/c =  0.7422   64
 Side 2  free  transition at x/c =  0.7651   63

 142   rms: 0.5762E-02   max: -.9197E-01   C at   63  2
       a =  0.000      CL =  0.2735
      Cm = -0.0600     CD =  0.00608   =>   CDf =  0.00449    CDp =  0.00159

 Side 1  free  transition at x/c =  0.7422   64
 Side 2  free  transition at x/c =  0.7651   63

 143   rms: 0.5762E-02   max: -.9198E-01   C at   63  2
       a =  0.000      CL =  0.2735
      Cm = -0.0600     CD =  0.00608   =>   CDf =  0.00449    CDp =  0.00159

 Side 1  free  transition at x/c =  0.7422   64
 Side 2  free  transition at x/c =  0.7651   63

 144   rms: 0.5762E-02   max: -.9198E-01   C at   63  2
       a =  0.000      CL =  0.2735
      Cm = -0.0600     CD =  0.00608   =>   CDf =  0.00449    CDp =  0.00159

 Side 1  free  transition at x/c =  0.7422   64
 Side 2  free  transition at x/c =  0.7651   63

 145   rms: 0.5762E-02   max: -.9198E-01   C at   63  2
       a =  0.000      CL =  0.2735
      Cm = -0.0600     CD =  0.00608   =>   CDf =  0.00449    CDp =  0.00159

 Side 1  free  transition at x/c =  0.7422   64
 Side 2  free  transition at x/c =  0.7651   63

 146   rms: 0.5762E-02   max: -.9198E-01   C at   63  2
       a =  0.000      CL =  0.2735
      Cm = -0.0600     CD =  0.00608   =>   CDf =  0.00449    CDp =  0.00159

 Side 1  free  transition at x/c =  0.7422   64
 Side 2  free  transition at x/c =  0.7651   63

 147   rms: 0.5762E-02   max: -.9198E-01   C at   63  2
       a =  0.000      CL =  0.2735
      Cm = -0.0600     CD =  0.00608   =>   CDf =  0.00449    CDp =  0.00159

 Side 1  free  transition at x/c =  0.7422   64
 Side 2  free  transition at x/c =  0.7651   63

 148   rms: 0.5762E-02   max: -.9198E-01   C at   63  2
       a =  0.000      CL =  0.2735
      Cm = -0.0600     CD =  0.00608   =>   CDf =  0.00449    CDp =  0.00159

 Side 1  free  transition at x/c =  0.7422   64
 Side 2  free  transition at x/c =  0.7651   63

 149   rms: 0.5762E-02   max: -.9198E-01   C at   63  2
       a =  0.000      CL =  0.2735
      Cm = -0.0600     CD =  0.00608   =>   CDf =  0.00449    CDp =  0.00159

 Side 1  free  transition at x/c =  0.7422   64
 Side 2  free  transition at x/c =  0.7651   63

 150   rms: 0.5762E-02   max: -.9198E-01   C at   63  2
       a =  0.000      CL =  0.2735
      Cm = -0.0600     CD =  0.00608   =>   CDf =  0.00449    CDp =  0.00159

 Side 1  free  transition at x/c =  0.7422   64
 Side 2  free  transition at x/c =  0.7651   63

 151   rms: 0.5762E-02   max: -.9198E-01   C at   63  2
       a =  0.000      CL =  0.2735
      Cm = -0.0600     CD =  0.00608   =>   CDf =  0.00449    CDp =  0.00159

 Side 1  free  transition at x/c =  0.7422   64
 Side 2  free  transition at x/c =  0.7651   63

 152   rms: 0.5762E-02   max: -.9198E-01   C at   63  2
       a =  0.000      CL =  0.2735
      Cm = -0.0600     CD =  0.00608   =>   CDf =  0.00449    CDp =  0.00159

 Side 1  free  transition at x/c =  0.7422   64
 Side 2  free  transition at x/c =  0.7651   63

 153   rms: 0.5762E-02   max: -.9198E-01   C at   63  2
       a =  0.000      CL =  0.2735
      Cm = -0.0600     CD =  0.00608   =>   CDf =  0.00449    CDp =  0.00159

 Side 1  free  transition at x/c =  0.7422   64
 Side 2  free  transition at x/c =  0.7651   63

 154   rms: 0.5762E-02   max: -.9197E-01   C at   63  2
       a =  0.000      CL =  0.2735
      Cm = -0.0600     CD =  0.00608   =>   CDf =  0.00449    CDp =  0.00159

 Side 1  free  transition at x/c =  0.7422   64
 Side 2  free  transition at x/c =  0.7651   63

 155   rms: 0.5762E-02   max: -.9198E-01   C at   63  2
       a =  0.000      CL =  0.2735
      Cm = -0.0600     CD =  0.00608   =>   CDf =  0.00449    CDp =  0.00159
 VISCAL:  Convergence failed
 Calculating wake trajectory ...
 Calculating source influence matrix ...

 Solving BL system ...

 Side 1  free  transition at x/c =  0.7422   64
 Side 2  free  transition at x/c =  0.7651   63

   1   rms: 0.9621E-01   max: 0.5963E+00   C at   64  1
       a =  0.500      CL =  0.3280
      Cm = -0.0595     CD =  0.00633   =>   CDf =  0.00449    CDp =  0.00184

 MRCHDU: Convergence failed at  65  side 2    Res =  0.2940E+01
 MRCHDU: Convergence failed at  66  side 2    Res =  0.1486E+01
 MRCHDU: Convergence failed at  67  side 2    Res =  0.2818E+01
 MRCHDU: Convergence failed at  68  side 2    Res =  0.5973E+01
 MRCHDU: Convergence failed at  69  side 2    Res =  0.1053E+02
 MRCHDU: Convergence failed at  70  side 2    Res =  0.1470E+02
 MRCHDU: Convergence failed at  71  side 2    Res =  0.1532E+02
 MRCHDU: Convergence failed at  72  side 2    Res =  0.1338E+02
 MRCHDU: Convergence failed at  73  side 2    Res =  0.1113E+02
 MRCHDU: Convergence failed at  74  side 2    Res =  0.9280E+01
 MRCHDU: Convergence failed at  75  side 2    Res =  0.7939E+01
 MRCHDU: Convergence failed at  76  side 2    Res =  0.6985E+01
 MRCHDU: Convergence failed at  77  side 2    Res =  0.6138E+01
 MRCHDU: Convergence failed at  78  side 2    Res =  0.5787E+01
 MRCHDU: Convergence failed at  79  side 2    Res =  0.5421E+01
 MRCHDU: Convergence failed at  80  side 2    Res =  0.5122E+01
 Side 1  free  transition at x/c =  0.7076   61
 Side 2  free  transition at x/c =  0.7890   65

   2   rms: 0.1315E+00   max: -.6370E+00   D at   71  2   RLX: 0.785
       a =  0.500      CL =  0.3349
      Cm = -0.0582     CD =  0.00566   =>   CDf =  0.00400    CDp =  0.00167

 Side 1  free  transition at x/c =  0.7091   62
 Side 2  free  transition at x/c =  0.7889   65

   3   rms: 0.2147E-01   max: 0.1260E+00   D at   80  2
       a =  0.500      CL =  0.3259
      Cm = -0.0590     CD =  0.00616   =>   CDf =  0.00460    CDp =  0.00156

 Side 1  free  transition at x/c =  0.7101   62
 Side 2  free  transition at x/c =  0.7848   65

   4   rms: 0.1306E-02   max: -.1496E-01   C at   65  2
       a =  0.500      CL =  0.3263
      Cm = -0.0591     CD =  0.00618   =>   CDf =  0.00453    CDp =  0.00165

 Side 1  free  transition at x/c =  0.7099   62
 Side 2  free  transition at x/c =  0.7852   65

   5   rms: 0.1445E-04   max: -.2789E-03   D at   67  2
       a =  0.500      CL =  0.3263
      Cm = -0.0591     CD =  0.00618   =>   CDf =  0.00453    CDp =  0.00165
 plradd ia,ip,cpol            9           0  0.12714759    

 Point added to stored polar  1
 Point written to save file  rg15a111_Re600k.base.pol                        
 Dump file unspecified or not available
 Calculating wake trajectory ...
 Calculating source influence matrix ...

 Solving BL system ...

 Side 1  free  transition at x/c =  0.7099   62
 Side 2  free  transition at x/c =  0.7852   65

   1   rms: 0.9286E-01   max: 0.6787E+00   C at   62  1
       a =  1.000      CL =  0.3782
      Cm = -0.0579     CD =  0.00636   =>   CDf =  0.00449    CDp =  0.00187

 Side 1  free  transition at x/c =  0.6742   60
 Side 2  free  transition at x/c =  0.7995   65

   2   rms: 0.2305E-01   max: 0.2609E+00   D at   62  1
       a =  1.000      CL =  0.3789
      Cm = -0.0581     CD =  0.00630   =>   CDf =  0.00468    CDp =  0.00162

 Side 1  free  transition at x/c =  0.6765   60
 Side 2  free  transition at x/c =  0.8050   65

   3   rms: 0.2726E-02   max: -.3948E-01   D at   62  1
       a =  1.000      CL =  0.3790
      Cm = -0.0581     CD =  0.00631   =>   CDf =  0.00460    CDp =  0.00171

 Side 1  free  transition at x/c =  0.6756   60
 Side 2  free  transition at x/c =  0.8048   65

   4   rms: 0.4874E-04   max: -.1089E-02   D at   62  1
       a =  1.000      CL =  0.3790
      Cm = -0.0581     CD =  0.00631   =>   CDf =  0.00460    CDp =  0.00171
 plradd ia,ip,cpol           10           0  0.11362736    

 Point added to stored polar  1
 Point written to save file  rg15a111_Re600k.base.pol                        
 Dump file unspecified or not available
 Calculating wake trajectory ...
 Calculating source influence matrix ...

 Solving BL system ...

 Side 1  free  transition at x/c =  0.6756   60
 Side 2  free  transition at x/c =  0.8048   65

   1   rms: 0.8579E-01   max: -.2727E+00   T at   65  2
       a =  1.500      CL =  0.4326
      Cm = -0.0575     CD =  0.00642   =>   CDf =  0.00461    CDp =  0.00181

 Side 1  free  transition at x/c =  0.6328   57
 Side 2  free  transition at x/c =  0.8229   66

   2   rms: 0.2237E-01   max: -.2958E+00   D at   58  1
       a =  1.500      CL =  0.4309
      Cm = -0.0571     CD =  0.00652   =>   CDf =  0.00481    CDp =  0.00171

 Side 1  free  transition at x/c =  0.6402   58
 Side 2  free  transition at x/c =  0.8262   67

   3   rms: 0.4161E-02   max: -.6139E-01   D at   66  2
       a =  1.500      CL =  0.4312
      Cm = -0.0571     CD =  0.00647   =>   CDf =  0.00468    CDp =  0.00179

 Side 1  free  transition at x/c =  0.6385   58
 Side 2  free  transition at x/c =  0.8254   67

   4   rms: 0.3905E-03   max: 0.4913E-02   C at   67  2
       a =  1.500      CL =  0.4311
      Cm = -0.0571     CD =  0.00647   =>   CDf =  0.00469    CDp =  0.00179

 Side 1  free  transition at x/c =  0.6385   58
 Side 2  free  transition at x/c =  0.8253   67

   5   rms: 0.1984E-05   max: -.2637E-04   D at   68  2
       a =  1.500      CL =  0.4311
      Cm = -0.0571     CD =  0.00647   =>   CDf =  0.00469    CDp =  0.00178
 plradd ia,ip,cpol           11           0  0.10035516    

 Point added to stored polar  1
 Point written to save file  rg15a111_Re600k.base.pol                        
 Dump file unspecified or not available
 Calculating wake trajectory ...
 Calculating source influence matrix ...

 Solving BL system ...

 Side 1  free  transition at x/c =  0.6385   58
 Side 2  free  transition at x/c =  0.8253   67

   1   rms: 0.9666E-01   max: 0.8394E+00   C at   58  1
       a =  2.000      CL =  0.4809
      Cm = -0.0556     CD =  0.00662   =>   CDf =  0.00462    CDp =  0.00201

 Side 1  free  transition at x/c =  0.5968   56
 Side 2  free  transition at x/c =  0.8392   66

   2   rms: 0.2963E-01   max: -.3801E+00   D at   67  2
       a =  2.000      CL =  0.4839
      Cm = -0.0564     CD =  0.00673   =>   CDf =  0.00488    CDp =  0.00185

 Side 1  free  transition at x/c =  0.6004   56
 Side 2  free  transition at x/c =  0.8505   67

   3   rms: 0.1434E-01   max: -.2261E+00   C at   67  2
       a =  2.000      CL =  0.4821
      Cm = -0.0559     CD =  0.00663   =>   CDf =  0.00476    CDp =  0.00187

 Side 1  free  transition at x/c =  0.5992   56
 Side 2  free  transition at x/c =  0.8454   67

   4   rms: 0.1490E-02   max: -.2039E-01   C at   67  2
       a =  2.000      CL =  0.4822
      Cm = -0.0559     CD =  0.00664   =>   CDf =  0.00474    CDp =  0.00190

 Side 1  free  transition at x/c =  0.5992   56
 Side 2  free  transition at x/c =  0.8460   67

   5   rms: 0.2115E-04   max: -.4404E-03   D at   69  2
       a =  2.000      CL =  0.4822
      Cm = -0.0559     CD =  0.00664   =>   CDf =  0.00474    CDp =  0.00190
 plradd ia,ip,cpol           12           0  7.47863501E-02

 Point added to stored polar  1
 Point written to save file  rg15a111_Re600k.base.pol                        
 Dump file unspecified or not available
 Calculating wake trajectory ...
 Calculating source influence matrix ...

 Solving BL system ...

 Side 1  free  transition at x/c =  0.5992   56
 Side 2  free  transition at x/c =  0.8460   67

   1   rms: 0.9204E-01   max: 0.7772E+00   C at   56  1
       a =  2.500      CL =  0.5331
      Cm = -0.0547     CD =  0.00680   =>   CDf =  0.00465    CDp =  0.00215

 Side 1  free  transition at x/c =  0.5520   54
 Side 2  free  transition at x/c =  0.8632   67

   2   rms: 0.2206E-01   max: 0.2407E+00   D at   56  1
       a =  2.500      CL =  0.5326
      Cm = -0.0546     CD =  0.00683   =>   CDf =  0.00490    CDp =  0.00193

 Side 1  free  transition at x/c =  0.5592   54
 Side 2  free  transition at x/c =  0.8687   67

   3   rms: 0.3972E-02   max: -.5200E-01   D at   56  1
       a =  2.500      CL =  0.5326
      Cm = -0.0546     CD =  0.00686   =>   CDf =  0.00482    CDp =  0.00204

 Side 1  free  transition at x/c =  0.5574   54
 Side 2  free  transition at x/c =  0.8684   67

   4   rms: 0.7023E-02   max: -.1156E+00   C at   67  2
       a =  2.500      CL =  0.5327
      Cm = -0.0546     CD =  0.00686   =>   CDf =  0.00484    CDp =  0.00202

 Side 1  free  transition at x/c =  0.5574   54
 Side 2  free  transition at x/c =  0.8687   67

   5   rms: 0.6654E-02   max: -.1137E+00   C at   67  2
       a =  2.500      CL =  0.5327
      Cm = -0.0546     CD =  0.00686   =>   CDf =  0.00484    CDp =  0.00202

 Side 1  free  transition at x/c =  0.5574   54
 Side 2  free  transition at x/c =  0.8686   67

   6   rms: 0.6731E-02   max: -.1141E+00   C at   67  2
       a =  2.500      CL =  0.5327
      Cm = -0.0546     CD =  0.00686   =>   CDf =  0.00484    CDp =  0.00202

 Side 1  free  transition at x/c =  0.5574   54
 Side 2  free  transition at x/c =  0.8687   67

   7   rms: 0.6714E-02   max: -.1140E+00   C at   67  2
       a =  2.500      CL =  0.5327
      Cm = -0.0546     CD =  0.00686   =>   CDf =  0.00484    CDp =  0.00202

 Side 1  free  transition at x/c =  0.5574   54
 Side 2  free  transition at x/c =  0.8686   67

   8   rms: 0.6718E-02   max: -.1140E+00   C at   67  2
       a =  2.500      CL =  0.5327
      Cm = -0.0546     CD =  0.00686   =>   CDf =  0.00484    CDp =  0.00202

 Side 1  free  transition at x/c =  0.5574   54
 Side 2  free  transition at x/c =  0.8687   67

   9   rms: 0.6717E-02   max: -.1140E+00   C at   67  2
       a =  2.500      CL =  0.5327
      Cm = -0.0546     CD =  0.00686   =>   CDf =  0.00484    CDp =  0.00202

 Side 1  free  transition at x/c =  0.5574   54
 Side 2  free  transition at x/c =  0.8687   67

  10   rms: 0.6717E-02   max: -.1140E+00   C at   67  2
       a =  2.500      CL =  0.5327
      Cm = -0.0546     CD =  0.00686   =>   CDf =  0.00484    CDp =  0.00202

 Side 1  free  transition at x/c =  0.5574   54
 Side 2  free  transition at x/c =  0.8687   67

  11   rms: 0.6717E-02   max: -.1140E+00   C at   67  2
       a =  2.500      CL =  0.5327
      Cm = -0.0546     CD =  0.00686   =>   CDf =  0.00484    CDp =  0.00202

 Side 1  free  transition at x/c =  0.5574   54
 Side 2  free  transition at x/c =  0.8687   67

  12   rms: 0.6717E-02   max: -.1140E+00   C at   67  2
       a =  2.500      CL =  0.5327
      Cm = -0.0546     CD =  0.00686   =>   CDf =  0.00484    CDp =  0.00202

 Side 1  free  transition at x/c =  0.5574   54
 Side 2  free  transition at x/c =  0.8687   67

  13   rms: 0.6717E-02   max: -.1140E+00   C at   67  2
       a =  2.500      CL =  0.5327
      Cm = -0.0546     CD =  0.00686   =>   CDf =  0.00484    CDp =  0.00202

 Side 1  free  transition at x/c =  0.5574   54
 Side 2  free  transition at x/c =  0.8687   67

  14   rms: 0.6717E-02   max: -.1140E+00   C at   67  2
       a =  2.500      CL =  0.5327
      Cm = -0.0546     CD =  0.00686   =>   CDf =  0.00484    CDp =  0.00202

 Side 1  free  transition at x/c =  0.5574   54
 Side 2  free  transition at x/c =  0.8687   67

  15   rms: 0.6717E-02   max: -.1140E+00   C at   67  2
       a =  2.500      CL =  0.5327
      Cm = -0.0546     CD =  0.00686   =>   CDf =  0.00484    CDp =  0.00202

 Side 1  free  transition at x/c =  0.5574   54
 Side 2  free  transition at x/c =  0.8687   67

  16   rms: 0.6717E-02   max: -.1140E+00   C at   67  2
       a =  2.500      CL =  0.5327
      Cm = -0.0546     CD =  0.00686   =>   CDf =  0.00484    CDp =  0.00202

 Side 1  free  transition at x/c =  0.5574   54
 Side 2  free  transition at x/c =  0.8687   67

  17   rms: 0.6717E-02   max: -.1140E+00   C at   67  2
       a =  2.500      CL =  0.5327
      Cm = -0.0546     CD =  0.00686   =>   CDf =  0.00484    CDp =  0.00202

 Side 1  free  transition at x/c =  0.5574   54
 Side 2  free  transition at x/c =  0.8687   67

  18   rms: 0.6717E-02   max: -.1140E+00   C at   67  2
       a =  2.500      CL =  0.5327
      Cm = -0.0546     CD =  0.00686   =>   CDf =  0.00484    CDp =  0.00202

 Side 1  free  transition at x/c =  0.5574   54
 Side 2  free  transition at x/c =  0.8687   67

  19   rms: 0.6717E-02   max: -.1140E+00   C at   67  2
       a =  2.500      CL =  0.5327
      Cm = -0.0546     CD =  0.00686   =>   CDf =  0.00484    CDp =  0.00202

 Side 1  free  transition at x/c =  0.5574   54
 Side 2  free  transition at x/c =  0.8687   67

  20   rms: 0.6717E-02   max: -.1140E+00   C at   67  2
       a =  2.500      CL =  0.5327
      Cm = -0.0546     CD =  0.00686   =>   CDf =  0.00484    CDp =  0.00202

 Side 1  free  transition at x/c =  0.5574   54
 Side 2  free  transition at x/c =  0.8687   67

  21   rms: 0.6717E-02   max: -.1140E+00   C at   67  2
       a =  2.500      CL =  0.5327
      Cm = -0.0546     CD =  0.00686   =>   CDf =  0.00484    CDp =  0.00202

 Side 1  free  transition at x/c =  0.5574   54
 Side 2  free  transition at x/c =  0.8686   67

  22   rms: 0.6717E-02   max: -.1140E+00   C at   67  2
       a =  2.500      CL =  0.5327
      Cm = -0.0546     CD =  0.00686   =>   CDf =  0.00484    CDp =  0.00202

 Side 1  free  transition at x/c =  0.5574   54
 Side 2  free  transition at x/c =  0.8687   67

  23   rms: 0.6717E-02   max: -.1140E+00   C at   67  2
       a =  2.500      CL =  0.5327
[...]

 Side 1  free  transition at x/c =  0.0094   20
 Side 2 forced transition at x/c =  1.0000   69

   4   rms: 0.5122E-04   max: 0.3323E-03   D at   83  1
       a = 12.750      CL =  1.3579
      Cm = -0.0125     CD =  0.02775   =>   CDf =  0.00577    CDp =  0.02198
 plradd ia,ip,cpol           39           0 -3.20549443E-05

 Point added to stored polar  1
 Point written to save file  rg15a111_Re600k.base.pol                        
 Dump file unspecified or not available
 Calculating wake trajectory ...
 Calculating source influence matrix ...

 Solving BL system ...

 Side 1  free  transition at x/c =  0.0094   20
 Side 2 forced transition at x/c =  1.0000   69

   1   rms: 0.3520E-01   max: 0.1288E+00   T at   20  1
       a = 13.000      CL =  1.3652
      Cm = -0.0108     CD =  0.02912   =>   CDf =  0.00577    CDp =  0.02335

 Side 1  free  transition at x/c =  0.0089   20
 Side 2 forced transition at x/c =  1.0000   69

   2   rms: 0.3272E-02   max: 0.2542E-01   D at   82  1
       a = 13.000      CL =  1.3629
      Cm = -0.0107     CD =  0.02918   =>   CDf =  0.00566    CDp =  0.02351

 Side 1  free  transition at x/c =  0.0089   20
 Side 2 forced transition at x/c =  1.0000   69

   3   rms: 0.7974E-04   max: 0.1369E-02   D at   78  2
       a = 13.000      CL =  1.3629
      Cm = -0.0107     CD =  0.02917   =>   CDf =  0.00566    CDp =  0.02351
 plradd ia,ip,cpol           40           0 -3.20549443E-05

 Point added to stored polar  1
 Point written to save file  rg15a111_Re600k.base.pol                        
 Dump file unspecified or not available
 Calculating wake trajectory ...
 Calculating source influence matrix ...

 Solving BL system ...

 Side 1  free  transition at x/c =  0.0089   20
 Side 2 forced transition at x/c =  1.0000   69

   1   rms: 0.3446E-01   max: 0.1442E+00   T at   20  1   RLX: 0.999
       a = 13.250      CL =  1.3719
      Cm = -0.0093     CD =  0.03049   =>   CDf =  0.00566    CDp =  0.02482

 Side 1  free  transition at x/c =  0.0082   20
 Side 2 forced transition at x/c =  1.0000   69

   2   rms: 0.4653E-02   max: -.4579E-01   D at   20  1
       a = 13.250      CL =  1.3701
      Cm = -0.0092     CD =  0.03048   =>   CDf =  0.00557    CDp =  0.02490

 Side 1  free  transition at x/c =  0.0083   20
 Side 2 forced transition at x/c =  1.0000   69

   3   rms: 0.2561E-03   max: -.1027E-02   D at   81  1
       a = 13.250      CL =  1.3703
      Cm = -0.0093     CD =  0.03048   =>   CDf =  0.00558    CDp =  0.02490

 Side 1  free  transition at x/c =  0.0083   20
 Side 2 forced transition at x/c =  1.0000   69

   4   rms: 0.3696E-05   max: 0.7653E-04   C at   69  2
       a = 13.250      CL =  1.3703
      Cm = -0.0093     CD =  0.03048   =>   CDf =  0.00558    CDp =  0.02490
 plradd ia,ip,cpol           41           0 -3.20549443E-05

 Point added to stored polar  1
 Point written to save file  rg15a111_Re600k.base.pol                        
 Dump file unspecified or not available
 Calculating wake trajectory ...
 Calculating source influence matrix ...

 Solving BL system ...

 Side 1  free  transition at x/c =  0.0083   20
 Side 2 forced transition at x/c =  1.0000   69

   1   rms: 0.3574E-01   max: 0.1081E+00   T at   20  1   RLX: 0.952
       a = 13.500      CL =  1.3754
      Cm = -0.0080     CD =  0.03210   =>   CDf =  0.00559    CDp =  0.02652

 Side 1  free  transition at x/c =  0.0079   20
 Side 2 forced transition at x/c =  1.0000   69

   2   rms: 0.3999E-02   max: 0.3307E-01   D at   79  1
       a = 13.500      CL =  1.3733
      Cm = -0.0078     CD =  0.03223   =>   CDf =  0.00550    CDp =  0.02673

 Side 1  free  transition at x/c =  0.0079   20
 Side 2 forced transition at x/c =  1.0000   69

   3   rms: 0.1819E-03   max: 0.2513E-02   D at   78  1
       a = 13.500      CL =  1.3732
      Cm = -0.0078     CD =  0.03221   =>   CDf =  0.00549    CDp =  0.02672

 Side 1  free  transition at x/c =  0.0079   20
 Side 2 forced transition at x/c =  1.0000   69

   4   rms: 0.2847E-05   max: -.5784E-04   C at   69  2
       a = 13.500      CL =  1.3732
      Cm = -0.0078     CD =  0.03221   =>   CDf =  0.00549    CDp =  0.02672
 plradd ia,ip,cpol           42           0 -3.20549443E-05

 Point added to stored polar  1
 Point written to save file  rg15a111_Re600k.base.pol                        
 Dump file unspecified or not available
 Calculating wake trajectory ...
 Calculating source influence matrix ...

 Solving BL system ...

 Side 1  free  transition at x/c =  0.0079   20
 Side 2 forced transition at x/c =  1.0000   69

   1   rms: 0.3692E-01   max: 0.1164E+00   D at   75  1   RLX: 0.904
       a = 13.750      CL =  1.3759
      Cm = -0.0067     CD =  0.03406   =>   CDf =  0.00549    CDp =  0.02857

 Side 1  free  transition at x/c =  0.0077   20
 Side 2 forced transition at x/c =  1.0000   69

   2   rms: 0.6242E-02   max: 0.4087E-01   D at   77  1
       a = 13.750      CL =  1.3736
      Cm = -0.0065     CD =  0.03432   =>   CDf =  0.00540    CDp =  0.02892

 Side 1  free  transition at x/c =  0.0077   20
 Side 2 forced transition at x/c =  1.0000   69

   3   rms: 0.4109E-03   max: 0.3919E-02   D at   76  1
       a = 13.750      CL =  1.3734
      Cm = -0.0065     CD =  0.03430   =>   CDf =  0.00539    CDp =  0.02891

 Side 1  free  transition at x/c =  0.0077   20
 Side 2 forced transition at x/c =  1.0000   69

   4   rms: 0.8794E-05   max: 0.6721E-04   D at   80  2
       a = 13.750      CL =  1.3733
      Cm = -0.0065     CD =  0.03430   =>   CDf =  0.00539    CDp =  0.02891
 plradd ia,ip,cpol           43           0 -3.20549443E-05

 Point added to stored polar  1
 Point written to save file  rg15a111_Re600k.base.pol                        
 Dump file unspecified or not available
 Calculating wake trajectory ...
 Calculating source influence matrix ...

 Solving BL system ...

 Side 1  free  transition at x/c =  0.0077   20
 Side 2 forced transition at x/c =  1.0000   69

   1   rms: 0.3954E-01   max: 0.1288E+00   D at   73  1   RLX: 0.856
       a = 14.000      CL =  1.3740
      Cm = -0.0056     CD =  0.03638   =>   CDf =  0.00539    CDp =  0.03099

 Side 1  free  transition at x/c =  0.0074   20
 Side 2 forced transition at x/c =  1.0000   69

   2   rms: 0.1102E-01   max: 0.6162E-01   D at   75  1
       a = 14.000      CL =  1.3693
      Cm = -0.0054     CD =  0.03702   =>   CDf =  0.00531    CDp =  0.03172

 Side 1  free  transition at x/c =  0.0073   20
 Side 2 forced transition at x/c =  1.0000   69

   3   rms: 0.9841E-03   max: 0.1027E-01   D at   74  1
       a = 14.000      CL =  1.3688
      Cm = -0.0054     CD =  0.03697   =>   CDf =  0.00528    CDp =  0.03169

 Side 1  free  transition at x/c =  0.0074   20
 Side 2 forced transition at x/c =  1.0000   69

   4   rms: 0.2572E-04   max: 0.3929E-03   D at   80  2
       a = 14.000      CL =  1.3688
      Cm = -0.0054     CD =  0.03697   =>   CDf =  0.00528    CDp =  0.03169
 plradd ia,ip,cpol           44           0 -3.20549443E-05

 Point added to stored polar  1
 Point written to save file  rg15a111_Re600k.base.pol                        
 Dump file unspecified or not available
 Calculating wake trajectory ...
 Calculating source influence matrix ...

 Solving BL system ...

 Side 1  free  transition at x/c =  0.0074   20
 Side 2 forced transition at x/c =  1.0000   69

   1   rms: 0.4674E-01   max: 0.1651E+00   D at   71  1   RLX: 0.802
       a = 14.250      CL =  1.3643
      Cm = -0.0048     CD =  0.03969   =>   CDf =  0.00528    CDp =  0.03441

 Side 1  free  transition at x/c =  0.0071   20
 Side 2 forced transition at x/c =  1.0000   69

   2   rms: 0.1689E-01   max: 0.9084E-01   D at   73  1
       a = 14.250      CL =  1.3569
      Cm = -0.0047     CD =  0.04076   =>   CDf =  0.00518    CDp =  0.03559

 Side 1  free  transition at x/c =  0.0070   20
 Side 2 forced transition at x/c =  1.0000   69

   3   rms: 0.1294E-02   max: 0.1294E-01   D at   71  1
       a = 14.250      CL =  1.3563
      Cm = -0.0047     CD =  0.04065   =>   CDf =  0.00514    CDp =  0.03551

 Side 1  free  transition at x/c =  0.0070   20
 Side 2 forced transition at x/c =  1.0000   69

   4   rms: 0.2030E-04   max: 0.1972E-03   D at   81  2
       a = 14.250      CL =  1.3563
      Cm = -0.0047     CD =  0.04064   =>   CDf =  0.00514    CDp =  0.03550
 plradd ia,ip,cpol           45           0 -3.20549443E-05

 Point added to stored polar  1
 Point written to save file  rg15a111_Re600k.base.pol                        
 Dump file unspecified or not available
 Calculating wake trajectory ...
 Calculating source influence matrix ...

 Solving BL system ...

 Side 1  free  transition at x/c =  0.0070   20
 Side 2 forced transition at x/c =  1.0000   69

   1   rms: 0.4472E-01   max: 0.1624E+00   D at   68  1   RLX: 0.753
       a = 14.500      CL =  1.3528
      Cm = -0.0046     CD =  0.04339   =>   CDf =  0.00514    CDp =  0.03825

 Side 1  free  transition at x/c =  0.0070   19
 Side 2 forced transition at x/c =  1.0000   69

   2   rms: 0.1093E-01   max: 0.6291E-01   D at   70  1
       a = 14.500      CL =  1.3513
      Cm = -0.0046     CD =  0.04398   =>   CDf =  0.00504    CDp =  0.03894

 Side 1  free  transition at x/c =  0.0070   19
 Side 2 forced transition at x/c =  1.0000   69

   3   rms: 0.1242E-02   max: 0.9948E-02   D at   81  2
       a = 14.500      CL =  1.3506
      Cm = -0.0045     CD =  0.04391   =>   CDf =  0.00501    CDp =  0.03890

 Side 1  free  transition at x/c =  0.0070   19
 Side 2 forced transition at x/c =  1.0000   69

   4   rms: 0.7072E-04   max: 0.7313E-03   D at   81  2
       a = 14.500      CL =  1.3505
      Cm = -0.0045     CD =  0.04390   =>   CDf =  0.00501    CDp =  0.03889
 plradd ia,ip,cpol           46           0 -3.20549443E-05

 Point added to stored polar  1
 Point written to save file  rg15a111_Re600k.base.pol                        
 Dump file unspecified or not available
 Calculating wake trajectory ...
 Calculating source influence matrix ...

 Solving BL system ...

 Side 1  free  transition at x/c =  0.0070   19
 Side 2 forced transition at x/c =  1.0000   69

   1   rms: 0.3624E-01   max: 0.1566E+00   T at   19  1   RLX: 0.726
       a = 14.750      CL =  1.3535
      Cm = -0.0047     CD =  0.04594   =>   CDf =  0.00443    CDp =  0.04152

 Side 1  free  transition at x/c =  0.0068   20
 Side 2 forced transition at x/c =  1.0000   68

   2   rms: 0.1386E-01   max: 0.5977E-01   D at   68  1
       a = 14.750      CL =  1.3506
      Cm = -0.0048     CD =  0.04698   =>   CDf =  0.00490    CDp =  0.04208

 Side 1  free  transition at x/c =  0.0067   20
 Side 2 forced transition at x/c =  1.0000   68

   3   rms: 0.2011E-02   max: 0.1046E-01   D at   68  1
       a = 14.750      CL =  1.3493
      Cm = -0.0048     CD =  0.04691   =>   CDf =  0.00486    CDp =  0.04205

 Side 1  free  transition at x/c =  0.0067   20
 Side 2 forced transition at x/c =  1.0000   68

   4   rms: 0.1238E-03   max: 0.7782E-03   D at   81  2
       a = 14.750      CL =  1.3492
      Cm = -0.0047     CD =  0.04689   =>   CDf =  0.00485    CDp =  0.04204

 Side 1  free  transition at x/c =  0.0067   20
 Side 2 forced transition at x/c =  1.0000   68

   5   rms: 0.4560E-05   max: -.6192E-04   C at   68  2
       a = 14.750      CL =  1.3492
      Cm = -0.0047     CD =  0.04689   =>   CDf =  0.00485    CDp =  0.04204
 plradd ia,ip,cpol           47           0 -3.20549443E-05

 Point added to stored polar  1
 Point written to save file  rg15a111_Re600k.base.pol                        
 Dump file unspecified or not available
 Calculating wake trajectory ...
 Calculating source influence matrix ...

 Solving BL system ...

 Side 1  free  transition at x/c =  0.0067   20
 Side 2 forced transition at x/c =  1.0000   68

   1   rms: 0.4000E-01   max: 0.1469E+00   D at   65  1   RLX: 0.690
       a = 15.000      CL =  1.3483
      Cm = -0.0052     CD =  0.04954   =>   CDf =  0.00486    CDp =  0.04468

 Side 1  free  transition at x/c =  0.0067   20
 Side 2 forced transition at x/c =  1.0000   68

   2   rms: 0.1546E-01   max: 0.7164E-01   D at   66  1
       a = 15.000      CL =  1.3449
      Cm = -0.0055     CD =  0.05072   =>   CDf =  0.00477    CDp =  0.04595

 Side 1  free  transition at x/c =  0.0067   20
 Side 2 forced transition at x/c =  1.0000   68

   3   rms: 0.2388E-02   max: 0.1271E-01   D at   65  1
       a = 15.000      CL =  1.3434
      Cm = -0.0054     CD =  0.05062   =>   CDf =  0.00472    CDp =  0.04589

 Side 1  free  transition at x/c =  0.0067   20
 Side 2 forced transition at x/c =  1.0000   68

   4   rms: 0.1562E-03   max: 0.1138E-02   D at   81  2
       a = 15.000      CL =  1.3433
      Cm = -0.0054     CD =  0.05059   =>   CDf =  0.00472    CDp =  0.04587

 Side 1  free  transition at x/c =  0.0067   20
 Side 2 forced transition at x/c =  1.0000   68

   5   rms: 0.6361E-05   max: -.9082E-04   C at   68  2
       a = 15.000      CL =  1.3433
      Cm = -0.0054     CD =  0.05059   =>   CDf =  0.00472    CDp =  0.04587
 plradd ia,ip,cpol           48           0 -3.20549443E-05

 Point added to stored polar  1
 Point written to save file  rg15a111_Re600k.base.pol                        
 Dump file unspecified or not available
 Calculating wake trajectory ...
 Calculating source influence matrix ...

 Solving BL system ...

 Side 1  free  transition at x/c =  0.0067   20
 Side 2 forced transition at x/c =  1.0000   68

   1   rms: 0.3867E-01   max: 0.1432E+00   D at   63  1   RLX: 0.660
       a = 15.250      CL =  1.3430
      Cm = -0.0061     CD =  0.05323   =>   CDf =  0.00473    CDp =  0.04850

 Side 1  free  transition at x/c =  0.0066   20
 Side 2 forced transition at x/c =  1.0000   68

   2   rms: 0.1600E-01   max: 0.7512E-01   D at   64  1
       a = 15.250      CL =  1.3399
      Cm = -0.0064     CD =  0.05456   =>   CDf =  0.00464    CDp =  0.04992

 Side 1  free  transition at x/c =  0.0066   20
 Side 2 forced transition at x/c =  1.0000   68

   3   rms: 0.2783E-02   max: 0.1678E-01   D at   81  2
       a = 15.250      CL =  1.3381
      Cm = -0.0064     CD =  0.05445   =>   CDf =  0.00459    CDp =  0.04986

 Side 1  free  transition at x/c =  0.0066   20
 Side 2 forced transition at x/c =  1.0000   68

   4   rms: 0.1874E-03   max: 0.1328E-02   D at   81  2
       a = 15.250      CL =  1.3380
      Cm = -0.0064     CD =  0.05442   =>   CDf =  0.00459    CDp =  0.04983

 Side 1  free  transition at x/c =  0.0066   20
 Side 2 forced transition at x/c =  1.0000   68

   5   rms: 0.6248E-05   max: -.1050E-03   C at   68  2
       a = 15.250      CL =  1.3380
      Cm = -0.0064     CD =  0.05442   =>   CDf =  0.00459    CDp =  0.04983
 plradd ia,ip,cpol           49           0 -3.20549443E-05

 Point added to stored polar  1
 Point written to save file  rg15a111_Re600k.base.pol                        
 Dump file unspecified or not available
 Calculating wake trajectory ...
 Calculating source influence matrix ...

 Solving BL system ...

 Side 1  free  transition at x/c =  0.0066   20
 Side 2 forced transition at x/c =  1.0000   68

   1   rms: 0.4212E-01   max: 0.1616E+00   D at   61  1   RLX: 0.630
       a = 15.500      CL =  1.3359
      Cm = -0.0073     CD =  0.05741   =>   CDf =  0.00459    CDp =  0.05282

 Side 1  free  transition at x/c =  0.0065   20
 Side 2 forced transition at x/c =  1.0000   68

   2   rms: 0.1946E-01   max: 0.9272E-01   D at   62  1
       a = 15.500      CL =  1.3312
      Cm = -0.0079     CD =  0.05920   =>   CDf =  0.00450    CDp =  0.05470

 Side 1  free  transition at x/c =  0.0065   20
 Side 2 forced transition at x/c =  1.0000   68

   3   rms: 0.3610E-02   max: 0.2352E-01   D at   61  1
       a = 15.500      CL =  1.3289
      Cm = -0.0079     CD =  0.05907   =>   CDf =  0.00444    CDp =  0.05462

 Side 1  free  transition at x/c =  0.0065   20
 Side 2 forced transition at x/c =  1.0000   68

   4   rms: 0.2908E-03   max: 0.1881E-02   D at   82  2
       a = 15.500      CL =  1.3287
      Cm = -0.0079     CD =  0.05902   =>   CDf =  0.00444    CDp =  0.05458

 Side 1  free  transition at x/c =  0.0065   20
 Side 2 forced transition at x/c =  1.0000   68

   5   rms: 0.1291E-04   max: 0.1000E-03   D at   82  2
       a = 15.500      CL =  1.3287
      Cm = -0.0079     CD =  0.05902   =>   CDf =  0.00444    CDp =  0.05458
 plradd ia,ip,cpol           50           0 -3.20549443E-05

 Point added to stored polar  1
 Point written to save file  rg15a111_Re600k.base.pol                        
 Dump file unspecified or not available
 Calculating wake trajectory ...
 Calculating source influence matrix ...

 Solving BL system ...

 Side 1  free  transition at x/c =  0.0065   20
 Side 2 forced transition at x/c =  1.0000   68

   1   rms: 0.4201E-01   max: 0.1658E+00   D at   59  1   RLX: 0.601
       a = 15.750      CL =  1.3266
      Cm = -0.0091     CD =  0.06215   =>   CDf =  0.00445    CDp =  0.05770

 Side 1  free  transition at x/c =  0.0064   20
 Side 2 forced transition at x/c =  1.0000   68

   2   rms: 0.2027E-01   max: 0.9110E-01   D at   59  1
       a = 15.750      CL =  1.3219
      Cm = -0.0099     CD =  0.06419   =>   CDf =  0.00436    CDp =  0.05983

 Side 1  free  transition at x/c =  0.0064   20
 Side 2 forced transition at x/c =  1.0000   68

   3   rms: 0.3915E-02   max: 0.1905E-01   D at   58  1
       a = 15.750      CL =  1.3193
      Cm = -0.0098     CD =  0.06399   =>   CDf =  0.00430    CDp =  0.05969

 Side 1  free  transition at x/c =  0.0064   20
 Side 2 forced transition at x/c =  1.0000   68

   4   rms: 0.3501E-03   max: 0.3416E-02   D at   82  2
       a = 15.750      CL =  1.3191
      Cm = -0.0098     CD =  0.06393   =>   CDf =  0.00430    CDp =  0.05963

 Side 1  free  transition at x/c =  0.0064   20
 Side 2 forced transition at x/c =  1.0000   68

   5   rms: 0.1618E-04   max: 0.1947E-03   D at   82  2
       a = 15.750      CL =  1.3191
      Cm = -0.0098     CD =  0.06393   =>   CDf =  0.00430    CDp =  0.05963
 plradd ia,ip,cpol           51           0 -3.20549443E-05

 Point added to stored polar  1
 Point written to save file  rg15a111_Re600k.base.pol                        
 Dump file unspecified or not available
 Calculating wake trajectory ...
 Calculating source influence matrix ...

 Solving BL system ...

 Side 1  free  transition at x/c =  0.0064   20
 Side 2 forced transition at x/c =  1.0000   68

   1   rms: 0.4106E-01   max: 0.1654E+00   D at   56  1   RLX: 0.575
       a = 16.000      CL =  1.3171
      Cm = -0.0111     CD =  0.06712   =>   CDf =  0.00430    CDp =  0.06281

 Side 1  free  transition at x/c =  0.0064   20
 Side 2 forced transition at x/c =  1.0000   68

   2   rms: 0.2090E-01   max: 0.9649E-01   D at   57  1
       a = 16.000      CL =  1.3123
      Cm = -0.0120     CD =  0.06940   =>   CDf =  0.00423    CDp =  0.06517

 Side 1  free  transition at x/c =  0.0064   20
 Side 2 forced transition at x/c =  1.0000   68

   3   rms: 0.4415E-02   max: 0.2393E-01   D at   56  1
       a = 16.000      CL =  1.3095
      Cm = -0.0120     CD =  0.06916   =>   CDf =  0.00417    CDp =  0.06499

 Side 1  free  transition at x/c =  0.0064   20
 Side 2 forced transition at x/c =  1.0000   68

   4   rms: 0.3631E-03   max: 0.2095E-02   D at   83  2
       a = 16.000      CL =  1.3093
      Cm = -0.0120     CD =  0.06908   =>   CDf =  0.00417    CDp =  0.06492

 Side 1  free  transition at x/c =  0.0064   20
 Side 2 forced transition at x/c =  1.0000   68

   5   rms: 0.1542E-04   max: 0.1323E-03   D at   82  2
       a = 16.000      CL =  1.3093
      Cm = -0.0120     CD =  0.06908   =>   CDf =  0.00417    CDp =  0.06491
 plradd ia,ip,cpol           52           0 -3.20549443E-05

 Point added to stored polar  1
 Point written to save file  rg15a111_Re600k.base.pol                        
 Dump file unspecified or not available

.OPERva   c>  
 Polar accumulation disabled

.OPERv   c>  
 XFOIL   c>  
 XFOIL   c>  