  
       XFOIL         Version 6.99
  
 Calculated polar for: SOMERS S102 AIRFOIL (BLUNT)                     
  
 1 1 Reynolds number fixed          Mach number fixed         
  
 xtrf =   1.000 (top)        1.000 (bottom)  
 Mach =   0.000     Re =     0.400 e 6     Ncrit =   9.000
  
   alpha    CL        CD       CDp       CM     Top_Xtr  Bot_Xtr
  ------ -------- --------- --------- -------- -------- --------
  -4.000  -0.1134   0.00895   0.00378  -0.0757   0.7814   0.5377
  -3.500  -0.0545   0.00988   0.00461  -0.0757   0.7727   0.6030
  -3.000   0.0014   0.01084   0.00556  -0.0746   0.7656   0.6290
  -2.500   0.0549   0.01189   0.00669  -0.0727   0.7589   0.6533
  -2.000   0.1140   0.01177   0.00643  -0.0737   0.7522   0.6560
  -1.500   0.1738   0.01167   0.00618  -0.0750   0.7469   0.6582
  -1.000   0.2337   0.01153   0.00596  -0.0764   0.7413   0.6603
  -0.500   0.2939   0.01144   0.00577  -0.0778   0.7359   0.6625
   0.000   0.3530   0.01132   0.00555  -0.0788   0.7255   0.6644
   0.500   0.4120   0.01119   0.00529  -0.0797   0.7135   0.6659
   1.000   0.4697   0.01100   0.00504  -0.0802   0.7005   0.6676
   1.500   0.5270   0.01085   0.00490  -0.0807   0.6864   0.6696
   2.000   0.5843   0.01073   0.00476  -0.0811   0.6706   0.6714
   2.500   0.6419   0.01067   0.00473  -0.0817   0.6572   0.6734
   3.000   0.6991   0.01061   0.00470  -0.0822   0.6408   0.6756
   3.500   0.7554   0.01056   0.00465  -0.0824   0.6168   0.6780
   4.000   0.8102   0.01058   0.00464  -0.0824   0.5751   0.6807
   4.500   0.8427   0.01219   0.00521  -0.0788   0.3570   0.6830
   5.000   0.8780   0.01395   0.00627  -0.0762   0.2256   0.6853
   5.500   0.9221   0.01493   0.00706  -0.0749   0.1882   0.6880
   6.000   0.9671   0.01578   0.00786  -0.0736   0.1709   0.6911
   6.500   1.0131   0.01652   0.00861  -0.0725   0.1598   0.6945
   7.000   1.0573   0.01735   0.00949  -0.0711   0.1512   0.6978
   7.500   1.0977   0.01826   0.01047  -0.0692   0.1436   0.7016
   8.000   1.1377   0.01915   0.01149  -0.0671   0.1376   0.7060
   8.500   1.1742   0.02003   0.01246  -0.0645   0.1315   0.7108
   9.000   1.2095   0.02134   0.01385  -0.0621   0.1257   0.7155
   9.500   1.2484   0.02226   0.01498  -0.0603   0.1201   0.7212
  10.000   1.2818   0.02375   0.01650  -0.0580   0.1137   0.7278
  10.000   1.2818   0.02375   0.01650  -0.0580   0.1137   0.7278
  10.250   1.3001   0.02431   0.01719  -0.0571   0.1114   0.7313
  10.500   1.3183   0.02481   0.01783  -0.0563   0.1085   0.7351
  10.750   1.3356   0.02539   0.01850  -0.0554   0.1054   0.7396
  11.000   1.3513   0.02614   0.01928  -0.0544   0.1023   0.7446
  11.250   1.3655   0.02707   0.02029  -0.0532   0.0990   0.7496
  11.500   1.3829   0.02765   0.02103  -0.0525   0.0961   0.7560
  11.750   1.3997   0.02829   0.02179  -0.0518   0.0925   0.7628
  12.000   1.4129   0.02922   0.02276  -0.0509   0.0887   0.7704
  12.250   1.4284   0.03004   0.02372  -0.0502   0.0852   0.7797
  12.500   1.4451   0.03076   0.02459  -0.0496   0.0812   0.7918
  12.750   1.4575   0.03182   0.02572  -0.0488   0.0773   0.8074
  13.000   1.4712   0.03274   0.02684  -0.0479   0.0735   0.8312
  13.250   1.4804   0.03342   0.02780  -0.0460   0.0694   0.9073
  13.500   1.4858   0.03478   0.02916  -0.0445   0.0653   1.0000
  13.750   1.5002   0.03589   0.03038  -0.0440   0.0608   1.0000
  14.000   1.5074   0.03763   0.03209  -0.0432   0.0562   1.0000
  14.250   1.5182   0.03905   0.03360  -0.0426   0.0519   1.0000
  14.500   1.5216   0.04118   0.03572  -0.0417   0.0476   1.0000
  14.750   1.5294   0.04292   0.03756  -0.0410   0.0436   1.0000
  15.000   1.5292   0.04544   0.04010  -0.0401   0.0401   1.0000
  15.250   1.5339   0.04755   0.04232  -0.0395   0.0368   1.0000
  15.500   1.5326   0.05033   0.04513  -0.0388   0.0339   1.0000
  15.750   1.5322   0.05310   0.04800  -0.0383   0.0314   1.0000
  16.000   1.5312   0.05599   0.05097  -0.0380   0.0289   1.0000
