
 ===================================================
  XFOIL Version 6.99
  Copyright (C) 2000   Mark Drela, Harold Youngren

  This software comes with ABSOLUTELY NO WARRANTY,
    subject to the GNU General Public License.

  Caveat computor
 ===================================================

 File  xfoil.def  not found

   QUIT    Exit program

  .OPER    Direct operating point(s)
  .MDES    Complex mapping design routine
  .QDES    Surface speed design routine
  .GDES    Geometry design routine

   SAVE f  Write airfoil to labeled coordinate file
   PSAV f  Write airfoil to plain coordinate file
   ISAV f  Write airfoil to ISES coordinate file
   MSAV f  Write airfoil to MSES coordinate file
   REVE    Reverse written-airfoil node ordering

   LOAD f  Read buffer airfoil from coordinate file
   NACA i  Set NACA 4,5-digit airfoil and buffer airfoil
   INTE    Set buffer airfoil by interpolating two airfoils
   NORM    Buffer airfoil normalization toggle
   XYCM rr Change CM reference location, currently  0.25000 0.00000

   BEND    Display structural properties of current airfoil

   PCOP    Set current-airfoil panel nodes directly from buffer airfoil points
   PANE    Set current-airfoil panel nodes ( 160 ) based on curvature
  .PPAR    Show/change paneling

  .PLOP    Plotting options

   WDEF f  Write  current-settings file
   RDEF f  Reread current-settings file
   NAME s  Specify new airfoil name
   NINC    Increment name version number

   Z       Zoom    | (available in all menus)
   U       Unzoom  | 

 XFOIL   c>  
 Labeled airfoil file.  Name:         S1048 14% (Danny Howell)                 

 Number of input coordinate points:  61
 Counterclockwise ordering
 Max thickness =     0.139700  at x =   0.270
 Max camber    =     0.000000  at x =   0.615

  LE  x,y  =   0.00000   0.00000  |   Chord =   1.00000
  TE  x,y  =   1.00000   0.00000  |

 Current airfoil nodes set from buffer airfoil nodes (  61 )

 WARNING: Poor input coordinate distribution
          Excessive panel angle   45.6  at i =  31
          Repaneling with PANE and/or PPAR suggested
           (doing GDES,CADD before repaneling _may_
            improve excessively coarse LE spacing

 XFOIL   c>  
 XFOIL   c>  
 Sharp trailing edge

 Paneling parameters used...
   Number of panel nodes       160
   Panel bunching parameter    1.000
   TE/LE panel density ratio   0.150
   Refined-area/LE panel density ratio    0.200
   Top    side refined area x/c limits  1.000 1.000
   Bottom side refined area x/c limits  1.000 1.000

 XFOIL   c>  
.OPERi   c>  
 Xtr/c     =  1.0000    top    side
 Xtr/c     =  1.0000    bottom side
 Ncrit     =    9.00   ( 0.070 % turb. level )
 Vacc      =  0.0100

 Klag  =  5.6000     Uxwt  =    1.00
 A     =  6.7000     B     =  0.7500       KCt = 0.01485
 CtiniK=  1.8000     CtiniX=  3.3000

..VPAR   c>  
..VPAR   c>  
.OPERi   c>  
 M  =    0.0000
 Re =    150000

.OPERv   c>  
.OPERv   c>  
.OPERv   c>  
 Polar  1 newly created for accumulation
 Airfoil archived with polar: S1048 14% (Danny Howell)                        

Enter  polar save filename  OR  <return> for no file   s>  
 New polar save file available

Enter  polar dump filename  OR  <return> for no file   s>  
 Polar dump file will NOT be written

 Polar accumulation enabled

.OPERva   c>   Calculating unit vorticity distributions ...
 Calculating wake trajectory ...
 Calculating source influence matrix ...

 Solving BL system ...

 Initializing BL ...
    side            1  ...
 MRCHUE: Inverse mode at  49     Hk =   3.808
 MRCHUE: Inverse mode at  50     Hk =   4.117
 MRCHUE: Inverse mode at  51     Hk =   4.421
 MRCHUE: Inverse mode at  52     Hk =   4.720
 MRCHUE: Inverse mode at  53     Hk =   5.014
 MRCHUE: Inverse mode at  54     Hk =   5.304
 MRCHUE: Inverse mode at  55     Hk =   5.590
 MRCHUE: Inverse mode at  56     Hk =   5.872
 MRCHUE: Inverse mode at  57     Hk =   6.151
 MRCHUE: Inverse mode at  58     Hk =   6.427
 MRCHUE: Inverse mode at  59     Hk =   6.699
 MRCHUE: Inverse mode at  60     Hk =   6.969
 MRCHUE: Inverse mode at  61     Hk =   7.236
 MRCHUE: Inverse mode at  62     Hk =   7.501
 MRCHUE: Inverse mode at  63     Hk =   7.763
 MRCHUE: Inverse mode at  64     Hk =   8.023
 MRCHUE: Inverse mode at  65     Hk =   8.282
 MRCHUE: Inverse mode at  66     Hk =   8.538
 MRCHUE: Inverse mode at  67     Hk =   8.793
 MRCHUE: Inverse mode at  68     Hk =   9.045
 MRCHUE: Inverse mode at  69     Hk =   8.942
 MRCHUE: Inverse mode at  70     Hk =   7.775
 MRCHUE: Inverse mode at  71     Hk =   6.904
 MRCHUE: Inverse mode at  72     Hk =   6.218
 MRCHUE: Inverse mode at  73     Hk =   5.668
 MRCHUE: Inverse mode at  74     Hk =   5.258
 MRCHUE: Inverse mode at  75     Hk =   5.054
    side            2  ...
 MRCHUE: Inverse mode at  38     Hk =   3.943
 MRCHUE: Inverse mode at  39     Hk =   4.392
 MRCHUE: Inverse mode at  40     Hk =   4.829
 MRCHUE: Inverse mode at  41     Hk =   5.255
 MRCHUE: Inverse mode at  42     Hk =   5.672
 MRCHUE: Inverse mode at  43     Hk =   6.080
 MRCHUE: Inverse mode at  44     Hk =   6.482
 MRCHUE: Inverse mode at  45     Hk =   6.877
 MRCHUE: Inverse mode at  46     Hk =   7.267
 MRCHUE: Inverse mode at  47     Hk =   7.652
 MRCHUE: Inverse mode at  48     Hk =   8.033
 MRCHUE: Inverse mode at  49     Hk =   8.410
 MRCHUE: Inverse mode at  50     Hk =   8.783
 MRCHUE: Inverse mode at  51     Hk =   9.152
 MRCHUE: Inverse mode at  52     Hk =   7.686
 MRCHUE: Inverse mode at  53     Hk =   6.388
 MRCHUE: Inverse mode at  54     Hk =   5.423
 MRCHUE: Inverse mode at  55     Hk =   4.650
 MRCHUE: Inverse mode at  56     Hk =   4.006
 MRCHUE: Inverse mode at  57     Hk =   3.457

 Side 1  free  transition at x/c =  0.9217   69
 Side 2  free  transition at x/c =  0.4808   52

   1   rms: 0.1741E+00   max: -.1237E+01   T at   69  1   RLX: 0.404
       a = -4.000      CL = -0.4418
      Cm = -0.0083     CD =  0.01710   =>   CDf =  0.00715    CDp =  0.00996

 Side 1  free  transition at x/c =  0.9575   73
 Side 2  free  transition at x/c =  0.4918   51

   2   rms: 0.1625E+00   max: -.1049E+01   T at   51  2   RLX: 0.477
       a = -4.000      CL = -0.4694
      Cm = -0.0031     CD =  0.01621   =>   CDf =  0.00700    CDp =  0.00921

 MRCHDU: Convergence failed at  53  side 2    Res =  0.2521E+02
 MRCHDU: Convergence failed at  54  side 2    Res =  0.5089E+01
 MRCHDU: Convergence failed at  55  side 2    Res =  0.1912E+02
 MRCHDU: Convergence failed at  56  side 2    Res =  0.7740E+01
 MRCHDU: Convergence failed at  57  side 2    Res =  0.4779E+01
 MRCHDU: Convergence failed at  58  side 2    Res =  0.5783E+01
 MRCHDU: Convergence failed at  59  side 2    Res =  0.7123E+01
 MRCHDU: Convergence failed at  60  side 2    Res =  0.8732E+01
 MRCHDU: Convergence failed at  61  side 2    Res =  0.1050E+02
 MRCHDU: Convergence failed at  62  side 2    Res =  0.1238E+02
 MRCHDU: Convergence failed at  63  side 2    Res =  0.1428E+02
 MRCHDU: Convergence failed at  64  side 2    Res =  0.1608E+02
 MRCHDU: Convergence failed at  65  side 2    Res =  0.1773E+02
 MRCHDU: Convergence failed at  66  side 2    Res =  0.1911E+02
 MRCHDU: Convergence failed at  67  side 2    Res =  0.2012E+02
 MRCHDU: Convergence failed at  68  side 2    Res =  0.2077E+02
 MRCHDU: Convergence failed at  69  side 2    Res =  0.2111E+02
 MRCHDU: Convergence failed at  70  side 2    Res =  0.2117E+02
 MRCHDU: Convergence failed at  71  side 2    Res =  0.2089E+02
 MRCHDU: Convergence failed at  72  side 2    Res =  0.2059E+02
 MRCHDU: Convergence failed at  73  side 2    Res =  0.2017E+02
 MRCHDU: Convergence failed at  74  side 2    Res =  0.1969E+02
 MRCHDU: Convergence failed at  75  side 2    Res =  0.1907E+02
 MRCHDU: Convergence failed at  76  side 2    Res =  0.1848E+02
 MRCHDU: Convergence failed at  77  side 2    Res =  0.1794E+02
 MRCHDU: Convergence failed at  78  side 2    Res =  0.1738E+02
 MRCHDU: Convergence failed at  79  side 2    Res =  0.1675E+02
 MRCHDU: Convergence failed at  80  side 2    Res =  0.1615E+02
 MRCHDU: Convergence failed at  81  side 2    Res =  0.1567E+02
 MRCHDU: Convergence failed at  82  side 2    Res =  0.1508E+02
 MRCHDU: Convergence failed at  83  side 2    Res =  0.1413E+02
 MRCHDU: Convergence failed at  84  side 2    Res =  0.1274E+02
 MRCHDU: Convergence failed at  85  side 2    Res =  0.1513E+02
 MRCHDU: Convergence failed at  86  side 2    Res =  0.1696E+02
 Side 1  free  transition at x/c =  0.9563   73
 Side 2  free  transition at x/c =  0.5173   53

   3   rms: 0.4804E+00   max: 0.2879E+01   D at   88  2   RLX: 0.521
       a = -4.000      CL = -0.5808
      Cm =  0.0662     CD =  0.00873   =>   CDf =  0.00493    CDp =  0.00380

 MRCHDU: Convergence failed at  88  side 2    Res =  0.2531E+01
 MRCHDU: Convergence failed at  89  side 2    Res =  0.1848E+01
 MRCHDU: Convergence failed at  90  side 2    Res =  0.3527E+01
 MRCHDU: Convergence failed at  91  side 2    Res =  0.2463E+02
 Side 1  free  transition at x/c =  0.9738   74
 Side 2  free  transition at x/c =  0.4991   52
 idif Ue xi dudx           1  0.18221383      3.33333015E-03   54.664200    
 Uenew xinew           2  1.52029488E-02  2.78115273E-04

   4   rms: 0.1507E+00   max: 0.3522E+00   T at   87  2   RLX: 0.818
       a = -4.000      CL = -0.5241
      Cm =  0.0171     CD =  0.01259   =>   CDf =  0.00808    CDp =  0.00451

 Side 1  free  transition at x/c =  0.9525   71
 Side 2  free  transition at x/c =  0.5076   53

   5   rms: 0.5407E-01   max: -.3177E+00   T at    2  2
       a = -4.000      CL = -0.4734
      Cm = -0.0005     CD =  0.01433   =>   CDf =  0.00737    CDp =  0.00696

 Side 1  free  transition at x/c =  0.9705   74
 Side 2  free  transition at x/c =  0.5189   53

   6   rms: 0.3952E-01   max: 0.2931E+00   C at   53  2
       a = -4.000      CL = -0.4797
      Cm =  0.0008     CD =  0.01412   =>   CDf =  0.00669    CDp =  0.00743

 Side 1  free  transition at x/c =  0.9661   73
 Side 2  free  transition at x/c =  0.5141   53
 idif Ue xi dudx           1  0.17021573      3.08823586E-03   55.117462    
 Uenew xinew           2  1.82003225E-03  3.30209732E-05

   7   rms: 0.1753E-01   max: 0.1079E+00   D at   76  1
       a = -4.000      CL = -0.4914
      Cm =  0.0033     CD =  0.01426   =>   CDf =  0.00660    CDp =  0.00766

 Side 1  free  transition at x/c =  0.9579   72
 Side 2  free  transition at x/c =  0.5099   54

   8   rms: 0.2655E-01   max: -.4455E+00   T at    2  2
       a = -4.000      CL = -0.4881
      Cm =  0.0026     CD =  0.01427   =>   CDf =  0.00707    CDp =  0.00721

 Side 1  free  transition at x/c =  0.9603   73
 Side 2  free  transition at x/c =  0.5106   53

   9   rms: 0.2651E-02   max: -.3409E-01   D at    3  2
       a = -4.000      CL = -0.4879
      Cm =  0.0026     CD =  0.01428   =>   CDf =  0.00686    CDp =  0.00741

 Side 1  free  transition at x/c =  0.9606   73
 Side 2  free  transition at x/c =  0.5107   53

  10   rms: 0.1165E-02   max: 0.1414E-01   D at    4  1
       a = -4.000      CL = -0.4879
      Cm =  0.0026     CD =  0.01428   =>   CDf =  0.00686    CDp =  0.00741

 Side 1  free  transition at x/c =  0.9606   73
 Side 2  free  transition at x/c =  0.5107   53

  11   rms: 0.6422E-05   max: 0.7781E-04   D at    4  1
       a = -4.000      CL = -0.4879
      Cm =  0.0026     CD =  0.01428   =>   CDf =  0.00686    CDp =  0.00741
 plradd ia,ip,cpol            1           0  3.48067656E-02

 Point added to stored polar  1
 Point written to save file  s1048_Re150k.base.pol                           
 Dump file unspecified or not available
 Calculating wake trajectory ...
 Calculating source influence matrix ...

 Solving BL system ...

 Side 1  free  transition at x/c =  0.9606   73
 Side 2  free  transition at x/c =  0.5107   53

   1   rms: 0.1143E+00   max: -.5957E+00   T at   53  2   RLX: 0.839
       a = -3.500      CL = -0.4109
      Cm = -0.0032     CD =  0.01401   =>   CDf =  0.00686    CDp =  0.00715

 Side 1  free  transition at x/c =  0.9452   72
 Side 2  free  transition at x/c =  0.5314   54

   2   rms: 0.3947E-01   max: -.2432E+00   T at   54  2
       a = -3.500      CL = -0.4011
      Cm = -0.0036     CD =  0.01394   =>   CDf =  0.00696    CDp =  0.00698

 Side 1  free  transition at x/c =  0.9393   71
 Side 2  free  transition at x/c =  0.5460   55

   3   rms: 0.2091E-01   max: 0.1751E+00   D at   56  2
       a = -3.500      CL = -0.3891
      Cm = -0.0058     CD =  0.01389   =>   CDf =  0.00676    CDp =  0.00712

 Side 1  free  transition at x/c =  0.9489   72
 Side 2  free  transition at x/c =  0.5441   55

   4   rms: 0.2424E-01   max: 0.1689E+00   D at   74  1
       a = -3.500      CL = -0.3972
      Cm = -0.0042     CD =  0.01390   =>   CDf =  0.00682    CDp =  0.00708

 Side 1  free  transition at x/c =  0.9421   72
 Side 2  free  transition at x/c =  0.5423   55

   5   rms: 0.1420E-02   max: 0.8385E-02   T at   72  1
       a = -3.500      CL = -0.3982
      Cm = -0.0040     CD =  0.01394   =>   CDf =  0.00683    CDp =  0.00711

 Side 1  free  transition at x/c =  0.9416   72
 Side 2  free  transition at x/c =  0.5423   55

   6   rms: 0.7367E-04   max: -.5110E-03   D at   74  1
       a = -3.500      CL = -0.3982
      Cm = -0.0040     CD =  0.01394   =>   CDf =  0.00683    CDp =  0.00711
 plradd ia,ip,cpol            2           0  6.68289512E-02

 Point added to stored polar  1
 Point written to save file  s1048_Re150k.base.pol                           
 Dump file unspecified or not available
 Calculating wake trajectory ...
 Calculating source influence matrix ...

 Solving BL system ...

 Side 1  free  transition at x/c =  0.9417   72
 Side 2  free  transition at x/c =  0.5423   55

   1   rms: 0.1122E+00   max: -.5364E+00   T at   55  2   RLX: 0.932
       a = -3.000      CL = -0.3114
      Cm = -0.0104     CD =  0.01363   =>   CDf =  0.00700    CDp =  0.00663

 Side 1  free  transition at x/c =  0.9272   72
 Side 2  free  transition at x/c =  0.5668   55

   2   rms: 0.3625E-01   max: -.2344E+00   D at   57  2
       a = -3.000      CL = -0.3198
      Cm = -0.0084     CD =  0.01370   =>   CDf =  0.00702    CDp =  0.00668

 Side 1  free  transition at x/c =  0.9161   71
 Side 2  free  transition at x/c =  0.5800   56

   3   rms: 0.2768E-01   max: 0.2916E+00   D at   57  2
       a = -3.000      CL = -0.3198
      Cm = -0.0078     CD =  0.01369   =>   CDf =  0.00689    CDp =  0.00680

 Side 1  free  transition at x/c =  0.9168   71
 Side 2  free  transition at x/c =  0.5682   56

   4   rms: 0.1333E-01   max: -.1099E+00   D at   57  2
       a = -3.000      CL = -0.3217
      Cm = -0.0076     CD =  0.01359   =>   CDf =  0.00692    CDp =  0.00668

 Side 1  free  transition at x/c =  0.9160   71
 Side 2  free  transition at x/c =  0.5718   56

   5   rms: 0.1572E-02   max: -.1378E-01   D at   59  2
       a = -3.000      CL = -0.3218
      Cm = -0.0076     CD =  0.01362   =>   CDf =  0.00683    CDp =  0.00679

 Side 1  free  transition at x/c =  0.9160   71
 Side 2  free  transition at x/c =  0.5717   56

   6   rms: 0.8656E-05   max: -.1016E-03   D at   60  2
       a = -3.000      CL = -0.3218
      Cm = -0.0076     CD =  0.01362   =>   CDf =  0.00683    CDp =  0.00679
 plradd ia,ip,cpol            3           0  7.91491717E-02

 Point added to stored polar  1
 Point written to save file  s1048_Re150k.base.pol                           
 Dump file unspecified or not available
 Calculating wake trajectory ...
 Calculating source influence matrix ...

 Solving BL system ...

 Side 1  free  transition at x/c =  0.9160   71
 Side 2  free  transition at x/c =  0.5717   56

   1   rms: 0.1000E+00   max: -.4753E+00   T at   56  2
       a = -2.500      CL = -0.2475
      Cm = -0.0104     CD =  0.01335   =>   CDf =  0.00697    CDp =  0.00638

 Side 1  free  transition at x/c =  0.8907   70
 Side 2  free  transition at x/c =  0.5956   56

   2   rms: 0.3337E-01   max: -.2105E+00   D at   58  2
       a = -2.500      CL = -0.2596
      Cm = -0.0084     CD =  0.01342   =>   CDf =  0.00699    CDp =  0.00643

 Side 1  free  transition at x/c =  0.8845   70
 Side 2  free  transition at x/c =  0.6050   57

   3   rms: 0.2130E-01   max: 0.2134E+00   D at   58  2
       a = -2.500      CL = -0.2575
      Cm = -0.0086     CD =  0.01332   =>   CDf =  0.00675    CDp =  0.00657

 Side 1  free  transition at x/c =  0.8862   70
 Side 2  free  transition at x/c =  0.6009   57

   4   rms: 0.3832E-02   max: -.3737E-01   D at   61  2
       a = -2.500      CL = -0.2574
      Cm = -0.0085     CD =  0.01338   =>   CDf =  0.00682    CDp =  0.00656

 Side 1  free  transition at x/c =  0.8862   70
 Side 2  free  transition at x/c =  0.5996   57

   5   rms: 0.2269E-03   max: -.2027E-02   D at   58  2
       a = -2.500      CL = -0.2574
      Cm = -0.0085     CD =  0.01338   =>   CDf =  0.00685    CDp =  0.00653

 Side 1  free  transition at x/c =  0.8862   70
 Side 2  free  transition at x/c =  0.5996   57

   6   rms: 0.2793E-05   max: -.2000E-04   D at    4  1
       a = -2.500      CL = -0.2574
      Cm = -0.0085     CD =  0.01338   =>   CDf =  0.00685    CDp =  0.00653
 plradd ia,ip,cpol            4           0  0.10496759    

 Point added to stored polar  1
 Point written to save file  s1048_Re150k.base.pol                           
 Dump file unspecified or not available
 Calculating wake trajectory ...
 Calculating source influence matrix ...

 Solving BL system ...

 Side 1  free  transition at x/c =  0.8862   70
 Side 2  free  transition at x/c =  0.5996   57

   1   rms: 0.9381E-01   max: -.4575E+00   T at   57  2
       a = -2.000      CL = -0.1961
      Cm = -0.0084     CD =  0.01319   =>   CDf =  0.00685    CDp =  0.00634

 Side 1  free  transition at x/c =  0.8580   68
 Side 2  free  transition at x/c =  0.6200   58

   2   rms: 0.3655E-01   max: -.2354E+00   D at   69  1
       a = -2.000      CL = -0.2035
      Cm = -0.0074     CD =  0.01323   =>   CDf =  0.00693    CDp =  0.00629

 Side 1  free  transition at x/c =  0.8537   68
 Side 2  free  transition at x/c =  0.6281   59

   3   rms: 0.3677E-02   max: -.3510E-01   D at   58  2
       a = -2.000      CL = -0.2030
      Cm = -0.0074     CD =  0.01325   =>   CDf =  0.00691    CDp =  0.00634

 Side 1  free  transition at x/c =  0.8544   68
 Side 2  free  transition at x/c =  0.6268   59

   4   rms: 0.2366E-03   max: 0.2176E-02   D at   60  2
       a = -2.000      CL = -0.2030
      Cm = -0.0074     CD =  0.01325   =>   CDf =  0.00691    CDp =  0.00634

 Side 1  free  transition at x/c =  0.8544   68
 Side 2  free  transition at x/c =  0.6268   59

   5   rms: 0.1252E-05   max: -.6930E-05   T at   68  1
       a = -2.000      CL = -0.2030
      Cm = -0.0074     CD =  0.01325   =>   CDf =  0.00691    CDp =  0.00634
 plradd ia,ip,cpol            5           0  0.11827920    

 Point added to stored polar  1
 Point written to save file  s1048_Re150k.base.pol                           
 Dump file unspecified or not available
 Calculating wake trajectory ...
 Calculating source influence matrix ...

 Solving BL system ...

 Side 1  free  transition at x/c =  0.8544   68
 Side 2  free  transition at x/c =  0.6268   59

   1   rms: 0.9368E-01   max: -.4852E+00   T at   59  2
       a = -1.500      CL = -0.1467
      Cm = -0.0059     CD =  0.01302   =>   CDf =  0.00701    CDp =  0.00602

 Side 1  free  transition at x/c =  0.8282   67
 Side 2  free  transition at x/c =  0.6435   59

   2   rms: 0.7756E-01   max: -.3902E+00   D at   61  2
       a = -1.500      CL = -0.1529
      Cm = -0.0055     CD =  0.01277   =>   CDf =  0.00708    CDp =  0.00570

 Side 1  free  transition at x/c =  0.8220   67
 Side 2  free  transition at x/c =  0.6543   59

   3   rms: 0.2114E-01   max: -.1422E+00   C at   59  2
       a = -1.500      CL = -0.1516
      Cm = -0.0055     CD =  0.01313   =>   CDf =  0.00698    CDp =  0.00615

 Side 1  free  transition at x/c =  0.8232   67
 Side 2  free  transition at x/c =  0.6524   59

   4   rms: 0.6014E-03   max: -.6523E-02   D at   60  2
       a = -1.500      CL = -0.1517
      Cm = -0.0055     CD =  0.01316   =>   CDf =  0.00692    CDp =  0.00624

 Side 1  free  transition at x/c =  0.8231   67
 Side 2  free  transition at x/c =  0.6524   59

   5   rms: 0.3818E-05   max: 0.3676E-04   D at   60  2
       a = -1.500      CL = -0.1517
      Cm = -0.0055     CD =  0.01316   =>   CDf =  0.00692    CDp =  0.00624
 plradd ia,ip,cpol            6           0  0.13180293    

 Point added to stored polar  1
 Point written to save file  s1048_Re150k.base.pol                           
 Dump file unspecified or not available
 Calculating wake trajectory ...
 Calculating source influence matrix ...

 Solving BL system ...

 Side 1  free  transition at x/c =  0.8231   67
 Side 2  free  transition at x/c =  0.6524   59

   1   rms: 0.8768E-01   max: -.4493E+00   T at   59  2
       a = -1.000      CL = -0.1006
      Cm = -0.0037     CD =  0.01312   =>   CDf =  0.00700    CDp =  0.00612

 Side 1  free  transition at x/c =  0.7990   66
 Side 2  free  transition at x/c =  0.6860   60

   2   rms: 0.3228E-01   max: 0.2796E+00   D at   61  2
       a = -1.000      CL = -0.1001
      Cm = -0.0037     CD =  0.01315   =>   CDf =  0.00699    CDp =  0.00616

 Side 1  free  transition at x/c =  0.7914   66
 Side 2  free  transition at x/c =  0.6763   60

   3   rms: 0.8421E-02   max: -.5971E-01   D at   67  1
       a = -1.000      CL = -0.1010
      Cm = -0.0036     CD =  0.01310   =>   CDf =  0.00700    CDp =  0.00611

 Side 1  free  transition at x/c =  0.7928   66
 Side 2  free  transition at x/c =  0.6788   60

   4   rms: 0.5600E-03   max: -.5289E-02   D at   61  2
       a = -1.000      CL = -0.1011
      Cm = -0.0036     CD =  0.01311   =>   CDf =  0.00695    CDp =  0.00616

 Side 1  free  transition at x/c =  0.7928   66
 Side 2  free  transition at x/c =  0.6788   60

   5   rms: 0.2540E-05   max: 0.2978E-04   D at   61  2
       a = -1.000      CL = -0.1011
      Cm = -0.0036     CD =  0.01311   =>   CDf =  0.00695    CDp =  0.00616
 plradd ia,ip,cpol            7           0  0.14550610    

 Point added to stored polar  1
 Point written to save file  s1048_Re150k.base.pol                           
 Dump file unspecified or not available
 Calculating wake trajectory ...
 Calculating source influence matrix ...

 Solving BL system ...

 Side 1  free  transition at x/c =  0.7928   66
 Side 2  free  transition at x/c =  0.6788   60

   1   rms: 0.8743E-01   max: -.4059E+00   T at   60  2
       a = -0.500      CL = -0.0494
      Cm = -0.0016     CD =  0.01310   =>   CDf =  0.00695    CDp =  0.00615

 Side 1  free  transition at x/c =  0.7700   64
 Side 2  free  transition at x/c =  0.7058   62

   2   rms: 0.2019E-01   max: -.2106E+00   D at   65  1
       a = -0.500      CL = -0.0509
      Cm = -0.0018     CD =  0.01306   =>   CDf =  0.00694    CDp =  0.00611

 Side 1  free  transition at x/c =  0.7616   64
 Side 2  free  transition at x/c =  0.7063   62

   3   rms: 0.6208E-02   max: -.7177E-01   D at   65  1
       a = -0.500      CL = -0.0506
      Cm = -0.0018     CD =  0.01307   =>   CDf =  0.00699    CDp =  0.00608

 Side 1  free  transition at x/c =  0.7633   64
 Side 2  free  transition at x/c =  0.7062   62

   4   rms: 0.1623E-03   max: -.2068E-02   D at   67  1
       a = -0.500      CL = -0.0506
      Cm = -0.0018     CD =  0.01308   =>   CDf =  0.00697    CDp =  0.00611

 Side 1  free  transition at x/c =  0.7632   64
 Side 2  free  transition at x/c =  0.7062   62

   5   rms: 0.2012E-05   max: -.1360E-04   D at   67  1
       a = -0.500      CL = -0.0506
      Cm = -0.0018     CD =  0.01308   =>   CDf =  0.00697    CDp =  0.00611
 plradd ia,ip,cpol            8           0  0.15935452    

 Point added to stored polar  1
 Point written to save file  s1048_Re150k.base.pol                           
 Dump file unspecified or not available
 Calculating wake trajectory ...
 Calculating source influence matrix ...

 Solving BL system ...

 Side 1  free  transition at x/c =  0.7632   64
 Side 2  free  transition at x/c =  0.7062   62

   1   rms: 0.8819E-01   max: -.4012E+00   T at   62  2
       a =  0.000      CL =  0.0016
      Cm =  0.0003     CD =  0.01308   =>   CDf =  0.00700    CDp =  0.00608

 Side 1  free  transition at x/c =  0.7410   63
 Side 2  free  transition at x/c =  0.7300   62

   2   rms: 0.2964E-01   max: -.2101E+00   D at   64  1
       a =  0.000      CL = -0.0011
      Cm = -0.0001     CD =  0.01305   =>   CDf =  0.00701    CDp =  0.00604

 Side 1  free  transition at x/c =  0.7329   63
 Side 2  free  transition at x/c =  0.7399   63

   3   rms: 0.1865E-01   max: 0.1934E+00   D at   64  2
       a =  0.000      CL = -0.0003
      Cm = -0.0000     CD =  0.01303   =>   CDf =  0.00694    CDp =  0.00610

 Side 1  free  transition at x/c =  0.7344   63
 Side 2  free  transition at x/c =  0.7355   63

   4   rms: 0.3062E-02   max: -.2796E-01   D at   67  2
       a =  0.000      CL =  0.0000
      Cm = -0.0000     CD =  0.01307   =>   CDf =  0.00697    CDp =  0.00610

 Side 1  free  transition at x/c =  0.7343   63
 Side 2  free  transition at x/c =  0.7343   63

   5   rms: 0.1445E-03   max: -.1449E-02   D at   64  2
       a =  0.000      CL =  0.0000
      Cm = -0.0000     CD =  0.01307   =>   CDf =  0.00699    CDp =  0.00608

 Side 1  free  transition at x/c =  0.7343   63
 Side 2  free  transition at x/c =  0.7343   63

   6   rms: 0.1811E-05   max: 0.1205E-04   D at    4  1
       a =  0.000      CL =  0.0000
      Cm = -0.0000     CD =  0.01307   =>   CDf =  0.00699    CDp =  0.00608
 plradd ia,ip,cpol            9           0  0.17331621    

 Point added to stored polar  1
 Point written to save file  s1048_Re150k.base.pol                           
 Dump file unspecified or not available
 Calculating wake trajectory ...
 Calculating source influence matrix ...

 Solving BL system ...

 Side 1  free  transition at x/c =  0.7343   63
 Side 2  free  transition at x/c =  0.7343   63

   1   rms: 0.8863E-01   max: -.4102E+00   T at   63  2
       a =  0.500      CL =  0.0524
      Cm =  0.0020     CD =  0.01305   =>   CDf =  0.00698    CDp =  0.00607

 Side 1  free  transition at x/c =  0.7118   62
 Side 2  free  transition at x/c =  0.7566   63

   2   rms: 0.3307E-01   max: -.2216E+00   D at   63  1
       a =  0.500      CL =  0.0498
      Cm =  0.0017     CD =  0.01305   =>   CDf =  0.00699    CDp =  0.00606

 Side 1  free  transition at x/c =  0.7052   62
 Side 2  free  transition at x/c =  0.7672   64

   3   rms: 0.1152E-01   max: 0.1254E+00   D at   65  2
       a =  0.500      CL =  0.0505
      Cm =  0.0018     CD =  0.01307   =>   CDf =  0.00695    CDp =  0.00612

 Side 1  free  transition at x/c =  0.7062   62
 Side 2  free  transition at x/c =  0.7636   64

   4   rms: 0.1255E-02   max: -.1275E-01   D at   68  2
       a =  0.500      CL =  0.0506
      Cm =  0.0018     CD =  0.01308   =>   CDf =  0.00697    CDp =  0.00611

 Side 1  free  transition at x/c =  0.7062   62
 Side 2  free  transition at x/c =  0.7632   64

   5   rms: 0.2235E-04   max: -.2201E-03   D at   65  2
       a =  0.500      CL =  0.0506
      Cm =  0.0018     CD =  0.01308   =>   CDf =  0.00697    CDp =  0.00611
 plradd ia,ip,cpol           10           0  0.15935428    

 Point added to stored polar  1
 Point written to save file  s1048_Re150k.base.pol                           
 Dump file unspecified or not available
 Calculating wake trajectory ...
 Calculating source influence matrix ...

 Solving BL system ...

 Side 1  free  transition at x/c =  0.7062   62
 Side 2  free  transition at x/c =  0.7632   64

   1   rms: 0.8816E-01   max: -.4168E+00   T at   64  2
       a =  1.000      CL =  0.1027
      Cm =  0.0038     CD =  0.01305   =>   CDf =  0.00697    CDp =  0.00608

 Side 1  free  transition at x/c =  0.6824   60
 Side 2  free  transition at x/c =  0.7848   65

   2   rms: 0.3527E-01   max: -.2440E+00   D at   61  1
       a =  1.000      CL =  0.1004
      Cm =  0.0035     CD =  0.01308   =>   CDf =  0.00697    CDp =  0.00610

 Side 1  free  transition at x/c =  0.6786   60
 Side 2  free  transition at x/c =  0.7963   66

   3   rms: 0.9170E-02   max: 0.1042E+00   D at   67  2
       a =  1.000      CL =  0.1010
      Cm =  0.0036     CD =  0.01310   =>   CDf =  0.00692    CDp =  0.00618

 Side 1  free  transition at x/c =  0.6789   60
 Side 2  free  transition at x/c =  0.7931   66

   4   rms: 0.9296E-03   max: -.9540E-02   D at   70  2
       a =  1.000      CL =  0.1011
      Cm =  0.0036     CD =  0.01311   =>   CDf =  0.00695    CDp =  0.00616

 Side 1  free  transition at x/c =  0.6788   60
 Side 2  free  transition at x/c =  0.7927   66

   5   rms: 0.1155E-04   max: -.1104E-03   D at   70  2
       a =  1.000      CL =  0.1011
      Cm =  0.0036     CD =  0.01311   =>   CDf =  0.00695    CDp =  0.00616
 plradd ia,ip,cpol           11           0  0.14550586    

 Point added to stored polar  1
 Point written to save file  s1048_Re150k.base.pol                           
 Dump file unspecified or not available
 Calculating wake trajectory ...
 Calculating source influence matrix ...

 Solving BL system ...

 Side 1  free  transition at x/c =  0.6788   60
 Side 2  free  transition at x/c =  0.7927   66

   1   rms: 0.8728E-01   max: -.4170E+00   T at   66  2
       a =  1.500      CL =  0.1528
      Cm =  0.0056     CD =  0.01309   =>   CDf =  0.00689    CDp =  0.00620

 Side 1  free  transition at x/c =  0.6527   59
 Side 2  free  transition at x/c =  0.8149   66

   2   rms: 0.3781E-01   max: -.2788E+00   D at   60  1
       a =  1.500      CL =  0.1506
      Cm =  0.0055     CD =  0.01314   =>   CDf =  0.00696    CDp =  0.00618

 Side 1  free  transition at x/c =  0.6528   59
 Side 2  free  transition at x/c =  0.8277   67

   3   rms: 0.1175E-01   max: 0.1289E+00   D at   68  2
       a =  1.500      CL =  0.1512
      Cm =  0.0056     CD =  0.01315   =>   CDf =  0.00689    CDp =  0.00626

 Side 1  free  transition at x/c =  0.6525   59
 Side 2  free  transition at x/c =  0.8237   67

   4   rms: 0.1536E-02   max: -.1398E-01   D at   71  2
       a =  1.500      CL =  0.1517
      Cm =  0.0055     CD =  0.01316   =>   CDf =  0.00692    CDp =  0.00625

 Side 1  free  transition at x/c =  0.6524   59
 Side 2  free  transition at x/c =  0.8231   67

   5   rms: 0.3101E-04   max: -.3363E-03   D at   68  2
       a =  1.500      CL =  0.1517
      Cm =  0.0055     CD =  0.01316   =>   CDf =  0.00692    CDp =  0.00624
 plradd ia,ip,cpol           12           0  0.13180272    

 Point added to stored polar  1
 Point written to save file  s1048_Re150k.base.pol                           
 Dump file unspecified or not available
 Calculating wake trajectory ...
 Calculating source influence matrix ...

 Solving BL system ...

 Side 1  free  transition at x/c =  0.6524   59
 Side 2  free  transition at x/c =  0.8231   67

   1   rms: 0.8756E-01   max: 0.4463E+00   T at   59  1
       a =  2.000      CL =  0.2028
      Cm =  0.0074     CD =  0.01318   =>   CDf =  0.00684    CDp =  0.00634

 Side 1  free  transition at x/c =  0.6223   58
 Side 2  free  transition at x/c =  0.8466   67

   2   rms: 0.4246E-01   max: -.3307E+00   D at   59  1
       a =  2.000      CL =  0.2001
      Cm =  0.0076     CD =  0.01326   =>   CDf =  0.00695    CDp =  0.00631

 Side 1  free  transition at x/c =  0.6274   59
 Side 2  free  transition at x/c =  0.8624   68

   3   rms: 0.2252E-01   max: 0.2160E+00   C at   68  2
       a =  2.000      CL =  0.1992
      Cm =  0.0080     CD =  0.01319   =>   CDf =  0.00689    CDp =  0.00629

 Side 1  free  transition at x/c =  0.6271   59
 Side 2  free  transition at x/c =  0.8569   68

   4   rms: 0.5796E-02   max: -.3555E-01   D at   73  2
       a =  2.000      CL =  0.2029
      Cm =  0.0074     CD =  0.01325   =>   CDf =  0.00689    CDp =  0.00636

 Side 1  free  transition at x/c =  0.6268   59
 Side 2  free  transition at x/c =  0.8543   68

   5   rms: 0.4127E-03   max: -.4877E-02   D at   69  2
       a =  2.000      CL =  0.2031
      Cm =  0.0073     CD =  0.01325   =>   CDf =  0.00691    CDp =  0.00634

 Side 1  free  transition at x/c =  0.6268   59
 Side 2  free  transition at x/c =  0.8544   68

   6   rms: 0.2120E-05   max: -.1709E-04   D at   72  2
       a =  2.000      CL =  0.2031
      Cm =  0.0073     CD =  0.01325   =>   CDf =  0.00691    CDp =  0.00634
 plradd ia,ip,cpol           13           0  0.11827903    

 Point added to stored polar  1
 Point written to save file  s1048_Re150k.base.pol                           
 Dump file unspecified or not available
 Calculating wake trajectory ...
 Calculating source influence matrix ...

 Solving BL system ...

 Side 1  free  transition at x/c =  0.6268   59
 Side 2  free  transition at x/c =  0.8544   68

   1   rms: 0.9359E-01   max: 0.4840E+00   T at   59  1
       a =  2.500      CL =  0.2597
      Cm =  0.0087     CD =  0.01342   =>   CDf =  0.00691    CDp =  0.00650

 MRCHDU: Convergence failed at  59  side 1    Res =  0.5409E+01
 MRCHDU: Convergence failed at  60  side 1    Res =  0.2892E+01
 MRCHDU: Convergence failed at  61  side 1    Res =  0.3213E+02
 MRCHDU: Convergence failed at  62  side 1    Res =  0.6140E+01
 MRCHDU: Convergence failed at  63  side 1    Res =  0.4854E+01
 MRCHDU: Convergence failed at  64  side 1    Res =  0.4618E+01
 MRCHDU: Convergence failed at  65  side 1    Res =  0.4736E+01
 MRCHDU: Convergence failed at  66  side 1    Res =  0.4970E+01
 MRCHDU: Convergence failed at  67  side 1    Res =  0.5296E+01
 MRCHDU: Convergence failed at  68  side 1    Res =  0.5638E+01
 MRCHDU: Convergence failed at  69  side 1    Res =  0.6033E+01
 MRCHDU: Convergence failed at  70  side 1    Res =  0.6494E+01
 MRCHDU: Convergence failed at  71  side 1    Res =  0.7034E+01
 MRCHDU: Convergence failed at  72  side 1    Res =  0.7674E+01
 MRCHDU: Convergence failed at  73  side 1    Res =  0.8665E+01
 MRCHDU: Convergence failed at  74  side 1    Res =  0.9648E+01
 MRCHDU: Convergence failed at  75  side 1    Res =  0.1088E+02
 MRCHDU: Convergence failed at  76  side 1    Res =  0.1253E+02
 MRCHDU: Convergence failed at  77  side 1    Res =  0.1519E+02
 MRCHDU: Convergence failed at  78  side 1    Res =  0.1920E+02
 MRCHDU: Convergence failed at  79  side 1    Res =  0.2522E+02
 MRCHDU: Convergence failed at  80  side 1    Res =  0.4760E+02
 MRCHDU: Convergence failed at  81  side 1    Res =  0.2690E+04
 MRCHDU: Convergence failed at  82  side 1    Res =  0.3325E+02
 MRCHDU: Convergence failed at  83  side 1    Res =  0.1471E+02
 MRCHDU: Convergence failed at  84  side 1    Res =  0.9652E+01
 Side 1  free  transition at x/c =  0.6078   57
 Side 2  free  transition at x/c =  0.8795   69

   2   rms: 0.2964E+00   max: 0.1095E+01   D at   84  1   RLX: 0.553
       a =  2.500      CL =  0.2156
      Cm = -0.0092     CD =  0.00988   =>   CDf =  0.00552    CDp =  0.00436

 MRCHDU: Convergence failed at  73  side 2    Res =  0.7801E+01
 MRCHDU: Convergence failed at  74  side 2    Res =  0.4180E+01
 MRCHDU: Convergence failed at  75  side 2    Res =  0.2273E+03
 MRCHDU: Convergence failed at  76  side 2    Res =  0.7430E+01
 MRCHDU: Convergence failed at  77  side 2    Res =  0.6118E+01
 MRCHDU: Convergence failed at  78  side 2    Res =  0.2312E+02
 Side 1  free  transition at x/c =  0.5921   56
 Side 2  free  transition at x/c =  0.9331   73

   3   rms: 0.1794E+00   max: 0.9816E+00   C at   73  2   RLX: 0.786
       a =  2.500      CL =  0.2572
      Cm =  0.0056     CD =  0.01172   =>   CDf =  0.00744    CDp =  0.00428

 Side 1  free  transition at x/c =  0.6022   57
 Side 2  free  transition at x/c =  0.8817   70

   4   rms: 0.4951E-01   max: -.4756E+00   D at   72  2
       a =  2.500      CL =  0.2566
      Cm =  0.0087     CD =  0.01349   =>   CDf =  0.00696    CDp =  0.00653

 Side 1  free  transition at x/c =  0.6000   57
 Side 2  free  transition at x/c =  0.8884   70

   5   rms: 0.4823E-02   max: 0.5284E-01   D at   72  2
       a =  2.500      CL =  0.2574
      Cm =  0.0086     CD =  0.01338   =>   CDf =  0.00684    CDp =  0.00654

 Side 1  free  transition at x/c =  0.5996   57
 Side 2  free  transition at x/c =  0.8861   70

   6   rms: 0.2404E-03   max: -.2683E-02   D at   71  2
       a =  2.500      CL =  0.2574
      Cm =  0.0085     CD =  0.01338   =>   CDf =  0.00685    CDp =  0.00653

 Side 1  free  transition at x/c =  0.5996   57
 Side 2  free  transition at x/c =  0.8862   70

   7   rms: 0.2192E-05   max: 0.2362E-04   D at    4  2
       a =  2.500      CL =  0.2574
      Cm =  0.0085     CD =  0.01338   =>   CDf =  0.00685    CDp =  0.00653
 plradd ia,ip,cpol           14           0  0.10496745    

 Point added to stored polar  1
 Point written to save file  s1048_Re150k.base.pol                           
 Dump file unspecified or not available
 Calculating wake trajectory ...
 Calculating source influence matrix ...

 Solving BL system ...

 Side 1  free  transition at x/c =  0.5996   57
 Side 2  free  transition at x/c =  0.8862   70

   1   rms: 0.9380E-01   max: 0.4559E+00   T at   57  1
       a =  3.000      CL =  0.3192
      Cm =  0.0086     CD =  0.01353   =>   CDf =  0.00673    CDp =  0.00680

 Side 1  free  transition at x/c =  0.5782   56
 Side 2  free  transition at x/c =  0.9135   71

   2   rms: 0.2585E-01   max: -.2399E+00   D at   57  1
       a =  3.000      CL =  0.3209
      Cm =  0.0078     CD =  0.01357   =>   CDf =  0.00676    CDp =  0.00681

 Side 1  free  transition at x/c =  0.5708   56
 Side 2  free  transition at x/c =  0.9162   71

   3   rms: 0.5827E-02   max: -.6633E-01   D at   57  1
       a =  3.000      CL =  0.3218
      Cm =  0.0076     CD =  0.01362   =>   CDf =  0.00684    CDp =  0.00678

 Side 1  free  transition at x/c =  0.5718   56
 Side 2  free  transition at x/c =  0.9160   71

   4   rms: 0.7942E-04   max: 0.1095E-02   D at   57  1
       a =  3.000      CL =  0.3218
      Cm =  0.0076     CD =  0.01362   =>   CDf =  0.00683    CDp =  0.00679
 plradd ia,ip,cpol           15           0  7.91490600E-02

 Point added to stored polar  1
 Point written to save file  s1048_Re150k.base.pol                           
 Dump file unspecified or not available
 Calculating wake trajectory ...
 Calculating source influence matrix ...

 Solving BL system ...

 Side 1  free  transition at x/c =  0.5718   56
 Side 2  free  transition at x/c =  0.9160   71

   1   rms: 0.9992E-01   max: 0.4744E+00   T at   56  1
       a =  3.500      CL =  0.3966
      Cm =  0.0047     CD =  0.01385   =>   CDf =  0.00668    CDp =  0.00717

 Side 1  free  transition at x/c =  0.5468   55
 Side 2  free  transition at x/c =  0.9395   71

   2   rms: 0.3505E-01   max: -.2845E+00   D at   56  1
       a =  3.500      CL =  0.3841
      Cm =  0.0067     CD =  0.01387   =>   CDf =  0.00677    CDp =  0.00710

 Side 1  free  transition at x/c =  0.5443   55
 Side 2  free  transition at x/c =  0.9536   72

   3   rms: 0.3680E-01   max: 0.2602E+00   C at   72  2
       a =  3.500      CL =  0.3952
      Cm =  0.0046     CD =  0.01382   =>   CDf =  0.00683    CDp =  0.00700

 Side 1  free  transition at x/c =  0.5427   55
 Side 2  free  transition at x/c =  0.9431   72

   4   rms: 0.4418E-02   max: 0.2503E-01   T at   72  2
       a =  3.500      CL =  0.3983
      Cm =  0.0040     CD =  0.01394   =>   CDf =  0.00683    CDp =  0.00711

 Side 1  free  transition at x/c =  0.5424   55
 Side 2  free  transition at x/c =  0.9415   72

   5   rms: 0.6556E-03   max: -.4483E-02   D at   74  2
       a =  3.500      CL =  0.3982
      Cm =  0.0040     CD =  0.01394   =>   CDf =  0.00683    CDp =  0.00711

 Side 1  free  transition at x/c =  0.5424   55
 Side 2  free  transition at x/c =  0.9416   72

   6   rms: 0.9968E-06   max: -.9102E-05   D at   72  2
       a =  3.500      CL =  0.3982
      Cm =  0.0040     CD =  0.01394   =>   CDf =  0.00683    CDp =  0.00711
 plradd ia,ip,cpol           16           0  6.68288395E-02

 Point added to stored polar  1
 Point written to save file  s1048_Re150k.base.pol                           
 Dump file unspecified or not available
 Calculating wake trajectory ...
 Calculating source influence matrix ...

 Solving BL system ...

 Side 1  free  transition at x/c =  0.5424   55
 Side 2  free  transition at x/c =  0.9416   72

   1   rms: 0.1121E+00   max: 0.5357E+00   T at   55  1
       a =  4.000      CL =  0.4919
      Cm = -0.0030     CD =  0.01423   =>   CDf =  0.00666    CDp =  0.00757

 Side 1  free  transition at x/c =  0.5142   54
 Side 2  free  transition at x/c =  0.9553   72
 idif Ue xi dudx           1  0.14972192      3.71348858E-03   40.318401    
 Uenew xinew           2  9.08395974E-04  2.25305557E-05

   2   rms: 0.4188E-01   max: -.3382E+00   D at   55  1
       a =  4.000      CL =  0.4876
      Cm = -0.0025     CD =  0.01419   =>   CDf =  0.00695    CDp =  0.00724

 Side 1  free  transition at x/c =  0.5108   53
 Side 2  free  transition at x/c =  0.9608   73

   3   rms: 0.4554E-02   max: 0.5502E-01   T at    2  2
       a =  4.000      CL =  0.4879
      Cm = -0.0026     CD =  0.01427   =>   CDf =  0.00686    CDp =  0.00742

 Side 1  free  transition at x/c =  0.5107   53
 Side 2  free  transition at x/c =  0.9605   73

   4   rms: 0.1233E-02   max: 0.1528E-01   D at    4  2
       a =  4.000      CL =  0.4879
      Cm = -0.0026     CD =  0.01428   =>   CDf =  0.00686    CDp =  0.00741

 Side 1  free  transition at x/c =  0.5107   53
 Side 2  free  transition at x/c =  0.9605   73

   5   rms: 0.5884E-04   max: -.6792E-03   D at    4  2
       a =  4.000      CL =  0.4879
      Cm = -0.0026     CD =  0.01428   =>   CDf =  0.00686    CDp =  0.00741
 plradd ia,ip,cpol           17           0  3.48066576E-02

 Point added to stored polar  1
 Point written to save file  s1048_Re150k.base.pol                           
 Dump file unspecified or not available
 Calculating wake trajectory ...
 Calculating source influence matrix ...

 Solving BL system ...

 Side 1  free  transition at x/c =  0.5107   53
 Side 2  free  transition at x/c =  0.9605   73

   1   rms: 0.1688E+00   max: -.2139E+01   D at    3  2   RLX: 0.234
       a =  4.500      CL =  0.5094
      Cm = -0.0043     CD =  0.01435   =>   CDf =  0.00666    CDp =  0.00768

 Side 1  free  transition at x/c =  0.5047   53
 Side 2  free  transition at x/c =  0.9646   72

   2   rms: 0.8412E-01   max: 0.5181E+00   T at   53  1
       a =  4.500      CL =  0.5681
      Cm = -0.0080     CD =  0.01463   =>   CDf =  0.00687    CDp =  0.00775

 Side 1  free  transition at x/c =  0.4724   51
 Side 2  free  transition at x/c =  0.9875   74

   3   rms: 0.4355E-01   max: -.4160E+00   D at   52  1
       a =  4.500      CL =  0.5754
      Cm = -0.0091     CD =  0.01458   =>   CDf =  0.00693    CDp =  0.00765

 Side 1  free  transition at x/c =  0.4786   52
 Side 2  free  transition at x/c =  0.9814   73

   4   rms: 0.3342E-02   max: -.4631E-01   D at   51  1
       a =  4.500      CL =  0.5760
      Cm = -0.0093     CD =  0.01457   =>   CDf =  0.00694    CDp =  0.00763

 Side 1  free  transition at x/c =  0.4783   52
 Side 2  free  transition at x/c =  0.9818   73

   5   rms: 0.2507E-03   max: 0.2072E-02   D at   52  1
       a =  4.500      CL =  0.5760
      Cm = -0.0093     CD =  0.01457   =>   CDf =  0.00689    CDp =  0.00768

 Side 1  free  transition at x/c =  0.4783   51
 Side 2  free  transition at x/c =  0.9817   73

   6   rms: 0.8769E-05   max: 0.9348E-04   D at   52  1
       a =  4.500      CL =  0.5760
      Cm = -0.0093     CD =  0.01457   =>   CDf =  0.00690    CDp =  0.00767
 plradd ia,ip,cpol           18           0  8.03811662E-03

 Point added to stored polar  1
 Point written to save file  s1048_Re150k.base.pol                           
 Dump file unspecified or not available
 Calculating wake trajectory ...
 Calculating source influence matrix ...

 Solving BL system ...

 Side 1  free  transition at x/c =  0.4783   51
 Side 2  free  transition at x/c =  0.9817   73

   1   rms: 0.1159E+00   max: 0.7510E+00   T at   51  1   RLX: 0.770
       a =  5.000      CL =  0.6327
      Cm = -0.0129     CD =  0.01479   =>   CDf =  0.00666    CDp =  0.00813

 Side 1  free  transition at x/c =  0.4441   50
 Side 2 forced transition at x/c =  1.0000   74

   2   rms: 0.6281E-01   max: -.4544E+00   D at   51  1
       a =  5.000      CL =  0.6677
      Cm = -0.0172     CD =  0.01464   =>   CDf =  0.00697    CDp =  0.00768

 Side 1  free  transition at x/c =  0.4417   50
 Side 2 forced transition at x/c =  1.0000   74

   3   rms: 0.3639E-02   max: -.4533E-01   D at   53  1
       a =  5.000      CL =  0.6672
      Cm = -0.0171     CD =  0.01471   =>   CDf =  0.00677    CDp =  0.00794

 Side 1  free  transition at x/c =  0.4408   50
 Side 2 forced transition at x/c =  1.0000   74

   4   rms: 0.1053E-03   max: -.2353E-02   D at   53  1
       a =  5.000      CL =  0.6672
      Cm = -0.0171     CD =  0.01471   =>   CDf =  0.00680    CDp =  0.00792

 Side 1  free  transition at x/c =  0.4408   50
 Side 2 forced transition at x/c =  1.0000   74

   5   rms: 0.6895E-06   max: -.3407E-05   T at   50  1
       a =  5.000      CL =  0.6672
      Cm = -0.0171     CD =  0.01471   =>   CDf =  0.00680    CDp =  0.00791
 plradd ia,ip,cpol           19           0  1.02341617E-03

 Point added to stored polar  1
 Point written to save file  s1048_Re150k.base.pol                           
 Dump file unspecified or not available
 Calculating wake trajectory ...
 Calculating source influence matrix ...

 Solving BL system ...

 Side 1  free  transition at x/c =  0.4408   50
 Side 2 forced transition at x/c =  1.0000   74

   1   rms: 0.8346E-01   max: 0.4469E+00   T at   50  1
       a =  5.500      CL =  0.6965
      Cm = -0.0135     CD =  0.01491   =>   CDf =  0.00680    CDp =  0.00811

 Side 1  free  transition at x/c =  0.4154   48
 Side 2 forced transition at x/c =  1.0000   74

   2   rms: 0.3216E-01   max: -.3288E+00   D at   49  1
       a =  5.500      CL =  0.6962
      Cm = -0.0132     CD =  0.01488   =>   CDf =  0.00685    CDp =  0.00803

 Side 1  free  transition at x/c =  0.4152   48
 Side 2 forced transition at x/c =  1.0000   74

   3   rms: 0.2379E-02   max: -.1921E-01   D at   52  1
       a =  5.500      CL =  0.6966
      Cm = -0.0133     CD =  0.01493   =>   CDf =  0.00680    CDp =  0.00812

 Side 1  free  transition at x/c =  0.4144   48
 Side 2 forced transition at x/c =  1.0000   74

   4   rms: 0.6283E-04   max: -.4901E-03   D at   49  1
       a =  5.500      CL =  0.6967
      Cm = -0.0133     CD =  0.01493   =>   CDf =  0.00681    CDp =  0.00812
 plradd ia,ip,cpol           20           0  1.02341617E-03

 Point added to stored polar  1
 Point written to save file  s1048_Re150k.base.pol                           
 Dump file unspecified or not available
 Calculating wake trajectory ...
 Calculating source influence matrix ...

 Solving BL system ...

 Side 1  free  transition at x/c =  0.4144   48
 Side 2 forced transition at x/c =  1.0000   74

   1   rms: 0.8123E-01   max: 0.4784E+00   T at   48  1
       a =  6.000      CL =  0.7256
      Cm = -0.0092     CD =  0.01526   =>   CDf =  0.00653    CDp =  0.00873

 Side 1  free  transition at x/c =  0.3839   47
 Side 2 forced transition at x/c =  1.0000   73

   2   rms: 0.4216E-01   max: -.3991E+00   D at   48  1
       a =  6.000      CL =  0.7283
      Cm = -0.0094     CD =  0.01524   =>   CDf =  0.00691    CDp =  0.00833

 Side 1  free  transition at x/c =  0.3869   47
 Side 2 forced transition at x/c =  1.0000   73

   3   rms: 0.3524E-02   max: 0.2849E-01   D at   48  1
       a =  6.000      CL =  0.7287
      Cm = -0.0095     CD =  0.01529   =>   CDf =  0.00680    CDp =  0.00849

 Side 1  free  transition at x/c =  0.3856   47
 Side 2 forced transition at x/c =  1.0000   73

   4   rms: 0.1382E-03   max: -.1294E-02   D at   48  1
       a =  6.000      CL =  0.7287
      Cm = -0.0095     CD =  0.01529   =>   CDf =  0.00680    CDp =  0.00849

 Side 1  free  transition at x/c =  0.3856   47
 Side 2 forced transition at x/c =  1.0000   73

   5   rms: 0.1983E-05   max: 0.8407E-05   C at   73  2
       a =  6.000      CL =  0.7287
      Cm = -0.0095     CD =  0.01529   =>   CDf =  0.00680    CDp =  0.00849
 plradd ia,ip,cpol           21           0  1.02341617E-03

 Point added to stored polar  1
 Point written to save file  s1048_Re150k.base.pol                           
 Dump file unspecified or not available
 Calculating wake trajectory ...
 Calculating source influence matrix ...

 Solving BL system ...

 Side 1  free  transition at x/c =  0.3856   47
 Side 2 forced transition at x/c =  1.0000   73

   1   rms: 0.7972E-01   max: 0.5307E+00   T at   47  1
       a =  6.500      CL =  0.7614
      Cm = -0.0057     CD =  0.01569   =>   CDf =  0.00680    CDp =  0.00889

 Side 1  free  transition at x/c =  0.3504   45
 Side 2 forced transition at x/c =  1.0000   73

   2   rms: 0.5001E-01   max: -.4645E+00   D at   46  1
       a =  6.500      CL =  0.7639
      Cm = -0.0059     CD =  0.01567   =>   CDf =  0.00693    CDp =  0.00874

 Side 1  free  transition at x/c =  0.3550   45
 Side 2 forced transition at x/c =  1.0000   73

   3   rms: 0.5722E-02   max: 0.6109E-01   D at   46  1
       a =  6.500      CL =  0.7642
      Cm = -0.0060     CD =  0.01573   =>   CDf =  0.00676    CDp =  0.00897

 Side 1  free  transition at x/c =  0.3529   45
 Side 2 forced transition at x/c =  1.0000   73

   4   rms: 0.2882E-03   max: -.2771E-02   D at   45  1
       a =  6.500      CL =  0.7642
      Cm = -0.0060     CD =  0.01573   =>   CDf =  0.00679    CDp =  0.00894

 Side 1  free  transition at x/c =  0.3530   45
 Side 2 forced transition at x/c =  1.0000   73

   5   rms: 0.4248E-05   max: -.1668E-04   D at   86  1
       a =  6.500      CL =  0.7642
      Cm = -0.0060     CD =  0.01573   =>   CDf =  0.00679    CDp =  0.00894
 plradd ia,ip,cpol           22           0  1.02341617E-03

 Point added to stored polar  1
 Point written to save file  s1048_Re150k.base.pol                           
 Dump file unspecified or not available
 Calculating wake trajectory ...
 Calculating source influence matrix ...

 Solving BL system ...

 Side 1  free  transition at x/c =  0.3530   45
 Side 2 forced transition at x/c =  1.0000   73

   1   rms: 0.8138E-01   max: 0.5555E+00   T at   45  1
       a =  7.000      CL =  0.8009
      Cm = -0.0027     CD =  0.01621   =>   CDf =  0.00679    CDp =  0.00942

 Side 1  free  transition at x/c =  0.3192   43
 Side 2 forced transition at x/c =  1.0000   73

   2   rms: 0.5061E-01   max: -.4688E+00   D at   44  1
       a =  7.000      CL =  0.8013
      Cm = -0.0027     CD =  0.01611   =>   CDf =  0.00685    CDp =  0.00926

 Side 1  free  transition at x/c =  0.3206   43
 Side 2 forced transition at x/c =  1.0000   73

   3   rms: 0.7088E-02   max: -.6610E-01   D at   46  1
       a =  7.000      CL =  0.8014
      Cm = -0.0028     CD =  0.01628   =>   CDf =  0.00674    CDp =  0.00954

 Side 1  free  transition at x/c =  0.3185   43
 Side 2 forced transition at x/c =  1.0000   73

   4   rms: 0.4868E-03   max: -.5738E-02   D at   46  1
       a =  7.000      CL =  0.8015
      Cm = -0.0029     CD =  0.01629   =>   CDf =  0.00681    CDp =  0.00948

 Side 1  free  transition at x/c =  0.3185   43
 Side 2 forced transition at x/c =  1.0000   73

   5   rms: 0.5665E-05   max: -.3329E-04   D at   46  1
       a =  7.000      CL =  0.8015
      Cm = -0.0029     CD =  0.01629   =>   CDf =  0.00681    CDp =  0.00948
 plradd ia,ip,cpol           23           0  3.70420254E-04

 Point added to stored polar  1
 Point written to save file  s1048_Re150k.base.pol                           
 Dump file unspecified or not available
 Calculating wake trajectory ...
 Calculating source influence matrix ...

 Solving BL system ...

 Side 1  free  transition at x/c =  0.3185   43
 Side 2 forced transition at x/c =  1.0000   73

   1   rms: 0.9295E-01   max: 0.5832E+00   T at   43  1   RLX: 0.910
       a =  7.500      CL =  0.8357
      Cm = -0.0000     CD =  0.01705   =>   CDf =  0.00649    CDp =  0.01057

 Side 1  free  transition at x/c =  0.2831   41
 Side 2 forced transition at x/c =  1.0000   72

   2   rms: 0.3526E-01   max: 0.4574E+00   D at   43  1
       a =  7.500      CL =  0.8360
      Cm =  0.0006     CD =  0.01710   =>   CDf =  0.00686    CDp =  0.01024

 Side 1  free  transition at x/c =  0.2753   41
 Side 2 forced transition at x/c =  1.0000   72

   3   rms: 0.6862E-02   max: 0.7355E-01   D at   44  1
       a =  7.500      CL =  0.8372
      Cm =  0.0005     CD =  0.01690   =>   CDf =  0.00685    CDp =  0.01006

 Side 1  free  transition at x/c =  0.2765   41
 Side 2 forced transition at x/c =  1.0000   72

   4   rms: 0.3835E-03   max: -.6891E-02   D at   44  1
       a =  7.500      CL =  0.8373
      Cm =  0.0005     CD =  0.01692   =>   CDf =  0.00678    CDp =  0.01013

 Side 1  free  transition at x/c =  0.2764   41
 Side 2 forced transition at x/c =  1.0000   72

   5   rms: 0.3322E-05   max: -.3744E-04   D at   44  1
       a =  7.500      CL =  0.8373
      Cm =  0.0005     CD =  0.01692   =>   CDf =  0.00679    CDp =  0.01013
 plradd ia,ip,cpol           24           0  3.70420254E-04

 Point added to stored polar  1
 Point written to save file  s1048_Re150k.base.pol                           
 Dump file unspecified or not available
 Calculating wake trajectory ...
 Calculating source influence matrix ...

 Solving BL system ...

 Side 1  free  transition at x/c =  0.2764   41
 Side 2 forced transition at x/c =  1.0000   72

   1   rms: 0.9929E-01   max: -.6588E+00   D at   42  1   RLX: 0.759
       a =  8.000      CL =  0.8623
      Cm =  0.0032     CD =  0.01757   =>   CDf =  0.00679    CDp =  0.01078

 Side 1  free  transition at x/c =  0.2441   38
 Side 2 forced transition at x/c =  1.0000   72

   2   rms: 0.3989E-01   max: 0.3593E+00   D at   40  1
       a =  8.000      CL =  0.8730
      Cm =  0.0036     CD =  0.01767   =>   CDf =  0.00687    CDp =  0.01080

 Side 1  free  transition at x/c =  0.2252   37
 Side 2 forced transition at x/c =  1.0000   72

   3   rms: 0.1410E-01   max: -.1029E+00   C at   37  1
       a =  8.000      CL =  0.8709
      Cm =  0.0038     CD =  0.01776   =>   CDf =  0.00694    CDp =  0.01082

 Side 1  free  transition at x/c =  0.2290   37
 Side 2 forced transition at x/c =  1.0000   72

   4   rms: 0.7790E-03   max: -.8003E-02   D at   40  1
       a =  8.000      CL =  0.8712
      Cm =  0.0038     CD =  0.01779   =>   CDf =  0.00687    CDp =  0.01092

 Side 1  free  transition at x/c =  0.2284   37
 Side 2 forced transition at x/c =  1.0000   72

   5   rms: 0.2941E-04   max: -.3021E-03   D at   38  1
       a =  8.000      CL =  0.8712
      Cm =  0.0038     CD =  0.01779   =>   CDf =  0.00686    CDp =  0.01093
 plradd ia,ip,cpol           25           0  3.70420254E-04

 Point added to stored polar  1
 Point written to save file  s1048_Re150k.base.pol                           
 Dump file unspecified or not available
 Calculating wake trajectory ...
 Calculating source influence matrix ...

 Solving BL system ...

 Side 1  free  transition at x/c =  0.2284   37
 Side 2 forced transition at x/c =  1.0000   72

   1   rms: 0.8800E-01   max: 0.6705E+00   T at   37  1
       a =  8.500      CL =  0.9119
      Cm =  0.0063     CD =  0.01851   =>   CDf =  0.00687    CDp =  0.01164

 Side 1  free  transition at x/c =  0.1758   34
 Side 2 forced transition at x/c =  1.0000   72

   2   rms: 0.4713E-01   max: -.5778E+00   D at   35  1   RLX: 0.865
       a =  8.500      CL =  0.8974
      Cm =  0.0080     CD =  0.01935   =>   CDf =  0.00724    CDp =  0.01212

 Side 1  free  transition at x/c =  0.1805   34
 Side 2 forced transition at x/c =  1.0000   72

   3   rms: 0.9359E-02   max: -.1417E+00   D at   35  1
       a =  8.500      CL =  0.9031
      Cm =  0.0071     CD =  0.01904   =>   CDf =  0.00694    CDp =  0.01211

 Side 1  free  transition at x/c =  0.1755   34
 Side 2 forced transition at x/c =  1.0000   72

   4   rms: 0.2074E-02   max: -.2000E-01   C at   34  1
       a =  8.500      CL =  0.9026
      Cm =  0.0072     CD =  0.01907   =>   CDf =  0.00696    CDp =  0.01211

 Side 1  free  transition at x/c =  0.1760   34
 Side 2 forced transition at x/c =  1.0000   72

   5   rms: 0.2929E-04   max: -.4498E-03   D at   36  1
       a =  8.500      CL =  0.9026
      Cm =  0.0072     CD =  0.01907   =>   CDf =  0.00695    CDp =  0.01212
 plradd ia,ip,cpol           26           0  3.70420254E-04

 Point added to stored polar  1
 Point written to save file  s1048_Re150k.base.pol                           
 Dump file unspecified or not available
 Calculating wake trajectory ...
 Calculating source influence matrix ...

 Solving BL system ...

 Side 1  free  transition at x/c =  0.1760   34
 Side 2 forced transition at x/c =  1.0000   72

   1   rms: 0.1160E+00   max: 0.8448E+00   C at   34  1   RLX: 0.611
       a =  9.000      CL =  0.9168
      Cm =  0.0098     CD =  0.02028   =>   CDf =  0.00660    CDp =  0.01368

 Side 1  free  transition at x/c =  0.1481   33
 Side 2 forced transition at x/c =  1.0000   71

   2   rms: 0.7333E-01   max: -.4442E+00   D at   35  1   RLX: 0.894
       a =  9.000      CL =  0.9255
      Cm =  0.0112     CD =  0.02110   =>   CDf =  0.00706    CDp =  0.01404

 Side 1  free  transition at x/c =  0.1233   31
 Side 2 forced transition at x/c =  1.0000   71

   3   rms: 0.2911E-01   max: -.3834E+00   D at   33  1
       a =  9.000      CL =  0.9249
      Cm =  0.0114     CD =  0.02123   =>   CDf =  0.00719    CDp =  0.01404

 Side 1  free  transition at x/c =  0.1168   30
 Side 2 forced transition at x/c =  1.0000   71

   4   rms: 0.5563E-02   max: -.6984E-01   D at   33  1
       a =  9.000      CL =  0.9244
      Cm =  0.0115     CD =  0.02120   =>   CDf =  0.00724    CDp =  0.01396

 Side 1  free  transition at x/c =  0.1165   30
 Side 2 forced transition at x/c =  1.0000   71

   5   rms: 0.2836E-03   max: 0.2491E-02   T at   30  1
       a =  9.000      CL =  0.9245
      Cm =  0.0115     CD =  0.02120   =>   CDf =  0.00722    CDp =  0.01398

 Side 1  free  transition at x/c =  0.1164   30
 Side 2 forced transition at x/c =  1.0000   71

   6   rms: 0.6062E-05   max: -.5855E-04   T at   30  1
       a =  9.000      CL =  0.9245
      Cm =  0.0115     CD =  0.02120   =>   CDf =  0.00722    CDp =  0.01398
 plradd ia,ip,cpol           27           0  3.70420254E-04

 Point added to stored polar  1
 Point written to save file  s1048_Re150k.base.pol                           
 Dump file unspecified or not available
 Calculating wake trajectory ...
 Calculating source influence matrix ...

 Solving BL system ...

 Side 1  free  transition at x/c =  0.1164   30
 Side 2 forced transition at x/c =  1.0000   71

   1   rms: 0.1270E+00   max: 0.1276E+01   T at   30  1   RLX: 0.855
       a =  9.500      CL =  0.9523
      Cm =  0.0147     CD =  0.02297   =>   CDf =  0.00723    CDp =  0.01574

 Side 1  free  transition at x/c =  0.0766   27
 Side 2 forced transition at x/c =  1.0000   71

   2   rms: 0.6208E-01   max: -.6796E+00   D at   28  1   RLX: 0.736
       a =  9.500      CL =  0.9240
      Cm =  0.0173     CD =  0.02492   =>   CDf =  0.00778    CDp =  0.01714

 Side 1  free  transition at x/c =  0.0822   28
 Side 2 forced transition at x/c =  1.0000   71

   3   rms: 0.3045E-01   max: -.3704E+00   D at   30  1
       a =  9.500      CL =  0.9326
      Cm =  0.0171     CD =  0.02436   =>   CDf =  0.00743    CDp =  0.01693

 Side 1  free  transition at x/c =  0.0764   27
 Side 2 forced transition at x/c =  1.0000   71

   4   rms: 0.1243E-01   max: -.1156E+00   D at   27  1
       a =  9.500      CL =  0.9356
      Cm =  0.0169     CD =  0.02411   =>   CDf =  0.00749    CDp =  0.01663

 Side 1  free  transition at x/c =  0.0733   27
 Side 2 forced transition at x/c =  1.0000   71

   5   rms: 0.1818E-02   max: -.1375E-01   T at   27  1
       a =  9.500      CL =  0.9353
      Cm =  0.0169     CD =  0.02416   =>   CDf =  0.00747    CDp =  0.01669

 Side 1  free  transition at x/c =  0.0737   27
 Side 2 forced transition at x/c =  1.0000   71

   6   rms: 0.7675E-04   max: 0.5420E-03   T at   27  1
       a =  9.500      CL =  0.9354
      Cm =  0.0169     CD =  0.02416   =>   CDf =  0.00747    CDp =  0.01670
 plradd ia,ip,cpol           28           0  3.70420254E-04

 Point added to stored polar  1
 Point written to save file  s1048_Re150k.base.pol                           
 Dump file unspecified or not available
 Calculating wake trajectory ...
 Calculating source influence matrix ...

 Solving BL system ...

 Side 1  free  transition at x/c =  0.0737   27
 Side 2 forced transition at x/c =  1.0000   71

   1   rms: 0.1064E+00   max: 0.1015E+01   T at   27  1
       a = 10.000      CL =  0.9540
      Cm =  0.0215     CD =  0.02683   =>   CDf =  0.00747    CDp =  0.01936

 MRCHDU: Convergence failed at  27  side 1    Res =  0.7492E+01
 MRCHDU: Convergence failed at  28  side 1    Res =  0.4431E+01
 MRCHDU: Convergence failed at  29  side 1    Res =  0.2233E+03
 MRCHDU: Convergence failed at  30  side 1    Res =  0.4094E+01
 MRCHDU: Convergence failed at  31  side 1    Res =  0.3618E+01
 MRCHDU: Convergence failed at  32  side 1    Res =  0.3998E+01
 MRCHDU: Convergence failed at  33  side 1    Res =  0.3693E+01
 MRCHDU: Convergence failed at  34  side 1    Res =  0.3967E+01
 MRCHDU: Convergence failed at  35  side 1    Res =  0.4169E+01
 MRCHDU: Convergence failed at  36  side 1    Res =  0.4288E+01
 MRCHDU: Convergence failed at  37  side 1    Res =  0.1126E+02
 MRCHDU: Convergence failed at  38  side 1    Res =  0.1618E+02
 MRCHDU: Convergence failed at  39  side 1    Res =  0.2420E+02
 MRCHDU: Convergence failed at  40  side 1    Res =  0.4546E+02
 MRCHDU: Convergence failed at  41  side 1    Res =  0.2314E+03
 MRCHDU: Convergence failed at  42  side 1    Res =  0.7662E+02
 MRCHDU: Convergence failed at  43  side 1    Res =  0.4480E+02
 MRCHDU: Convergence failed at  44  side 1    Res =  0.3281E+02
 MRCHDU: Convergence failed at  45  side 1    Res =  0.2578E+02
 MRCHDU: Convergence failed at  46  side 1    Res =  0.1123E+02
 MRCHDU: Convergence failed at  47  side 1    Res =  0.1167E+02
 MRCHDU: Convergence failed at  48  side 1    Res =  0.1250E+02
 MRCHDU: Convergence failed at  49  side 1    Res =  0.1386E+02
 MRCHDU: Convergence failed at  50  side 1    Res =  0.1546E+02
 MRCHDU: Convergence failed at  51  side 1    Res =  0.1740E+02
 MRCHDU: Convergence failed at  52  side 1    Res =  0.1996E+02
 MRCHDU: Convergence failed at  53  side 1    Res =  0.2797E+02
 MRCHDU: Convergence failed at  54  side 1    Res =  0.2774E+02
 MRCHDU: Convergence failed at  55  side 1    Res =  0.2614E+02
 MRCHDU: Convergence failed at  56  side 1    Res =  0.2843E+02
 MRCHDU: Convergence failed at  57  side 1    Res =  0.4079E+02
 MRCHDU: Convergence failed at  58  side 1    Res =  0.5249E+02
 MRCHDU: Convergence failed at  59  side 1    Res =  0.4170E+02
 MRCHDU: Convergence failed at  60  side 1    Res =  0.4462E+02
 MRCHDU: Convergence failed at  61  side 1    Res =  0.8306E+02
 MRCHDU: Convergence failed at  62  side 1    Res =  0.5802E+02
 MRCHDU: Convergence failed at  63  side 1    Res =  0.2697E+02
 MRCHDU: Convergence failed at  64  side 1    Res =  0.1398E+03
 MRCHDU: Convergence failed at  65  side 1    Res =  0.5371E+02
 MRCHDU: Convergence failed at  66  side 1    Res =  0.4642E+02
 MRCHDU: Convergence failed at  67  side 1    Res =  0.4142E+02
 MRCHDU: Convergence failed at  68  side 1    Res =  0.3261E+02
 MRCHDU: Convergence failed at  69  side 1    Res =  0.2728E+02
 MRCHDU: Convergence failed at  70  side 1    Res =  0.2355E+02
 MRCHDU: Convergence failed at  71  side 1    Res =  0.1838E+02
 MRCHDU: Convergence failed at  72  side 1    Res =  0.1915E+02
 MRCHDU: Convergence failed at  73  side 1    Res =  0.1782E+02
 MRCHDU: Convergence failed at  74  side 1    Res =  0.2200E+02
 MRCHDU: Convergence failed at  75  side 1    Res =  0.2465E+02
 MRCHDU: Convergence failed at  76  side 1    Res =  0.2762E+02
 MRCHDU: Convergence failed at  77  side 1    Res =  0.2961E+02
 MRCHDU: Convergence failed at  78  side 1    Res =  0.3173E+02
 MRCHDU: Convergence failed at  79  side 1    Res =  0.3289E+02
 MRCHDU: Convergence failed at  80  side 1    Res =  0.7974E+02
 MRCHDU: Convergence failed at  81  side 1    Res =  0.9706E+02
 MRCHDU: Convergence failed at  82  side 1    Res =  0.1212E+03
 MRCHDU: Convergence failed at  83  side 1    Res =  0.1678E+03
 MRCHDU: Convergence failed at  84  side 1    Res =  0.2288E+03
 MRCHDU: Convergence failed at  85  side 1    Res =  0.7495E+03
 MRCHDU: Convergence failed at  86  side 1    Res =  0.5538E+02
 MRCHDU: Convergence failed at  87  side 1    Res =  0.4464E+02
 MRCHDU: Convergence failed at  88  side 1    Res =  0.4162E+02
 MRCHDU: Convergence failed at  89  side 1    Res =  0.3855E+02
 MRCHDU: Convergence failed at  90  side 1    Res =  0.4653E+02
 MRCHDU: Convergence failed at  91  side 1    Res =  0.5274E+02
 Side 1  free  transition at x/c =  0.0548   25
 Side 2 forced transition at x/c =  1.0000   71

   2   rms: 0.1131E+01   max: -.5447E+01   T at   25  1   RLX: 0.092
       a = 10.000      CL =  2.2642
      Cm = -0.4933     CD =  0.00929   =>   CDf =  0.00285    CDp =  0.00644

 MRCHDU: Convergence failed at  26  side 1    Res =  0.4895E+00
 Side 1  free  transition at x/c =  0.0652   26
 Side 2 forced transition at x/c =  1.0000   71

   3   rms: 0.5990E+00   max: 0.2671E+01   T at   26  1   RLX: 0.192
       a = 10.000      CL =  1.6843
      Cm = -0.2739     CD =  0.03040   =>   CDf =  0.00576    CDp =  0.02464

 Side 1  free  transition at x/c =  0.0571   26
 Side 2 forced transition at x/c =  1.0000   71

   4   rms: 0.4741E+00   max: -.4766E+00   D at   72  2   RLX: 0.494
       a = 10.000      CL =  1.3039
      Cm = -0.1178     CD =  0.03069   =>   CDf =  0.00526    CDp =  0.02543

 Side 1  free  transition at x/c =  0.0572   26
 Side 2 forced transition at x/c =  1.0000   71

   5   rms: 0.3783E+00   max: -.1691E+01   D at   35  1   RLX: 0.296
       a = 10.000      CL =  1.1741
      Cm = -0.0653     CD =  0.02991   =>   CDf =  0.00548    CDp =  0.02443

 Side 1  free  transition at x/c =  0.0572   26
 Side 2 forced transition at x/c =  1.0000   71

   6   rms: 0.5017E+00   max: -.1732E+01   D at   66  1   RLX: 0.289
       a = 10.000      CL =  1.1116
      Cm = -0.0308     CD =  0.02465   =>   CDf =  0.00605    CDp =  0.01860

 Side 1  free  transition at x/c =  0.0558   26
 Side 2 forced transition at x/c =  1.0000   71

   7   rms: 0.3650E+00   max: -.1187E+01   D at   27  1   RLX: 0.421
       a = 10.000      CL =  1.0853
      Cm = -0.0028     CD =  0.02216   =>   CDf =  0.00734    CDp =  0.01482

 MRCHDU: Convergence failed at  26  side 1    Res =  0.2386E+01
 MRCHDU: Convergence failed at  27  side 1    Res =  0.6411E+01
 MRCHDU: Convergence failed at  28  side 1    Res =  0.5127E+01
 MRCHDU: Convergence failed at  29  side 1    Res =  0.7891E+01
 MRCHDU: Convergence failed at  30  side 1    Res =  0.5232E+01
 MRCHDU: Convergence failed at  31  side 1    Res =  0.4588E+01
 MRCHDU: Convergence failed at  32  side 1    Res =  0.2894E+01
 MRCHDU: Convergence failed at  33  side 1    Res =  0.3798E+02
 MRCHDU: Convergence failed at  34  side 1    Res =  0.3057E+03
 MRCHDU: Convergence failed at  35  side 1    Res =  0.1041E+03
 MRCHDU: Convergence failed at  36  side 1    Res =  0.1951E+02
 MRCHDU: Convergence failed at  37  side 1    Res =  0.5057E+02
 MRCHDU: Convergence failed at  38  side 1    Res =  0.2283E+02
 MRCHDU: Convergence failed at  39  side 1    Res =  0.1986E+02
 MRCHDU: Convergence failed at  40  side 1    Res =  0.2131E+02
 MRCHDU: Convergence failed at  41  side 1    Res =  0.2023E+02
 MRCHDU: Convergence failed at  42  side 1    Res =  0.1478E+02
 MRCHDU: Convergence failed at  43  side 1    Res =  0.1637E+02
 MRCHDU: Convergence failed at  44  side 1    Res =  0.1929E+02
 MRCHDU: Convergence failed at  45  side 1    Res =  0.2055E+02
 MRCHDU: Convergence failed at  46  side 1    Res =  0.2241E+02
 MRCHDU: Convergence failed at  47  side 1    Res =  0.2867E+02
 MRCHDU: Convergence failed at  48  side 1    Res =  0.5837E+03
 MRCHDU: Convergence failed at  49  side 1    Res =  0.7144E+01
 MRCHDU: Convergence failed at  50  side 1    Res =  0.3446E+02
 MRCHDU: Convergence failed at  51  side 1    Res =  0.3588E+02
 MRCHDU: Convergence failed at  52  side 1    Res =  0.1355E+03
 MRCHDU: Convergence failed at  53  side 1    Res =  0.5825E+02
 MRCHDU: Convergence failed at  54  side 1    Res =  0.1974E+02
 MRCHDU: Convergence failed at  55  side 1    Res =  0.3083E+02
 MRCHDU: Convergence failed at  56  side 1    Res =  0.1745E+02
 MRCHDU: Convergence failed at  57  side 1    Res =  0.7394E+03
 MRCHDU: Convergence failed at  58  side 1    Res =  0.6848E+03
 MRCHDU: Convergence failed at  59  side 1    Res =  0.3257E+02
 MRCHDU: Convergence failed at  60  side 1    Res =  0.2455E+02
 MRCHDU: Convergence failed at  61  side 1    Res =  0.9791E+02
 MRCHDU: Convergence failed at  62  side 1    Res =  0.5157E+02
 MRCHDU: Convergence failed at  63  side 1    Res =  0.5356E+02
 MRCHDU: Convergence failed at  64  side 1    Res =  0.4916E+02
 MRCHDU: Convergence failed at  65  side 1    Res =  0.2050E+02
 MRCHDU: Convergence failed at  66  side 1    Res =  0.1431E+03
 MRCHDU: Convergence failed at  67  side 1    Res =  0.3781E+02
 MRCHDU: Convergence failed at  68  side 1    Res =  0.2464E+02
 MRCHDU: Convergence failed at  69  side 1    Res =  0.1184E+03
 MRCHDU: Convergence failed at  70  side 1    Res =  0.1456E+03
 MRCHDU: Convergence failed at  71  side 1    Res =  0.1831E+03
 MRCHDU: Convergence failed at  72  side 1    Res =  0.5939E+04
 MRCHDU: Convergence failed at  73  side 1    Res =  0.4643E+02
 MRCHDU: Convergence failed at  74  side 1    Res =  0.4183E+02
 MRCHDU: Convergence failed at  75  side 1    Res =  0.4113E+02
 MRCHDU: Convergence failed at  76  side 1    Res =  0.2191E+02
 MRCHDU: Convergence failed at  77  side 1    Res =  0.2777E+02
 MRCHDU: Convergence failed at  78  side 1    Res =  0.2167E+03
 MRCHDU: Convergence failed at  79  side 1    Res =  0.2903E+02
 MRCHDU: Convergence failed at  80  side 1    Res =  0.8048E+03
 MRCHDU: Convergence failed at  81  side 1    Res =  0.4053E+03
 MRCHDU: Convergence failed at  82  side 1    Res =  0.4138E+02
 MRCHDU: Convergence failed at  83  side 1    Res =  0.5269E+02
 MRCHDU: Convergence failed at  84  side 1    Res =  0.2266E+02
 MRCHDU: Convergence failed at  85  side 1    Res =  0.4151E+02
 MRCHDU: Convergence failed at  86  side 1    Res =  0.4312E+02
 MRCHDU: Convergence failed at  87  side 1    Res =  0.3046E+02
 MRCHDU: Convergence failed at  88  side 1    Res =  0.3218E+02
 MRCHDU: Convergence failed at  89  side 1    Res =  0.2348E+02
 MRCHDU: Convergence failed at  90  side 1    Res =  0.4635E+02
 MRCHDU: Convergence failed at  91  side 1    Res =  0.4793E+02
 Side 1  free  transition at x/c =  0.0484   25
 Side 2 forced transition at x/c =  1.0000   71

   8   rms: 0.1388E+01   max: 0.4487E+01   D at   73  2   RLX: 0.278
       a = 10.000      CL =  2.2939
      Cm = -0.4742     CD =  0.00945   =>   CDf =  0.00252    CDp =  0.00693

 MRCHDU: Convergence failed at  60  side 1    Res =  0.1239E+00
 MRCHDU: Convergence failed at  76  side 2    Res =  0.2561E+01
 MRCHDU: Convergence failed at  77  side 2    Res =  0.1153E+01
 MRCHDU: Convergence failed at  78  side 2    Res =  0.1792E+01
 Side 1  free  transition at x/c =  0.0593   26
 Side 2 forced transition at x/c =  1.0000   71

   9   rms: 0.5626E+00   max: -.5318E+00   U at   91  1   RLX: 0.351
       a = 10.000      CL =  1.4911
      Cm = -0.2020     CD =  0.03473   =>   CDf =  0.00514    CDp =  0.02959

 Side 1  free  transition at x/c =  0.0643   26
 Side 2 forced transition at x/c =  1.0000   71

  10   rms: 0.4470E+00   max: -.1618E+01   D at   34  1   RLX: 0.309
       a = 10.000      CL =  1.2714
      Cm = -0.1154     CD =  0.03686   =>   CDf =  0.00530    CDp =  0.03156

 Side 1  free  transition at x/c =  0.0667   26
 Side 2 forced transition at x/c =  1.0000   71

  11   rms: 0.4802E+00   max: -.2108E+01   D at   35  1   RLX: 0.237
       a = 10.000      CL =  1.1711
      Cm = -0.0730     CD =  0.03489   =>   CDf =  0.00567    CDp =  0.02922

 MRCHDU: Convergence failed at  32  side 1    Res =  0.1789E+01
 MRCHDU: Convergence failed at  34  side 1    Res =  0.1197E+02
 MRCHDU: Convergence failed at  35  side 1    Res =  0.1483E+02
 MRCHDU: Convergence failed at  36  side 1    Res =  0.4959E+01
 MRCHDU: Convergence failed at  37  side 1    Res =  0.1839E+01
 Side 1  free  transition at x/c =  0.0693   27
 Side 2 forced transition at x/c =  1.0000   71

  12   rms: 0.4719E+00   max: -.1991E+01   D at   48  1   RLX: 0.251
       a = 10.000      CL =  1.1398
      Cm = -0.0358     CD =  0.03124   =>   CDf =  0.00638    CDp =  0.02486

 MRCHDU: Convergence failed at  61  side 1    Res =  0.3093E-02
 Side 1  free  transition at x/c =  0.0687   27
 Side 2 forced transition at x/c =  1.0000   71

  13   rms: 0.3281E+00   max: -.1102E+01   D at   55  1   RLX: 0.454
       a = 10.000      CL =  1.0577
      Cm = -0.0036     CD =  0.02654   =>   CDf =  0.00725    CDp =  0.01929

 MRCHDU: Convergence failed at  27  side 1    Res =  0.2279E+01
 MRCHDU: Convergence failed at  28  side 1    Res =  0.1963E+01
 MRCHDU: Convergence failed at  29  side 1    Res =  0.1484E+01
 MRCHDU: Convergence failed at  30  side 1    Res =  0.3403E+01
 MRCHDU: Convergence failed at  31  side 1    Res =  0.3225E+01
 MRCHDU: Convergence failed at  33  side 1    Res =  0.2594E+01
 MRCHDU: Convergence failed at  34  side 1    Res =  0.3261E+01
 Side 1  free  transition at x/c =  0.0604   26
 Side 2 forced transition at x/c =  1.0000   71

  14   rms: 0.4842E+00   max: 0.3522E+01   T at   26  1   RLX: 0.328
       a = 10.000      CL =  1.1265
      Cm =  0.0152     CD =  0.02462   =>   CDf =  0.00626    CDp =  0.01836

 MRCHDU: Convergence failed at  26  side 1    Res =  0.1356E+02
 MRCHDU: Convergence failed at  63  side 1    Res =  0.1659E+01
 MRCHDU: Convergence failed at  64  side 1    Res =  0.2072E+00
 MRCHDU: Convergence failed at  65  side 1    Res =  0.3236E+00
 MRCHDU: Convergence failed at  66  side 1    Res =  0.2467E+00
 MRCHDU: Convergence failed at  67  side 1    Res =  0.4178E+00
 MRCHDU: Convergence failed at  68  side 1    Res =  0.4973E+01
 MRCHDU: Convergence failed at  69  side 1    Res =  0.8077E+00
 MRCHDU: Convergence failed at  70  side 1    Res =  0.8672E+00
 MRCHDU: Convergence failed at  71  side 1    Res =  0.9343E+00
 MRCHDU: Convergence failed at  72  side 1    Res =  0.1057E+01
 MRCHDU: Convergence failed at  73  side 1    Res =  0.1554E+01
 MRCHDU: Convergence failed at  74  side 1    Res =  0.2345E+01
 MRCHDU: Convergence failed at  75  side 1    Res =  0.7222E+01
 MRCHDU: Convergence failed at  76  side 1    Res =  0.6763E+01
 MRCHDU: Convergence failed at  77  side 1    Res =  0.1001E+01
 MRCHDU: Convergence failed at  78  side 1    Res =  0.9822E+00
 MRCHDU: Convergence failed at  79  side 1    Res =  0.1747E+01
 MRCHDU: Convergence failed at  80  side 1    Res =  0.3715E+01
 MRCHDU: Convergence failed at  81  side 1    Res =  0.1690E+02
 MRCHDU: Convergence failed at  82  side 1    Res =  0.2361E+01
 MRCHDU: Convergence failed at  83  side 1    Res =  0.1620E+01
 MRCHDU: Convergence failed at  84  side 1    Res =  0.1151E+01
 MRCHDU: Convergence failed at  85  side 1    Res =  0.2700E+01
 MRCHDU: Convergence failed at  86  side 1    Res =  0.9468E+00
 MRCHDU: Convergence failed at  87  side 1    Res =  0.9127E+00
 MRCHDU: Convergence failed at  88  side 1    Res =  0.9409E+00
 MRCHDU: Convergence failed at  89  side 1    Res =  0.9841E+00
 MRCHDU: Convergence failed at  90  side 1    Res =  0.1046E+01
 MRCHDU: Convergence failed at  91  side 1    Res =  0.1124E+01
 Side 1  free  transition at x/c =  0.0455   25
 Side 2 forced transition at x/c =  1.0000   71

  15   rms: 0.4833E+00   max: 0.9048E+00   C at   71  2   RLX: 0.548
       a = 10.000      CL =  1.3390
      Cm = -0.1027     CD =  0.01485   =>   CDf =  0.01209    CDp =  0.00276

 MRCHDU: Convergence failed at  26  side 1    Res =  0.6745E+01
 MRCHDU: Convergence failed at  27  side 1    Res =  0.8318E+01
 MRCHDU: Convergence failed at  28  side 1    Res =  0.6581E+01
 MRCHDU: Convergence failed at  29  side 1    Res =  0.1052E+02
 MRCHDU: Convergence failed at  30  side 1    Res =  0.8939E+01
 MRCHDU: Convergence failed at  31  side 1    Res =  0.3536E+02
 MRCHDU: Convergence failed at  32  side 1    Res =  0.1642E+03
 MRCHDU: Convergence failed at  33  side 1    Res =  0.1250E+03
 MRCHDU: Convergence failed at  34  side 1    Res =  0.5636E+03
 MRCHDU: Convergence failed at  35  side 1    Res =  0.5264E+03
 MRCHDU: Convergence failed at  36  side 1    Res =  0.4644E+02
 MRCHDU: Convergence failed at  37  side 1    Res =  0.3100E+02
 MRCHDU: Convergence failed at  38  side 1    Res =  0.2618E+02
 MRCHDU: Convergence failed at  39  side 1    Res =  0.2745E+02
 MRCHDU: Convergence failed at  40  side 1    Res =  0.2580E+02
 MRCHDU: Convergence failed at  41  side 1    Res =  0.2404E+02
 MRCHDU: Convergence failed at  42  side 1    Res =  0.2854E+02
 MRCHDU: Convergence failed at  43  side 1    Res =  0.4730E+02
 MRCHDU: Convergence failed at  44  side 1    Res =  0.3899E+02
 MRCHDU: Convergence failed at  45  side 1    Res =  0.1766E+03
 MRCHDU: Convergence failed at  46  side 1    Res =  0.7621E+02
 MRCHDU: Convergence failed at  47  side 1    Res =  0.3523E+02
 MRCHDU: Convergence failed at  48  side 1    Res =  0.2251E+02
 MRCHDU: Convergence failed at  49  side 1    Res =  0.5610E+02
 MRCHDU: Convergence failed at  50  side 1    Res =  0.6609E+02
 MRCHDU: Convergence failed at  51  side 1    Res =  0.7723E+02
 MRCHDU: Convergence failed at  52  side 1    Res =  0.6433E+02
 MRCHDU: Convergence failed at  53  side 1    Res =  0.5346E+02
 MRCHDU: Convergence failed at  54  side 1    Res =  0.6392E+02
 MRCHDU: Convergence failed at  55  side 1    Res =  0.1227E+03
 MRCHDU: Convergence failed at  56  side 1    Res =  0.5960E+03
 MRCHDU: Convergence failed at  57  side 1    Res =  0.1233E+03
 MRCHDU: Convergence failed at  58  side 1    Res =  0.7233E+02
 MRCHDU: Convergence failed at  59  side 1    Res =  0.7266E+02
 MRCHDU: Convergence failed at  60  side 1    Res =  0.1094E+03
 MRCHDU: Convergence failed at  61  side 1    Res =  0.3720E+03
 MRCHDU: Convergence failed at  62  side 1    Res =  0.2252E+02
 MRCHDU: Convergence failed at  63  side 1    Res =  0.3795E+03
 MRCHDU: Convergence failed at  64  side 1    Res =  0.3686E+04
 MRCHDU: Convergence failed at  65  side 1    Res =  0.3562E+02
 MRCHDU: Convergence failed at  66  side 1    Res =  0.4645E+03
 MRCHDU: Convergence failed at  67  side 1    Res =  0.4420E+02
 MRCHDU: Convergence failed at  68  side 1    Res =  0.1231E+03
 MRCHDU: Convergence failed at  69  side 1    Res =  0.1263E+03
 MRCHDU: Convergence failed at  70  side 1    Res =  0.2746E+02
 MRCHDU: Convergence failed at  71  side 1    Res =  0.2621E+02
 MRCHDU: Convergence failed at  72  side 1    Res =  0.2526E+02
 MRCHDU: Convergence failed at  73  side 1    Res =  0.2706E+03
 MRCHDU: Convergence failed at  74  side 1    Res =  0.3987E+02
 MRCHDU: Convergence failed at  75  side 1    Res =  0.2333E+02
 MRCHDU: Convergence failed at  76  side 1    Res =  0.2216E+02
 MRCHDU: Convergence failed at  77  side 1    Res =  0.2254E+02
 MRCHDU: Convergence failed at  78  side 1    Res =  0.2301E+02
 MRCHDU: Convergence failed at  79  side 1    Res =  0.2352E+02
[...]
 Uenew xinew           2  2.58324090E-02  1.45947933E-03

  33   rms: 0.4752E+00   max: 0.1769E+01   D at   30  1   RLX: 0.669
       a = 16.000      CL =  0.6317
      Cm = -0.0280     CD =  0.21809   =>   CDf =  0.00441    CDp =  0.21368

 Side 1  free  transition at x/c =  0.0424   23
 Side 2 forced transition at x/c =  1.0000   72

  34   rms: 0.1781E+00   max: -.7340E+00   D at   23  1   RLX: 0.681
       a = 16.000      CL =  0.5923
      Cm = -0.0057     CD =  0.18014   =>   CDf =  0.00416    CDp =  0.17598

 Side 1  free  transition at x/c =  0.0556   26
 Side 2 forced transition at x/c =  1.0000   71

  35   rms: 0.1688E+00   max: -.1523E+01   T at   26  1   RLX: 0.328
       a = 16.000      CL =  0.5808
      Cm =  0.0064     CD =  0.16653   =>   CDf =  0.00426    CDp =  0.16227

 Side 1  free  transition at x/c =  0.0600   26
 Side 2 forced transition at x/c =  1.0000   71

  36   rms: 0.2192E+00   max: 0.3296E+01   T at   26  1   RLX: 0.455
       a = 16.000      CL =  0.7065
      Cm = -0.0170     CD =  0.15586   =>   CDf =  0.00421    CDp =  0.15165

 Side 1  free  transition at x/c =  0.0480   25
 Side 2 forced transition at x/c =  1.0000   71

  37   rms: 0.1207E+00   max: 0.1952E+01   T at   25  1   RLX: 0.768
       a = 16.000      CL =  0.7196
      Cm = -0.0256     CD =  0.16639   =>   CDf =  0.00416    CDp =  0.16222

 Side 1  free  transition at x/c =  0.0440   24
 Side 2 forced transition at x/c =  1.0000   71

  38   rms: 0.2276E-01   max: -.2233E+00   D at   25  1
       a = 16.000      CL =  0.6972
      Cm = -0.0182     CD =  0.16131   =>   CDf =  0.00422    CDp =  0.15709

 Side 1  free  transition at x/c =  0.0441   24
 Side 2 forced transition at x/c =  1.0000   71

  39   rms: 0.3188E-01   max: -.2746E+00   T at   24  1
       a = 16.000      CL =  0.7033
      Cm = -0.0176     CD =  0.16471   =>   CDf =  0.00421    CDp =  0.16049

 Side 1  free  transition at x/c =  0.0442   24
 Side 2 forced transition at x/c =  1.0000   71

  40   rms: 0.9338E-01   max: -.8848E+00   T at   24  1   RLX: 0.565
       a = 16.000      CL =  0.6914
      Cm = -0.0100     CD =  0.16103   =>   CDf =  0.00419    CDp =  0.15683

 Side 1  free  transition at x/c =  0.0436   24
 Side 2 forced transition at x/c =  1.0000   71
 idif Ue xi dudx           1  0.16389951      9.25278664E-03   17.713530    
 Uenew xinew           2  3.17545012E-02  1.79266930E-03

  41   rms: 0.5660E+00   max: 0.2096E+01   D at   30  1   RLX: 0.585
       a = 16.000      CL =  0.6213
      Cm = -0.0271     CD =  0.21864   =>   CDf =  0.00441    CDp =  0.21423

 Side 1  free  transition at x/c =  0.0422   23
 Side 2 forced transition at x/c =  1.0000   72

  42   rms: 0.1865E+00   max: -.7597E+00   D at   23  1   RLX: 0.658
       a = 16.000      CL =  0.5796
      Cm = -0.0035     CD =  0.18001   =>   CDf =  0.00417    CDp =  0.17583

 Side 1  free  transition at x/c =  0.0560   26
 Side 2 forced transition at x/c =  1.0000   71

  43   rms: 0.8417E+01   max: 0.1148E+03   T at   26  1   RLX: 0.013
       a = 16.000      CL =  0.4743
      Cm =  0.0280     CD =  0.16004   =>   CDf =  0.00426    CDp =  0.15577

 Side 1  free  transition at x/c =  0.0486   25
 Side 2 forced transition at x/c =  1.0000   71

  44   rms: 0.8344E+00   max: 0.9134E+01   T at   25  1   RLX: 0.164
       a = 16.000      CL =  0.4666
      Cm =  0.0636     CD =  0.11438   =>   CDf =  0.00528    CDp =  0.10909

 Side 1  free  transition at x/c =  0.0424   24
 Side 2 forced transition at x/c =  1.0000   71

  45   rms: 0.9393E+00   max: 0.5018E+01   D at   26  1   RLX: 0.185
       a = 16.000      CL =  0.5635
      Cm =  0.0617     CD =  0.12140   =>   CDf =  0.00525    CDp =  0.11615

 Side 1  free  transition at x/c =  0.0460   25
 Side 2 forced transition at x/c =  1.0000   71

  46   rms: 0.1168E+01   max: 0.2882E+01   D at   28  1   RLX: 0.370
       a = 16.000      CL =  0.8826
      Cm =  0.0638     CD =  0.09120   =>   CDf =  0.00648    CDp =  0.08472

 MRCHDU: Convergence failed at  29  side 1    Res =  0.8770E+02
 MRCHDU: Convergence failed at  30  side 1    Res =  0.3119E+02
 MRCHDU: Convergence failed at  31  side 1    Res =  0.4804E+02
 MRCHDU: Convergence failed at  32  side 1    Res =  0.9918E+02
 MRCHDU: Convergence failed at  33  side 1    Res =  0.1902E+03
 MRCHDU: Convergence failed at  34  side 1    Res =  0.3629E+03
 MRCHDU: Convergence failed at  35  side 1    Res =  0.7210E+03
 MRCHDU: Convergence failed at  36  side 1    Res =  0.1627E+04
 TRCHEK2: N2 convergence failed.
 x:  0.25123  0.26044  0.26542  N:  8.975  9.000  9.010  Nx:   6.810   dN:-0.847E+00
 TRCHEK2: N2 convergence failed.
 x:  0.25123  0.26039  0.26542  N:  8.975  9.000  9.011  Nx:   6.810   dN:-0.107E+01
 TRCHEK2: N2 convergence failed.
 x:  0.25123  0.26038  0.26542  N:  8.975  9.000  9.011  Nx:   6.836   dN:-0.388E+00
 TRCHEK2: N2 convergence failed.
 x:  0.25123  0.26033  0.26542  N:  8.975  9.000  9.011  Nx:   7.046   dN:-0.381E-01
 TRCHEK2: N2 convergence failed.
 x:  0.25123  0.26033  0.26542  N:  8.975  9.000  9.011  Nx:   7.067   dN:-0.409E-01
 TRCHEK2: N2 convergence failed.
 x:  0.25123  0.26032  0.26542  N:  8.975  9.000  9.011  Nx:   7.108   dN:-0.316E-01
 TRCHEK2: N2 convergence failed.
 x:  0.25123  0.26031  0.26542  N:  8.975  9.000  9.011  Nx:   7.131   dN:-0.347E-01
 TRCHEK2: N2 convergence failed.
 x:  0.25123  0.26031  0.26542  N:  8.975  9.000  9.011  Nx:   7.170   dN:-0.275E-01
 TRCHEK2: N2 convergence failed.
 x:  0.25123  0.26173  0.26542  N:  8.975  9.000  9.011  Nx:   6.728   dN: 0.712E-01
 TRCHEK2: N2 convergence failed.
 x:  0.25123  0.26030  0.26542  N:  8.975  9.000  9.011  Nx:   7.261   dN:-0.234E-01
 TRCHEK2: N2 convergence failed.
 x:  0.25123  0.26172  0.26542  N:  8.975  9.000  9.011  Nx:   6.734   dN: 0.714E-01
 TRCHEK2: N2 convergence failed.
 x:  0.25123  0.26171  0.26542  N:  8.975  9.000  9.011  Nx:   6.766   dN: 0.726E-01
 TRCHEK2: N2 convergence failed.
 x:  0.25123  0.26167  0.26542  N:  8.975  9.000  9.007  Nx:   6.806   dN:-0.343E+00
 TRCHEK2: N2 convergence failed.
 x:  0.25123  0.26162  0.26542  N:  8.975  9.000  9.007  Nx:   6.883   dN:-0.312E+00
 TRCHEK2: N2 convergence failed.
 x:  0.25123  0.26163  0.26542  N:  8.975  9.000  9.007  Nx:   6.891   dN:-0.995E-01
 TRCHEK2: N2 convergence failed.
 x:  0.25123  0.26162  0.26542  N:  8.975  9.000  9.007  Nx:   6.908   dN:-0.119E+00
 TRCHEK2: N2 convergence failed.
 x:  0.25123  0.26161  0.26542  N:  8.975  9.000  9.007  Nx:   6.925   dN:-0.635E-01
 TRCHEK2: N2 convergence failed.
 x:  0.25123  0.26161  0.26542  N:  8.975  9.000  9.007  Nx:   6.934   dN:-0.720E-01
 TRCHEK2: N2 convergence failed.
 x:  0.25123  0.26162  0.26542  N:  8.975  9.000  9.007  Nx:   6.948   dN:-0.514E-01
 TRCHEK2: N2 convergence failed.
 x:  0.25123  0.26161  0.26542  N:  8.975  9.000  9.007  Nx:   6.961   dN:-0.519E-01
 TRCHEK2: N2 convergence failed.
 x:  0.25123  0.26161  0.26542  N:  8.975  9.000  9.007  Nx:   6.982   dN:-0.402E-01
 TRCHEK2: N2 convergence failed.
 x:  0.25123  0.26159  0.26542  N:  8.975  9.000  9.007  Nx:   6.997   dN:-0.381E-01
 TRCHEK2: N2 convergence failed.
 x:  0.25123  0.26160  0.26542  N:  8.975  9.000  9.007  Nx:   7.024   dN:-0.323E-01
 TRCHEK2: N2 convergence failed.
 x:  0.25123  0.26160  0.26542  N:  8.975  9.000  9.007  Nx:   7.026   dN:-0.317E-01
 TRCHEK2: N2 convergence failed.
 x:  0.25123  0.26160  0.26542  N:  8.975  9.000  9.007  Nx:   7.057   dN:-0.280E-01
 MRCHDU: Convergence failed at  37  side 1    Res =  0.3304E+02
 MRCHDU: Convergence failed at  38  side 1    Res =  0.4388E+03
 MRCHDU: Convergence failed at  39  side 1    Res =  0.4583E+03
 MRCHDU: Convergence failed at  40  side 1    Res =  0.4921E+03
 MRCHDU: Convergence failed at  41  side 1    Res =  0.5559E+03
 MRCHDU: Convergence failed at  42  side 1    Res =  0.6635E+03
 MRCHDU: Convergence failed at  43  side 1    Res =  0.8580E+03
 MRCHDU: Convergence failed at  44  side 1    Res =  0.1414E+04
 MRCHDU: Convergence failed at  45  side 1    Res =  0.4050E+03
 MRCHDU: Convergence failed at  46  side 1    Res =  0.3603E+03
 MRCHDU: Convergence failed at  47  side 1    Res =  0.1535E+03
 MRCHDU: Convergence failed at  48  side 1    Res =  0.2468E+03
 MRCHDU: Convergence failed at  49  side 1    Res =  0.2660E+03
 MRCHDU: Convergence failed at  50  side 1    Res =  0.2865E+03
 MRCHDU: Convergence failed at  51  side 1    Res =  0.3084E+03
 MRCHDU: Convergence failed at  52  side 1    Res =  0.3320E+03
 MRCHDU: Convergence failed at  53  side 1    Res =  0.3579E+03
 MRCHDU: Convergence failed at  54  side 1    Res =  0.3860E+03
 MRCHDU: Convergence failed at  55  side 1    Res =  0.4171E+03
 MRCHDU: Convergence failed at  56  side 1    Res =  0.4512E+03
 MRCHDU: Convergence failed at  57  side 1    Res =  0.4894E+03
 MRCHDU: Convergence failed at  58  side 1    Res =  0.5309E+03
 MRCHDU: Convergence failed at  59  side 1    Res =  0.5779E+03
 MRCHDU: Convergence failed at  60  side 1    Res =  0.6295E+03
 MRCHDU: Convergence failed at  61  side 1    Res =  0.6852E+03
 MRCHDU: Convergence failed at  62  side 1    Res =  0.7444E+03
 MRCHDU: Convergence failed at  63  side 1    Res =  0.8012E+03
 MRCHDU: Convergence failed at  64  side 1    Res =  0.8435E+03
 MRCHDU: Convergence failed at  65  side 1    Res =  0.8437E+03
 MRCHDU: Convergence failed at  66  side 1    Res =  0.5679E+03
 MRCHDU: Convergence failed at  67  side 1    Res =  0.5541E+03
 MRCHDU: Convergence failed at  68  side 1    Res =  0.5411E+03
 MRCHDU: Convergence failed at  69  side 1    Res =  0.5292E+03
 MRCHDU: Convergence failed at  70  side 1    Res =  0.5187E+03
 MRCHDU: Convergence failed at  71  side 1    Res =  0.5088E+03
 MRCHDU: Convergence failed at  72  side 1    Res =  0.4998E+03
 MRCHDU: Convergence failed at  73  side 1    Res =  0.4918E+03
 MRCHDU: Convergence failed at  74  side 1    Res =  0.5676E+03
 MRCHDU: Convergence failed at  75  side 1    Res =  0.5443E+03
 MRCHDU: Convergence failed at  76  side 1    Res =  0.5267E+03
 MRCHDU: Convergence failed at  77  side 1    Res =  0.5091E+03
 MRCHDU: Convergence failed at  78  side 1    Res =  0.4938E+03
 MRCHDU: Convergence failed at  79  side 1    Res =  0.4811E+03
 MRCHDU: Convergence failed at  80  side 1    Res =  0.4706E+03
 MRCHDU: Convergence failed at  81  side 1    Res =  0.4617E+03
 MRCHDU: Convergence failed at  82  side 1    Res =  0.4543E+03
 MRCHDU: Convergence failed at  83  side 1    Res =  0.4482E+03
 MRCHDU: Convergence failed at  84  side 1    Res =  0.4424E+03
 MRCHDU: Convergence failed at  85  side 1    Res =  0.4371E+03
 MRCHDU: Convergence failed at  86  side 1    Res =  0.4327E+03
 MRCHDU: Convergence failed at  87  side 1    Res =  0.4292E+03
 MRCHDU: Convergence failed at  88  side 1    Res =  0.4239E+03
 MRCHDU: Convergence failed at  89  side 1    Res =  0.4152E+03
 MRCHDU: Convergence failed at  90  side 1    Res =  0.4031E+03
 MRCHDU: Convergence failed at  91  side 1    Res =  0.3802E+03
 MRCHDU: Convergence failed at  92  side 1    Res =  0.3351E+03
 Side 1  free  transition at x/c =  0.1896   37
 Side 2 forced transition at x/c =  1.0000   70

  47   rms: 0.6693E+01   max: 0.1012E+03   T at   37  1   RLX: 0.012
       a = 16.000      CL =  3.7167
      Cm = -0.9003     CD =  0.00679   =>   CDf =  0.00231    CDp =  0.00448

 Side 1  free  transition at x/c =  0.1890   37
 Side 2 forced transition at x/c =  1.0000   70

  48   rms: 0.6233E+01   max: 0.6246E+02   T at   37  1   RLX: 0.024
       a = 16.000      CL =  3.1409
      Cm = -0.6246     CD =  0.09116   =>   CDf =  0.00272    CDp =  0.08844

 Side 1  free  transition at x/c =  0.1795   37
 Side 2 forced transition at x/c =  1.0000   69

  49   rms: 0.2512E+01   max: 0.4387E+02   T at   37  1   RLX: 0.034
       a = 16.000      CL =  3.2925
      Cm = -0.6530     CD =  0.09307   =>   CDf =  0.00293    CDp =  0.09015

 Side 1  free  transition at x/c =  0.1665   36
 Side 2 forced transition at x/c =  1.0000   69

  50   rms: 0.1689E+01   max: 0.3127E+02   T at   36  1   RLX: 0.048
       a = 16.000      CL =  3.2863
      Cm = -0.6436     CD =  0.10429   =>   CDf =  0.00297    CDp =  0.10132

 Side 1  free  transition at x/c =  0.1567   35
 Side 2 forced transition at x/c =  1.0000   69

  51   rms: 0.1285E+01   max: 0.1046E+02   C at   69  2   RLX: 0.059
       a = 16.000      CL =  3.2239
      Cm = -0.6249     CD =  0.12182   =>   CDf =  0.00311    CDp =  0.11870

 Side 1  free  transition at x/c =  0.1441   34
 Side 2 forced transition at x/c =  1.0000   69
 idif Ue xi dudx           1  0.14973132      1.12640858E-02   13.292808    
 Uenew xinew           2  8.27491749E-03  6.22510910E-04

  52   rms: 0.1230E+01   max: 0.3508E+01   T at   35  1   RLX: 0.184
       a = 16.000      CL =  2.8410
      Cm = -0.5406     CD =  0.12333   =>   CDf =  0.00361    CDp =  0.11972

 Side 1  free  transition at x/c =  0.1003   30
 Side 2 forced transition at x/c =  1.0000   70

  53   rms: 0.1115E+01   max: -.4883E+01   D at    2  2   RLX: 0.102
       a = 16.000      CL =  2.6705
      Cm = -0.5131     CD =  0.16919   =>   CDf =  0.00384    CDp =  0.16535

 Side 1  free  transition at x/c =  0.0965   30
 Side 2 forced transition at x/c =  1.0000   70

  54   rms: 0.9412E+00   max: -.4109E+01   D at   92  2   RLX: 0.122
       a = 16.000      CL =  2.4084
      Cm = -0.4445     CD =  0.17040   =>   CDf =  0.00408    CDp =  0.16632

 MRCHDU: Convergence failed at  30  side 1    Res =  0.7376E-05
 Side 1  free  transition at x/c =  0.0923   30
 Side 2 forced transition at x/c =  1.0000   70

  55   rms: 0.8752E+00   max: -.4838E+01   D at   92  2   RLX: 0.103
       a = 16.000      CL =  2.2543
      Cm = -0.4050     CD =  0.18832   =>   CDf =  0.00436    CDp =  0.18395

 Side 1  free  transition at x/c =  0.0914   29
 Side 2 forced transition at x/c =  1.0000   70

  56   rms: 0.1375E+02   max: -.1042E+03   T at   30  1   RLX: 0.005
       a = 16.000      CL =  2.2382
      Cm = -0.4079     CD =  0.26484   =>   CDf =  0.00457    CDp =  0.26027

 Side 1  free  transition at x/c =  0.0847   29
 Side 2 forced transition at x/c =  1.0000   70

  57   rms: 0.8416E+00   max: -.5497E+01   D at   92  2   RLX: 0.091
       a = 16.000      CL =  2.1195
      Cm = -0.3794     CD =  0.19569   =>   CDf =  0.00462    CDp =  0.19107

 MRCHDU: Convergence failed at  92  side 2    Res =  0.8259E-02
 Side 1  free  transition at x/c =  0.0814   29
 Side 2 forced transition at x/c =  1.0000   70
 idif Ue xi dudx           1  0.15023227      9.55426693E-03   15.724102    
 Uenew xinew           2  3.75454151E-03  2.38776207E-04

  58   rms: 0.8126E+00   max: -.5668E+01   D at   92  2   RLX: 0.088
       a = 16.000      CL =  1.9797
      Cm = -0.3416     CD =  0.19223   =>   CDf =  0.00507    CDp =  0.18716

 MRCHDU: Convergence failed at  93  side 2    Res =  0.2087E+00
 Side 1  free  transition at x/c =  0.0798   28
 Side 2 forced transition at x/c =  1.0000   71

  59   rms: 0.1256E+01   max: -.7868E+01   T at    2  2   RLX: 0.064
       a = 16.000      CL =  1.8383
      Cm = -0.3129     CD =  0.41238   =>   CDf =  0.00494    CDp =  0.40743

 Side 1  free  transition at x/c =  0.0807   28
 Side 2 forced transition at x/c =  1.0000   71

  60   rms: 0.9975E+00   max: -.1999E+01   T at   90  2   RLX: 0.250
       a = 16.000      CL =  1.3553
      Cm = -0.2097     CD =  0.35011   =>   CDf =  0.00488    CDp =  0.34523

 Side 1  free  transition at x/c =  0.0775   27
 Side 2 forced transition at x/c =  1.0000   71
 idif Ue xi dudx           1  0.13925140      7.99500942E-03   17.417290    
 Uenew xinew           2  9.31637082E-03  5.34892082E-04

  61   rms: 0.7704E+00   max: -.2028E+01   T at   91  2   RLX: 0.247
       a = 16.000      CL =  1.0758
      Cm = -0.1544     CD =  0.51863   =>   CDf =  0.00495    CDp =  0.51368

 Side 1  free  transition at x/c =  0.0680   26
 Side 2 forced transition at x/c =  1.0000   72

  62   rms: 0.6321E+00   max: -.1806E+01   T at   92  2   RLX: 0.277
       a = 16.000      CL =  0.8613
      Cm = -0.1146     CD =  0.85113   =>   CDf =  0.00456    CDp =  0.84657

 Side 1  free  transition at x/c =  0.0853   27
 Side 2 forced transition at x/c =  1.0000   72

  63   rms: 0.1070E+01   max: -.2028E+02   T at   27  1   RLX: 0.025
       a = 16.000      CL =  0.8051
      Cm = -0.0959     CD =  1.37690   =>   CDf =  0.00436    CDp =  1.37255

 Side 1  free  transition at x/c =  0.0876   27
 Side 2 forced transition at x/c =  1.0000   72

  64   rms: 0.4325E+00   max: -.1352E+01   T at   91  2   RLX: 0.370
       a = 16.000      CL =  0.6400
      Cm = -0.0653     CD =  1.06242   =>   CDf =  0.00435    CDp =  1.05807

 Side 1  free  transition at x/c =  0.0874   27
 Side 2 forced transition at x/c =  1.0000   72

  65   rms: 0.3064E+00   max: 0.1238E+01   C at   72  2   RLX: 0.524
       a = 16.000      CL =  0.5068
      Cm = -0.0363     CD =  0.76092   =>   CDf =  0.00413    CDp =  0.75679

 Side 1  free  transition at x/c =  0.0858   27
 Side 2 forced transition at x/c =  1.0000   72

  66   rms: 0.2006E+00   max: 0.1124E+01   C at   72  2   RLX: 0.569
       a = 16.000      CL =  0.4602
      Cm = -0.0227     CD =  0.43407   =>   CDf =  0.00392    CDp =  0.43015

 Side 1  free  transition at x/c =  0.0830   27
 Side 2 forced transition at x/c =  1.0000   72

  67   rms: 0.1512E+00   max: -.8462E+00   D at   92  2   RLX: 0.591
       a = 16.000      CL =  0.4635
      Cm = -0.0187     CD =  0.26429   =>   CDf =  0.00380    CDp =  0.26049

 Side 1  free  transition at x/c =  0.0806   27
 Side 2 forced transition at x/c =  1.0000   72

  68   rms: 0.1702E+00   max: 0.8871E+00   T at   27  1   RLX: 0.650
       a = 16.000      CL =  0.4978
      Cm = -0.0155     CD =  0.19617   =>   CDf =  0.00374    CDp =  0.19242

 Side 1  free  transition at x/c =  0.0785   26
 Side 2 forced transition at x/c =  1.0000   72

  69   rms: 0.7124E-01   max: -.6045E+00   D at   92  2   RLX: 0.827
       a = 16.000      CL =  0.5218
      Cm = -0.0171     CD =  0.17948   =>   CDf =  0.00370    CDp =  0.17577

 Side 1  free  transition at x/c =  0.0781   26
 Side 2 forced transition at x/c =  1.0000   72

  70   rms: 0.3690E-01   max: -.2498E+00   D at   92  2
       a = 16.000      CL =  0.5256
      Cm = -0.0197     CD =  0.17115   =>   CDf =  0.00370    CDp =  0.16745

 Side 1  free  transition at x/c =  0.0775   26
 Side 2 forced transition at x/c =  1.0000   72

  71   rms: 0.3015E-01   max: 0.1342E+00   D at   27  1
       a = 16.000      CL =  0.5193
      Cm = -0.0205     CD =  0.16925   =>   CDf =  0.00370    CDp =  0.16555

 Side 1  free  transition at x/c =  0.0778   26
 Side 2 forced transition at x/c =  1.0000   72

  72   rms: 0.1269E-01   max: -.7933E-01   T at   26  1
       a = 16.000      CL =  0.5192
      Cm = -0.0196     CD =  0.16565   =>   CDf =  0.00371    CDp =  0.16194

 Side 1  free  transition at x/c =  0.0781   26
 Side 2 forced transition at x/c =  1.0000   72

  73   rms: 0.1729E-02   max: -.1171E-01   D at   26  1
       a = 16.000      CL =  0.5197
      Cm = -0.0195     CD =  0.16494   =>   CDf =  0.00371    CDp =  0.16123

 Side 1  free  transition at x/c =  0.0782   26
 Side 2 forced transition at x/c =  1.0000   72

  74   rms: 0.3732E-03   max: 0.1962E-02   T at   26  1
       a = 16.000      CL =  0.5197
      Cm = -0.0195     CD =  0.16507   =>   CDf =  0.00371    CDp =  0.16136

 Side 1  free  transition at x/c =  0.0782   26
 Side 2 forced transition at x/c =  1.0000   72

  75   rms: 0.1162E-04   max: -.8096E-04   D at   93  2
       a = 16.000      CL =  0.5197
      Cm = -0.0195     CD =  0.16508   =>   CDf =  0.00371    CDp =  0.16137
 plradd ia,ip,cpol           53           0  4.23985730E-05

 Point added to stored polar  1
 Point written to save file  s1048_Re150k.base.pol                           
 Dump file unspecified or not available

.OPERva   c>  
 Polar accumulation disabled

.OPERv   c>  
 XFOIL   c>  
 XFOIL   c>  