
 ===================================================
  XFOIL Version 6.99
  Copyright (C) 2000   Mark Drela, Harold Youngren

  This software comes with ABSOLUTELY NO WARRANTY,
    subject to the GNU General Public License.

  Caveat computor
 ===================================================

 File  xfoil.def  not found

   QUIT    Exit program

  .OPER    Direct operating point(s)
  .MDES    Complex mapping design routine
  .QDES    Surface speed design routine
  .GDES    Geometry design routine

   SAVE f  Write airfoil to labeled coordinate file
   PSAV f  Write airfoil to plain coordinate file
   ISAV f  Write airfoil to ISES coordinate file
   MSAV f  Write airfoil to MSES coordinate file
   REVE    Reverse written-airfoil node ordering

   LOAD f  Read buffer airfoil from coordinate file
   NACA i  Set NACA 4,5-digit airfoil and buffer airfoil
   INTE    Set buffer airfoil by interpolating two airfoils
   NORM    Buffer airfoil normalization toggle
   XYCM rr Change CM reference location, currently  0.25000 0.00000

   BEND    Display structural properties of current airfoil

   PCOP    Set current-airfoil panel nodes directly from buffer airfoil points
   PANE    Set current-airfoil panel nodes ( 160 ) based on curvature
  .PPAR    Show/change paneling

  .PLOP    Plotting options

   WDEF f  Write  current-settings file
   RDEF f  Reread current-settings file
   NAME s  Specify new airfoil name
   NINC    Increment name version number

   Z       Zoom    | (available in all menus)
   U       Unzoom  | 

 XFOIL   c>  
 Labeled airfoil file.  Name:  S1221  w/o flap                                 

 Number of input coordinate points:  72
 Counterclockwise ordering
 Max thickness =     0.121300  at x =   0.220
 Max camber    =     0.049235  at x =   0.454

  LE  x,y  =   0.00016  -0.00065  |   Chord =   1.00172
  TE  x,y  =   1.00181   0.01052  |

 Current airfoil nodes set from buffer airfoil nodes (  72 )

 XFOIL   c>  
 XFOIL   c>  
 Sharp trailing edge

 Paneling parameters used...
   Number of panel nodes       160
   Panel bunching parameter    1.000
   TE/LE panel density ratio   0.150
   Refined-area/LE panel density ratio    0.200
   Top    side refined area x/c limits  1.000 1.000
   Bottom side refined area x/c limits  1.000 1.000

 XFOIL   c>  
.OPERi   c>  
 Xtr/c     =  1.0000    top    side
 Xtr/c     =  1.0000    bottom side
 Ncrit     =    9.00   ( 0.070 % turb. level )
 Vacc      =  0.0100

 Klag  =  5.6000     Uxwt  =    1.00
 A     =  6.7000     B     =  0.7500       KCt = 0.01485
 CtiniK=  1.8000     CtiniX=  3.3000

..VPAR   c>  
..VPAR   c>  
.OPERi   c>  
 M  =    0.0000
 Re =    150000

.OPERv   c>  
.OPERv   c>  
.OPERv   c>  
 Polar  1 newly created for accumulation
 Airfoil archived with polar: S1221  w/o flap                                 

Enter  polar save filename  OR  <return> for no file   s>  
 New polar save file available

Enter  polar dump filename  OR  <return> for no file   s>  
 Polar dump file will NOT be written

 Polar accumulation enabled

.OPERva   c>   Calculating unit vorticity distributions ...
 Calculating wake trajectory ...
 Calculating source influence matrix ...

 Solving BL system ...

 Initializing BL ...
    side            1  ...
 MRCHUE: Inverse mode at  37     Hk =   4.172
 MRCHUE: Inverse mode at  38     Hk =   4.675
 MRCHUE: Inverse mode at  39     Hk =   5.164
 MRCHUE: Inverse mode at  40     Hk =   5.641
 MRCHUE: Inverse mode at  41     Hk =   6.109
 MRCHUE: Inverse mode at  42     Hk =   6.567
 MRCHUE: Inverse mode at  43     Hk =   7.017
 MRCHUE: Inverse mode at  44     Hk =   7.459
 MRCHUE: Inverse mode at  45     Hk =   7.894
 MRCHUE: Inverse mode at  46     Hk =   8.322
 MRCHUE: Inverse mode at  47     Hk =   8.743
 MRCHUE: Inverse mode at  48     Hk =   9.159
 MRCHUE: Inverse mode at  49     Hk =   7.680
 MRCHUE: Inverse mode at  50     Hk =   6.221
 MRCHUE: Inverse mode at  51     Hk =   5.170
 MRCHUE: Inverse mode at  52     Hk =   4.346
 MRCHUE: Inverse mode at  53     Hk =   3.666
 MRCHUE: Inverse mode at  54     Hk =   3.089
    side            2  ...
 MRCHUE: Inverse mode at  14     Hk =   3.800
 MRCHUE: Inverse mode at  15     Hk =   4.434
 MRCHUE: Convergence failed at  16  side 2    Res =  0.2205E+01
 MRCHUE: Inverse mode at  17     Hk =   5.016
 MRCHUE: Inverse mode at  18     Hk =   5.552
 MRCHUE: Inverse mode at  19     Hk =   6.074
 MRCHUE: Inverse mode at  20     Hk =   6.604
 MRCHUE: Inverse mode at  21     Hk =   7.158
 MRCHUE: Inverse mode at  22     Hk =   7.750
 MRCHUE: Inverse mode at  23     Hk =   8.390
 MRCHUE: Inverse mode at  24     Hk =   9.090
 MRCHUE: Inverse mode at  25     Hk =   9.856
 MRCHUE: Inverse mode at  26     Hk =   8.520
 MRCHUE: Inverse mode at  27     Hk =   5.153
 MRCHUE: Inverse mode at  28     Hk =   3.218

 MRCHDU: Convergence failed at  28  side 2    Res =  0.2896E+01
 MRCHDU: Convergence failed at  29  side 2    Res =  0.6148E+02
 MRCHDU: Convergence failed at  30  side 2    Res =  0.2248E+01
 MRCHDU: Convergence failed at  31  side 2    Res =  0.1980E+01
 MRCHDU: Convergence failed at  32  side 2    Res =  0.2372E+01
 MRCHDU: Convergence failed at  33  side 2    Res =  0.3041E+01
 MRCHDU: Convergence failed at  34  side 2    Res =  0.3681E+01
 MRCHDU: Convergence failed at  35  side 2    Res =  0.4112E+01
 MRCHDU: Convergence failed at  36  side 2    Res =  0.4209E+01
 MRCHDU: Convergence failed at  37  side 2    Res =  0.3835E+01
 MRCHDU: Convergence failed at  38  side 2    Res =  0.3838E+01
 MRCHDU: Convergence failed at  39  side 2    Res =  0.9274E+01
 MRCHDU: Convergence failed at  40  side 2    Res =  0.1264E+02
 MRCHDU: Convergence failed at  41  side 2    Res =  0.1819E+02
 MRCHDU: Convergence failed at  42  side 2    Res =  0.3073E+02
 MRCHDU: Convergence failed at  43  side 2    Res =  0.2175E+04
 MRCHDU: Convergence failed at  44  side 2    Res =  0.1942E+02
 MRCHDU: Convergence failed at  45  side 2    Res =  0.1627E+02
 MRCHDU: Convergence failed at  46  side 2    Res =  0.3457E+02
 MRCHDU: Convergence failed at  47  side 2    Res =  0.3717E+02
 MRCHDU: Convergence failed at  48  side 2    Res =  0.2773E+02
 MRCHDU: Convergence failed at  49  side 2    Res =  0.1916E+02
 MRCHDU: Convergence failed at  50  side 2    Res =  0.2305E+02
 MRCHDU: Convergence failed at  51  side 2    Res =  0.1131E+02
 MRCHDU: Convergence failed at  52  side 2    Res =  0.3956E+02
 MRCHDU: Convergence failed at  53  side 2    Res =  0.4491E+02
 MRCHDU: Convergence failed at  54  side 2    Res =  0.4631E+02
 MRCHDU: Convergence failed at  55  side 2    Res =  0.5571E+03
 MRCHDU: Convergence failed at  56  side 2    Res =  0.4682E+04
 MRCHDU: Convergence failed at  57  side 2    Res =  0.4929E+03
 MRCHDU: Convergence failed at  58  side 2    Res =  0.4943E+04
 MRCHDU: Convergence failed at  59  side 2    Res =  0.2616E+03
 MRCHDU: Convergence failed at  60  side 2    Res =  0.1358E+03
 MRCHDU: Convergence failed at  61  side 2    Res =  0.1238E+03
 MRCHDU: Convergence failed at  62  side 2    Res =  0.1864E+03
 MRCHDU: Convergence failed at  63  side 2    Res =  0.1745E+03
 MRCHDU: Convergence failed at  64  side 2    Res =  0.1110E+03
 MRCHDU: Convergence failed at  65  side 2    Res =  0.4079E+03
 MRCHDU: Convergence failed at  66  side 2    Res =  0.1555E+03
 MRCHDU: Convergence failed at  67  side 2    Res =  0.2078E+03
 MRCHDU: Convergence failed at  68  side 2    Res =  0.6087E+02
 MRCHDU: Convergence failed at  69  side 2    Res =  0.2296E+02
 MRCHDU: Convergence failed at  70  side 2    Res =  0.2120E+02
 MRCHDU: Convergence failed at  71  side 2    Res =  0.1940E+02
 MRCHDU: Convergence failed at  72  side 2    Res =  0.1759E+02
 MRCHDU: Convergence failed at  73  side 2    Res =  0.1671E+02
 MRCHDU: Convergence failed at  74  side 2    Res =  0.1603E+02
 MRCHDU: Convergence failed at  75  side 2    Res =  0.1633E+02
 MRCHDU: Convergence failed at  76  side 2    Res =  0.1757E+02
 MRCHDU: Convergence failed at  77  side 2    Res =  0.1909E+02
 MRCHDU: Convergence failed at  78  side 2    Res =  0.1951E+02
 MRCHDU: Convergence failed at  79  side 2    Res =  0.2001E+02
 MRCHDU: Convergence failed at  80  side 2    Res =  0.2073E+02
 MRCHDU: Convergence failed at  81  side 2    Res =  0.2259E+02
 MRCHDU: Convergence failed at  82  side 2    Res =  0.2521E+02
 MRCHDU: Convergence failed at  83  side 2    Res =  0.1800E+02
 MRCHDU: Convergence failed at  84  side 2    Res =  0.3427E+02
 MRCHDU: Convergence failed at  85  side 2    Res =  0.2986E+02
 MRCHDU: Convergence failed at  86  side 2    Res =  0.4209E+02
 Side 1  free  transition at x/c =  0.5743   49
 Side 2  free  transition at x/c =  0.0641   26

   1   rms: 0.9721E+00   max: 0.8181E+01   T at   26  2   RLX: 0.101
       a = -4.000      CL = -0.6113
      Cm =  0.1266     CD =  0.01608   =>   CDf =  0.00579    CDp =  0.01030

 Side 1  free  transition at x/c =  0.5817   49
 Side 2  free  transition at x/c =  0.0543   25

   2   rms: 0.6031E+00   max: 0.2966E+01   T at   25  2   RLX: 0.199
       a = -4.000      CL = -0.3951
      Cm =  0.0522     CD =  0.01819   =>   CDf =  0.01534    CDp =  0.00285

 Side 1  free  transition at x/c =  0.6086   51
 Side 2  free  transition at x/c =  0.0499   25

   3   rms: 0.4710E+00   max: -.1915E+01   T at   51  1   RLX: 0.261
       a = -4.000      CL = -0.2169
      Cm = -0.0136     CD =  0.01608   =>   CDf =  0.01380    CDp =  0.00228

 Side 1  free  transition at x/c =  0.6288   52
 Side 2  free  transition at x/c =  0.0476   25

   4   rms: 0.3611E+00   max: -.1983E+01   T at   52  1   RLX: 0.252
       a = -4.000      CL = -0.1020
      Cm = -0.0551     CD =  0.01714   =>   CDf =  0.01241    CDp =  0.00473

 Side 1  free  transition at x/c =  0.6622   54
 Side 2  free  transition at x/c =  0.0468   25

   5   rms: 0.3386E+00   max: -.2480E+01   T at   54  1   RLX: 0.202
       a = -4.000      CL = -0.0503
      Cm = -0.0756     CD =  0.01572   =>   CDf =  0.01111    CDp =  0.00461

 Side 1  free  transition at x/c =  0.6943   56
 Side 2  free  transition at x/c =  0.0459   24

   6   rms: 0.4257E+00   max: -.4428E+01   C at   56  1   RLX: 0.113
       a = -4.000      CL = -0.0432
      Cm = -0.0821     CD =  0.01581   =>   CDf =  0.01024    CDp =  0.00557

 Side 1  free  transition at x/c =  0.7076   57
 Side 2  free  transition at x/c =  0.0451   24
 idif Ue xi dudx           1  0.12413736      3.04031372E-03   40.830444    
 Uenew xinew           2  6.80944836E-03  1.66773796E-04

   7   rms: 0.3957E+00   max: -.3851E+01   C at   57  1   RLX: 0.130
       a = -4.000      CL = -0.0310
      Cm = -0.0884     CD =  0.01634   =>   CDf =  0.00991    CDp =  0.00643

 Side 1  free  transition at x/c =  0.7281   57
 Side 2  free  transition at x/c =  0.0444   25

   8   rms: 0.4092E+00   max: -.4932E+01   C at   57  1   RLX: 0.101
       a = -4.000      CL = -0.0220
      Cm = -0.0930     CD =  0.01670   =>   CDf =  0.00939    CDp =  0.00731

 Side 1  free  transition at x/c =  0.7409   57
 Side 2  free  transition at x/c =  0.0440   25

   9   rms: 0.2390E+00   max: -.1879E+01   T at   57  1   RLX: 0.266
       a = -4.000      CL =  0.0416
      Cm = -0.1124     CD =  0.01706   =>   CDf =  0.00922    CDp =  0.00783

 Side 1  free  transition at x/c =  0.8065   61
 Side 2  free  transition at x/c =  0.0445   25

  10   rms: 0.1828E+00   max: -.1611E+01   T at   61  1   RLX: 0.310
       a = -4.000      CL =  0.0860
      Cm = -0.1266     CD =  0.01682   =>   CDf =  0.00841    CDp =  0.00841

 MRCHDU: Convergence failed at  73  side 1    Res =  0.1224E+01
 MRCHDU: Convergence failed at  74  side 1    Res =  0.3448E+01
 MRCHDU: Convergence failed at  75  side 1    Res =  0.5298E+01
 Side 1 forced transition at x/c =  1.0000   75
 Side 2  free  transition at x/c =  0.0447   25

  11   rms: 0.3023E+00   max: 0.3375E+01   C at   75  1   RLX: 0.444
       a = -4.000      CL =  0.0667
      Cm = -0.1308     CD =  0.01710   =>   CDf =  0.00753    CDp =  0.00957

 Side 1 forced transition at x/c =  1.0000   75
 Side 2  free  transition at x/c =  0.0442   25
 idif Ue xi dudx           1  0.13489752      3.71944904E-03   36.268143    
 Uenew xinew           2  2.16391142E-02  5.96642494E-04

  12   rms: 0.2822E+00   max: 0.1635E+01   C at   75  1   RLX: 0.918
       a = -4.000      CL = -0.0456
      Cm = -0.1150     CD =  0.02374   =>   CDf =  0.00709    CDp =  0.01664

 Side 1 forced transition at x/c =  1.0000   74
 Side 2  free  transition at x/c =  0.0481   27

  13   rms: 0.1978E+00   max: -.1046E+01   T at   27  2   RLX: 0.478
       a = -4.000      CL = -0.0768
      Cm = -0.1114     CD =  0.02633   =>   CDf =  0.00617    CDp =  0.02016

 Side 1  free  transition at x/c =  0.9637   70
 Side 2  free  transition at x/c =  0.0526   27

  14   rms: 0.1148E+00   max: 0.4361E+00   T at   27  2
       a = -4.000      CL = -0.0234
      Cm = -0.1204     CD =  0.02582   =>   CDf =  0.00486    CDp =  0.02096

 Side 1  free  transition at x/c =  0.9811   72
 Side 2  free  transition at x/c =  0.0498   27

  15   rms: 0.6760E-01   max: 0.2680E+00   T at   27  2
       a = -4.000      CL = -0.0219
      Cm = -0.1205     CD =  0.02574   =>   CDf =  0.00525    CDp =  0.02049

 Side 1  free  transition at x/c =  0.9728   71
 Side 2  free  transition at x/c =  0.0478   27

  16   rms: 0.2002E-01   max: -.2792E+00   T at   27  2
       a = -4.000      CL = -0.0286
      Cm = -0.1187     CD =  0.02659   =>   CDf =  0.00561    CDp =  0.02099

 Side 1  free  transition at x/c =  0.9731   71
 Side 2  free  transition at x/c =  0.0495   27

  17   rms: 0.5697E-01   max: 0.2763E+00   T at   27  2
       a = -4.000      CL = -0.0218
      Cm = -0.1204     CD =  0.02573   =>   CDf =  0.00533    CDp =  0.02041

 Side 1  free  transition at x/c =  0.9745   71
 Side 2  free  transition at x/c =  0.0475   27

  18   rms: 0.1983E-01   max: -.2625E+00   T at   27  2
       a = -4.000      CL = -0.0276
      Cm = -0.1189     CD =  0.02637   =>   CDf =  0.00566    CDp =  0.02071

 Side 1  free  transition at x/c =  0.9733   71
 Side 2  free  transition at x/c =  0.0490   27

  19   rms: 0.9443E-01   max: 0.6282E+00   T at   27  2
       a = -4.000      CL = -0.0130
      Cm = -0.1227     CD =  0.02445   =>   CDf =  0.00540    CDp =  0.01904

 Side 1  free  transition at x/c =  0.9771   72
 Side 2  free  transition at x/c =  0.0457   26

  20   rms: 0.3073E-01   max: -.1448E+00   D at   32  2
       a = -4.000      CL = -0.0146
      Cm = -0.1211     CD =  0.02655   =>   CDf =  0.00570    CDp =  0.02085

 Side 1  free  transition at x/c =  0.9749   71
 Side 2  free  transition at x/c =  0.0464   27

  21   rms: 0.2173E-01   max: 0.8751E-01   D at   27  2
       a = -4.000      CL = -0.0172
      Cm = -0.1207     CD =  0.02629   =>   CDf =  0.00617    CDp =  0.02012

 Side 1  free  transition at x/c =  0.9742   71
 Side 2  free  transition at x/c =  0.0463   27

  22   rms: 0.5621E-03   max: 0.3114E-02   D at   28  2
       a = -4.000      CL = -0.0173
      Cm = -0.1207     CD =  0.02629   =>   CDf =  0.00609    CDp =  0.02020

 Side 1  free  transition at x/c =  0.9743   71
 Side 2  free  transition at x/c =  0.0463   27

  23   rms: 0.6619E-05   max: -.4653E-04   T at   27  2
       a = -4.000      CL = -0.0173
      Cm = -0.1206     CD =  0.02629   =>   CDf =  0.00608    CDp =  0.02021
 plradd ia,ip,cpol            1           0  2.12354073E-03

 Point added to stored polar  1
 Point written to save file  s1221_Re150k.base.pol                           
 Dump file unspecified or not available
 Calculating wake trajectory ...
 Calculating source influence matrix ...

 Solving BL system ...

 Side 1  free  transition at x/c =  0.9743   71
 Side 2  free  transition at x/c =  0.0463   27

   1   rms: 0.1270E+00   max: 0.9320E+00   T at   27  2   RLX: 0.688
       a = -3.500      CL =  0.0531
      Cm = -0.1251     CD =  0.02610   =>   CDf =  0.00605    CDp =  0.02005

 Side 1  free  transition at x/c =  0.9461   70
 Side 2  free  transition at x/c =  0.0452   25

   2   rms: 0.1130E+00   max: 0.9010E+00   D at   26  2
       a = -3.500      CL =  0.0894
      Cm = -0.1304     CD =  0.02135   =>   CDf =  0.00671    CDp =  0.01464

 Side 1  free  transition at x/c =  0.9453   70
 Side 2  free  transition at x/c =  0.0447   25

   3   rms: 0.3889E-01   max: 0.2677E+00   D at   28  2
       a = -3.500      CL =  0.0900
      Cm = -0.1311     CD =  0.02047   =>   CDf =  0.00674    CDp =  0.01373

 Side 1  free  transition at x/c =  0.9454   70
 Side 2  free  transition at x/c =  0.0446   25

   4   rms: 0.3153E-02   max: 0.2810E-01   D at   27  2
       a = -3.500      CL =  0.0891
      Cm = -0.1309     CD =  0.02056   =>   CDf =  0.00663    CDp =  0.01394

 Side 1  free  transition at x/c =  0.9452   70
 Side 2  free  transition at x/c =  0.0446   25

   5   rms: 0.3728E-04   max: 0.2609E-03   D at   28  2
       a = -3.500      CL =  0.0891
      Cm = -0.1309     CD =  0.02056   =>   CDf =  0.00663    CDp =  0.01393
 plradd ia,ip,cpol            2           0  2.12354073E-03

 Point added to stored polar  1
 Point written to save file  s1221_Re150k.base.pol                           
 Dump file unspecified or not available
 Calculating wake trajectory ...
 Calculating source influence matrix ...

 Solving BL system ...

 Side 1  free  transition at x/c =  0.9452   70
 Side 2  free  transition at x/c =  0.0446   25

   1   rms: 0.1670E+00   max: -.4922E+00   D at   29  2
       a = -3.000      CL =  0.1965
      Cm = -0.1401     CD =  0.01622   =>   CDf =  0.00659    CDp =  0.00962

 Side 1  free  transition at x/c =  0.8897   67
 Side 2  free  transition at x/c =  0.0497   25

   2   rms: 0.7381E-01   max: 0.9058E+00   D at   25  2
       a = -3.000      CL =  0.1869
      Cm = -0.1376     CD =  0.01687   =>   CDf =  0.00674    CDp =  0.01013

 Side 1  free  transition at x/c =  0.8592   66
 Side 2  free  transition at x/c =  0.0496   25

   3   rms: 0.2358E-01   max: -.1619E+00   D at   74  1
       a = -3.000      CL =  0.2006
      Cm = -0.1406     CD =  0.01663   =>   CDf =  0.00684    CDp =  0.00979

 Side 1  free  transition at x/c =  0.8682   66
 Side 2  free  transition at x/c =  0.0500   25

   4   rms: 0.8820E-03   max: 0.8833E-02   D at   74  1
       a = -3.000      CL =  0.2006
      Cm = -0.1406     CD =  0.01667   =>   CDf =  0.00685    CDp =  0.00982

 Side 1  free  transition at x/c =  0.8685   66
 Side 2  free  transition at x/c =  0.0500   25

   5   rms: 0.8056E-05   max: -.8898E-04   D at   26  2
       a = -3.000      CL =  0.2006
      Cm = -0.1406     CD =  0.01667   =>   CDf =  0.00685    CDp =  0.00982
 plradd ia,ip,cpol            3           0  3.50557221E-03

 Point added to stored polar  1
 Point written to save file  s1221_Re150k.base.pol                           
 Dump file unspecified or not available
 Calculating wake trajectory ...
 Calculating source influence matrix ...

 Solving BL system ...

 Side 1  free  transition at x/c =  0.8685   66
 Side 2  free  transition at x/c =  0.0500   25

   1   rms: 0.2431E+00   max: -.9024E+00   D at   72  1   RLX: 0.554
       a = -2.500      CL =  0.2988
      Cm = -0.1527     CD =  0.01423   =>   CDf =  0.00680    CDp =  0.00743

 Side 1  free  transition at x/c =  0.7629   61
 Side 2  free  transition at x/c =  0.0554   25

   2   rms: 0.1876E+00   max: 0.1031E+01   C at   61  1   RLX: 0.554
       a = -2.500      CL =  0.3460
      Cm = -0.1599     CD =  0.01392   =>   CDf =  0.00742    CDp =  0.00650

 Side 1  free  transition at x/c =  0.7208   58
 Side 2  free  transition at x/c =  0.0640   25

   3   rms: 0.5054E-01   max: -.3407E+00   T at   25  2
       a = -2.500      CL =  0.3706
      Cm = -0.1625     CD =  0.01445   =>   CDf =  0.00765    CDp =  0.00680

 Side 1  free  transition at x/c =  0.6895   56
 Side 2  free  transition at x/c =  0.0762   26

   4   rms: 0.2175E-01   max: -.2182E+00   D at   26  2
       a = -2.500      CL =  0.3732
      Cm = -0.1632     CD =  0.01432   =>   CDf =  0.00795    CDp =  0.00637

 Side 1  free  transition at x/c =  0.6915   57
 Side 2  free  transition at x/c =  0.0822   27

   5   rms: 0.1228E-01   max: 0.1556E+00   D at   27  2
       a = -2.500      CL =  0.3750
      Cm = -0.1638     CD =  0.01408   =>   CDf =  0.00792    CDp =  0.00616

 Side 1  free  transition at x/c =  0.6917   57
 Side 2  free  transition at x/c =  0.0845   27

   6   rms: 0.3952E-03   max: 0.4642E-02   C at   57  1
       a = -2.500      CL =  0.3749
      Cm = -0.1638     CD =  0.01410   =>   CDf =  0.00784    CDp =  0.00626

 Side 1  free  transition at x/c =  0.6916   57
 Side 2  free  transition at x/c =  0.0845   27

   7   rms: 0.2533E-05   max: 0.2011E-04   C at   57  1
       a = -2.500      CL =  0.3749
      Cm = -0.1638     CD =  0.01410   =>   CDf =  0.00784    CDp =  0.00626
 plradd ia,ip,cpol            4           0  3.50557221E-03

 Point added to stored polar  1
 Point written to save file  s1221_Re150k.base.pol                           
 Dump file unspecified or not available
 Calculating wake trajectory ...
 Calculating source influence matrix ...

 Solving BL system ...

 Side 1  free  transition at x/c =  0.6916   57
 Side 2  free  transition at x/c =  0.0845   27

   1   rms: 0.4804E+00   max: -.5004E+01   C at   27  2   RLX: 0.100
       a = -2.000      CL =  0.3850
      Cm = -0.1649     CD =  0.01382   =>   CDf =  0.00785    CDp =  0.00597

 Side 1  free  transition at x/c =  0.6825   56
 Side 2  free  transition at x/c =  0.1077   29

   2   rms: 0.5329E+01   max: 0.6804E+02   C at   29  2   RLX: 0.020
       a = -2.000      CL =  0.3786
      Cm = -0.1616     CD =  0.01490   =>   CDf =  0.00783    CDp =  0.00707

 Side 1  free  transition at x/c =  0.6823   56
 Side 2  free  transition at x/c =  0.0847   27

   3   rms: 0.2491E+00   max: -.3255E+01   T at   27  2   RLX: 0.154
       a = -2.000      CL =  0.3898
      Cm = -0.1614     CD =  0.01477   =>   CDf =  0.00771    CDp =  0.00706

 Side 1  free  transition at x/c =  0.6697   56
 Side 2  free  transition at x/c =  0.1126   28

   4   rms: 0.5803E+01   max: -.8633E+02   C at   28  2   RLX: 0.006
       a = -2.000      CL =  0.3915
      Cm = -0.1620     CD =  0.01369   =>   CDf =  0.00792    CDp =  0.00577

 Side 1  free  transition at x/c =  0.6690   56
 Side 2  free  transition at x/c =  0.1230   29

   5   rms: 0.1020E+03   max: -.1004E+04   C at   29  2   RLX: 0.000
       a = -2.000      CL =  0.3975
      Cm = -0.1632     CD =  0.01343   =>   CDf =  0.00789    CDp =  0.00554

 Side 1  free  transition at x/c =  0.6683   56
 Side 2  free  transition at x/c =  0.1413   30

   6   rms: 0.4868E+01   max: -.8338E+02   C at   30  2   RLX: 0.006
       a = -2.000      CL =  0.4013
      Cm = -0.1637     CD =  0.01346   =>   CDf =  0.00784    CDp =  0.00562

 Side 1  free  transition at x/c =  0.6675   56
 Side 2  free  transition at x/c =  0.1468   30

   7   rms: 0.6574E+00   max: -.7387E+01   T at   30  2   RLX: 0.068
       a = -2.000      CL =  0.4075
      Cm = -0.1644     CD =  0.01345   =>   CDf =  0.00791    CDp =  0.00554

 Side 1  free  transition at x/c =  0.6629   56
 Side 2  free  transition at x/c =  0.1857   33

   8   rms: 0.1243E+01   max: -.2280E+02   C at   33  2   RLX: 0.022
       a = -2.000      CL =  0.4110
      Cm = -0.1648     CD =  0.01324   =>   CDf =  0.00774    CDp =  0.00550

 Side 1  free  transition at x/c =  0.6615   56
 Side 2  free  transition at x/c =  0.1948   33

   9   rms: 0.3361E+01   max: -.5568E+02   C at   33  2   RLX: 0.009
       a = -2.000      CL =  0.4082
      Cm = -0.1649     CD =  0.01317   =>   CDf =  0.00740    CDp =  0.00577

 Side 1  free  transition at x/c =  0.6609   56
 Side 2  free  transition at x/c =  0.1920   33

  10   rms: 0.3182E+00   max: -.3359E+01   T at   33  2   RLX: 0.149
       a = -2.000      CL =  0.4189
      Cm = -0.1659     CD =  0.01319   =>   CDf =  0.00779    CDp =  0.00540

 Side 1  free  transition at x/c =  0.6534   55
 Side 2  free  transition at x/c =  0.2416   37

  11   rms: 0.4685E+00   max: -.6545E+01   C at   37  2   RLX: 0.076
       a = -2.000      CL =  0.4250
      Cm = -0.1666     CD =  0.01307   =>   CDf =  0.00762    CDp =  0.00545

 Side 1  free  transition at x/c =  0.6493   55
 Side 2  free  transition at x/c =  0.2613   38

  12   rms: 0.4233E+00   max: -.5899E+01   C at   38  2   RLX: 0.085
       a = -2.000      CL =  0.4294
      Cm = -0.1672     CD =  0.01310   =>   CDf =  0.00751    CDp =  0.00559

 Side 1  free  transition at x/c =  0.6455   55
 Side 2  free  transition at x/c =  0.2751   39

  13   rms: 0.3086E+00   max: -.3111E+01   C at   39  2   RLX: 0.161
       a = -2.000      CL =  0.4351
      Cm = -0.1680     CD =  0.01304   =>   CDf =  0.00757    CDp =  0.00548

 Side 1  free  transition at x/c =  0.6399   55
 Side 2  free  transition at x/c =  0.3004   40

  14   rms: 0.1881E+00   max: 0.1749E+01   D at   41  2   RLX: 0.370
       a = -2.000      CL =  0.4384
      Cm = -0.1677     CD =  0.01370   =>   CDf =  0.00745    CDp =  0.00624

 Side 1  free  transition at x/c =  0.6314   54
 Side 2  free  transition at x/c =  0.3272   42

  15   rms: 0.8812E-01   max: -.8531E+00   T at   42  2   RLX: 0.586
       a = -2.000      CL =  0.4387
      Cm = -0.1663     CD =  0.01453   =>   CDf =  0.00766    CDp =  0.00687

 Side 1  free  transition at x/c =  0.6212   53
 Side 2  free  transition at x/c =  0.3427   42

  16   rms: 0.8010E-01   max: -.1109E+01   T at   42  2   RLX: 0.451
       a = -2.000      CL =  0.4439
      Cm = -0.1666     CD =  0.01634   =>   CDf =  0.00782    CDp =  0.00852

 MRCHDU: Convergence failed at  44  side 2    Res =  0.6295E+01
 MRCHDU: Convergence failed at  45  side 2    Res =  0.4082E+01
 MRCHDU: Convergence failed at  46  side 2    Res =  0.3885E+02
 MRCHDU: Convergence failed at  47  side 2    Res =  0.2362E+02
 MRCHDU: Convergence failed at  48  side 2    Res =  0.1863E+02
 MRCHDU: Convergence failed at  49  side 2    Res =  0.2024E+02
 MRCHDU: Convergence failed at  50  side 2    Res =  0.2648E+02
 MRCHDU: Convergence failed at  51  side 2    Res =  0.3564E+02
 MRCHDU: Convergence failed at  52  side 2    Res =  0.5205E+02
 MRCHDU: Convergence failed at  53  side 2    Res =  0.8736E+02
 MRCHDU: Convergence failed at  54  side 2    Res =  0.1523E+03
 MRCHDU: Convergence failed at  55  side 2    Res =  0.2325E+04
 MRCHDU: Convergence failed at  56  side 2    Res =  0.1984E+03
 MRCHDU: Convergence failed at  57  side 2    Res =  0.1190E+03
 MRCHDU: Convergence failed at  58  side 2    Res =  0.8772E+02
 MRCHDU: Convergence failed at  59  side 2    Res =  0.7595E+02
 MRCHDU: Convergence failed at  60  side 2    Res =  0.7352E+02
 MRCHDU: Convergence failed at  61  side 2    Res =  0.7085E+02
 MRCHDU: Convergence failed at  62  side 2    Res =  0.6224E+02
 MRCHDU: Convergence failed at  63  side 2    Res =  0.5387E+02
 MRCHDU: Convergence failed at  64  side 2    Res =  0.4712E+02
 MRCHDU: Convergence failed at  65  side 2    Res =  0.4178E+02
 MRCHDU: Convergence failed at  66  side 2    Res =  0.3998E+02
 MRCHDU: Convergence failed at  67  side 2    Res =  0.3658E+02
 MRCHDU: Convergence failed at  68  side 2    Res =  0.3401E+02
 MRCHDU: Convergence failed at  69  side 2    Res =  0.3214E+02
 MRCHDU: Convergence failed at  70  side 2    Res =  0.3084E+02
 MRCHDU: Convergence failed at  71  side 2    Res =  0.3051E+02
 MRCHDU: Convergence failed at  72  side 2    Res =  0.3001E+02
 MRCHDU: Convergence failed at  73  side 2    Res =  0.2984E+02
 MRCHDU: Convergence failed at  74  side 2    Res =  0.3001E+02
 MRCHDU: Convergence failed at  75  side 2    Res =  0.3050E+02
 MRCHDU: Convergence failed at  76  side 2    Res =  0.3100E+02
 MRCHDU: Convergence failed at  77  side 2    Res =  0.3272E+02
 MRCHDU: Convergence failed at  78  side 2    Res =  0.3550E+02
 MRCHDU: Convergence failed at  79  side 2    Res =  0.3986E+02
 MRCHDU: Convergence failed at  80  side 2    Res =  0.4560E+02
 MRCHDU: Convergence failed at  81  side 2    Res =  0.6701E+02
 MRCHDU: Convergence failed at  82  side 2    Res =  0.6971E+03
 MRCHDU: Convergence failed at  83  side 2    Res =  0.5368E+02
 MRCHDU: Convergence failed at  84  side 2    Res =  0.4287E+02
 Side 1  free  transition at x/c =  0.6175   53
 Side 2  free  transition at x/c =  0.3585   43

  17   rms: 0.4780E+00   max: 0.3962E+01   T at   43  2   RLX: 0.184
       a = -2.000      CL =  0.2087
      Cm = -0.0594     CD =  0.01202   =>   CDf =  0.00564    CDp =  0.00639

 Side 1  free  transition at x/c =  0.6211   53
 Side 2  free  transition at x/c =  0.3306   42

  18   rms: 0.2952E+00   max: -.9842E+00   D at   48  2   RLX: 0.508
       a = -2.000      CL =  0.3514
      Cm = -0.1343     CD =  0.02317   =>   CDf =  0.00606    CDp =  0.01711

 Side 1  free  transition at x/c =  0.6318   54
 Side 2  free  transition at x/c =  0.3352   42

  19   rms: 0.3316E+00   max: -.1291E+01   D at   80  2   RLX: 0.387
       a = -2.000      CL =  0.4061
      Cm = -0.1592     CD =  0.01806   =>   CDf =  0.00589    CDp =  0.01218

 Side 1  free  transition at x/c =  0.6235   54
 Side 2  free  transition at x/c =  0.3569   43

  20   rms: 0.4388E+00   max: -.1990E+01   D at   64  2   RLX: 0.251
       a = -2.000      CL =  0.4129
      Cm = -0.1643     CD =  0.01530   =>   CDf =  0.00638    CDp =  0.00892

 Side 1  free  transition at x/c =  0.6224   54
 Side 2  free  transition at x/c =  0.3597   43

  21   rms: 0.4512E+00   max: -.1639E+01   D at   46  2   RLX: 0.305
       a = -2.000      CL =  0.3722
      Cm = -0.1560     CD =  0.01375   =>   CDf =  0.00686    CDp =  0.00689

 Side 1  free  transition at x/c =  0.6307   54
 Side 2  free  transition at x/c =  0.3389   42
 idif Ue xi dudx           1  0.14210948      3.03292274E-03   46.855621    
 Uenew xinew           2  2.68668570E-02  5.73396683E-04

  22   rms: 0.3406E+00   max: 0.2302E+01   T at   42  2   RLX: 0.288
       a = -2.000      CL =  0.3028
      Cm = -0.1410     CD =  0.01369   =>   CDf =  0.00709    CDp =  0.00660

 Side 1  free  transition at x/c =  0.6446   54
 Side 2  free  transition at x/c =  0.2774   40

  23   rms: 0.1305E+00   max: -.1167E+01   D at   85  2   RLX: 0.428
       a = -2.000      CL =  0.3203
      Cm = -0.1438     CD =  0.01365   =>   CDf =  0.00736    CDp =  0.00628

 Side 1  free  transition at x/c =  0.6426   54
 Side 2  free  transition at x/c =  0.2846   40

  24   rms: 0.1924E+00   max: -.1474E+01   T at   40  2   RLX: 0.339
       a = -2.000      CL =  0.3540
      Cm = -0.1498     CD =  0.01430   =>   CDf =  0.00741    CDp =  0.00689

 Side 1  free  transition at x/c =  0.6363   54
 Side 2  free  transition at x/c =  0.3140   41

  25   rms: 0.1515E+00   max: 0.1316E+01   D at   41  2   RLX: 0.983
       a = -2.000      CL =  0.4373
      Cm = -0.1654     CD =  0.01442   =>   CDf =  0.00747    CDp =  0.00696

 Side 1  free  transition at x/c =  0.6122   53
 Side 2  free  transition at x/c =  0.3611   44

  26   rms: 0.2793E-01   max: -.2981E+00   D at   82  2
       a = -2.000      CL =  0.4410
      Cm = -0.1656     CD =  0.01509   =>   CDf =  0.00782    CDp =  0.00727

 Side 1  free  transition at x/c =  0.6163   53
 Side 2  free  transition at x/c =  0.3598   43

  27   rms: 0.6257E-02   max: -.6509E-01   C at   43  2
       a = -2.000      CL =  0.4388
      Cm = -0.1651     CD =  0.01504   =>   CDf =  0.00775    CDp =  0.00730

 Side 1  free  transition at x/c =  0.6161   53
 Side 2  free  transition at x/c =  0.3576   43

  28   rms: 0.9544E-03   max: -.9099E-02   D at   45  2
       a = -2.000      CL =  0.4389
      Cm = -0.1651     CD =  0.01505   =>   CDf =  0.00770    CDp =  0.00734

 Side 1  free  transition at x/c =  0.6161   53
 Side 2  free  transition at x/c =  0.3578   43

  29   rms: 0.6068E-05   max: -.8255E-04   T at   43  2
       a = -2.000      CL =  0.4389
      Cm = -0.1651     CD =  0.01505   =>   CDf =  0.00771    CDp =  0.00734
 plradd ia,ip,cpol            5           0  3.50557221E-03

 Point added to stored polar  1
 Point written to save file  s1221_Re150k.base.pol                           
 Dump file unspecified or not available
 Calculating wake trajectory ...
 Calculating source influence matrix ...

 Solving BL system ...

 Side 1  free  transition at x/c =  0.6161   53
 Side 2  free  transition at x/c =  0.3578   43

   1   rms: 0.2252E+00   max: -.2742E+01   T at   43  2   RLX: 0.182
       a = -1.500      CL =  0.4508
      Cm = -0.1654     CD =  0.01548   =>   CDf =  0.00771    CDp =  0.00777

 Side 1  free  transition at x/c =  0.6046   53
 Side 2  free  transition at x/c =  0.3762   44

   2   rms: 0.1758E+00   max: -.2208E+01   T at   44  2   RLX: 0.226
       a = -1.500      CL =  0.4613
      Cm = -0.1654     CD =  0.01555   =>   CDf =  0.00787    CDp =  0.00768

 MRCHDU: Convergence failed at  47  side 2    Res =  0.1826E+01
 MRCHDU: Convergence failed at  48  side 2    Res =  0.5575E+01
 MRCHDU: Convergence failed at  49  side 2    Res =  0.1748E+01
 MRCHDU: Convergence failed at  50  side 2    Res =  0.1420E+01
 MRCHDU: Convergence failed at  51  side 2    Res =  0.2068E+01
 MRCHDU: Convergence failed at  52  side 2    Res =  0.2549E+01
 MRCHDU: Convergence failed at  53  side 2    Res =  0.3122E+01
 MRCHDU: Convergence failed at  54  side 2    Res =  0.3750E+01
 MRCHDU: Convergence failed at  55  side 2    Res =  0.4456E+01
 MRCHDU: Convergence failed at  56  side 2    Res =  0.5253E+01
 MRCHDU: Convergence failed at  57  side 2    Res =  0.6129E+01
 MRCHDU: Convergence failed at  58  side 2    Res =  0.7331E+01
 MRCHDU: Convergence failed at  59  side 2    Res =  0.8446E+01
 MRCHDU: Convergence failed at  60  side 2    Res =  0.9806E+01
 MRCHDU: Convergence failed at  61  side 2    Res =  0.1128E+02
 MRCHDU: Convergence failed at  62  side 2    Res =  0.1268E+02
 MRCHDU: Convergence failed at  63  side 2    Res =  0.1385E+02
 MRCHDU: Convergence failed at  64  side 2    Res =  0.1477E+02
 MRCHDU: Convergence failed at  65  side 2    Res =  0.1541E+02
 MRCHDU: Convergence failed at  66  side 2    Res =  0.1585E+02
 MRCHDU: Convergence failed at  67  side 2    Res =  0.1621E+02
 MRCHDU: Convergence failed at  68  side 2    Res =  0.1636E+02
 MRCHDU: Convergence failed at  69  side 2    Res =  0.1646E+02
 MRCHDU: Convergence failed at  70  side 2    Res =  0.1652E+02
 MRCHDU: Convergence failed at  71  side 2    Res =  0.1663E+02
 MRCHDU: Convergence failed at  72  side 2    Res =  0.1686E+02
 MRCHDU: Convergence failed at  73  side 2    Res =  0.1725E+02
 MRCHDU: Convergence failed at  74  side 2    Res =  0.1825E+02
 MRCHDU: Convergence failed at  75  side 2    Res =  0.1982E+02
 MRCHDU: Convergence failed at  76  side 2    Res =  0.2233E+02
 MRCHDU: Convergence failed at  77  side 2    Res =  0.2544E+02
 MRCHDU: Convergence failed at  78  side 2    Res =  0.2809E+02
 MRCHDU: Convergence failed at  79  side 2    Res =  0.2935E+02
 MRCHDU: Convergence failed at  80  side 2    Res =  0.2973E+02
 MRCHDU: Convergence failed at  81  side 2    Res =  0.4663E+02
 MRCHDU: Convergence failed at  82  side 2    Res =  0.1779E+03
 MRCHDU: Convergence failed at  83  side 2    Res =  0.3069E+02
 MRCHDU: Convergence failed at  84  side 2    Res =  0.2546E+02
 Side 1  free  transition at x/c =  0.5970   52
 Side 2  free  transition at x/c =  0.3910   45

   3   rms: 0.2673E+00   max: 0.1239E+01   C at   45  2
       a = -1.500      CL =  0.3860
      Cm = -0.1370     CD =  0.01383   =>   CDf =  0.00623    CDp =  0.00761

 MRCHDU: Convergence failed at  46  side 2    Res =  0.3231E+01
 MRCHDU: Convergence failed at  47  side 2    Res =  0.3986E+01
 MRCHDU: Convergence failed at  48  side 2    Res =  0.6416E+01
 MRCHDU: Convergence failed at  49  side 2    Res =  0.3219E+01
 MRCHDU: Convergence failed at  50  side 2    Res =  0.2183E+01
 MRCHDU: Convergence failed at  51  side 2    Res =  0.3373E+01
 MRCHDU: Convergence failed at  52  side 2    Res =  0.3806E+01
 Side 1  free  transition at x/c =  0.5885   52
 Side 2  free  transition at x/c =  0.3636   44

   4   rms: 0.1865E+00   max: -.1777E+01   T at   44  2   RLX: 0.281
       a = -1.500      CL =  0.3973
      Cm = -0.1414     CD =  0.01682   =>   CDf =  0.00696    CDp =  0.00986

 Side 1  free  transition at x/c =  0.5850   51
 Side 2  free  transition at x/c =  0.3761   44

   5   rms: 0.2071E+00   max: -.2532E+01   T at   44  2   RLX: 0.198
       a = -1.500      CL =  0.4228
      Cm = -0.1468     CD =  0.01900   =>   CDf =  0.00803    CDp =  0.01097

 Side 1  free  transition at x/c =  0.5811   52
 Side 2  free  transition at x/c =  0.3852   44

   6   rms: 0.1138E+00   max: -.9565E+00   T at    2  1   RLX: 0.523
       a = -1.500      CL =  0.4566
      Cm = -0.1551     CD =  0.01584   =>   CDf =  0.00811    CDp =  0.00773

 Side 1  free  transition at x/c =  0.5751   52
 Side 2  free  transition at x/c =  0.3927   44

   7   rms: 0.4381E-01   max: -.4341E+00   T at   44  2
       a = -1.500      CL =  0.4922
      Cm = -0.1635     CD =  0.01639   =>   CDf =  0.00800    CDp =  0.00838

 MRCHDU: Convergence failed at  47  side 2    Res =  0.1231E+01
 MRCHDU: Convergence failed at  48  side 2    Res =  0.3668E+01
 MRCHDU: Convergence failed at  49  side 2    Res =  0.3999E+01
 MRCHDU: Convergence failed at  50  side 2    Res =  0.1652E+01
 MRCHDU: Convergence failed at  51  side 2    Res =  0.1372E+01
 MRCHDU: Convergence failed at  52  side 2    Res =  0.1339E+01
 MRCHDU: Convergence failed at  53  side 2    Res =  0.1843E+01
 MRCHDU: Convergence failed at  54  side 2    Res =  0.2206E+01
 MRCHDU: Convergence failed at  55  side 2    Res =  0.2699E+01
 MRCHDU: Convergence failed at  56  side 2    Res =  0.3310E+01
 MRCHDU: Convergence failed at  57  side 2    Res =  0.4126E+01
 MRCHDU: Convergence failed at  58  side 2    Res =  0.4220E+01
 MRCHDU: Convergence failed at  59  side 2    Res =  0.4711E+01
 MRCHDU: Convergence failed at  60  side 2    Res =  0.5576E+01
 MRCHDU: Convergence failed at  61  side 2    Res =  0.6448E+01
 MRCHDU: Convergence failed at  62  side 2    Res =  0.7431E+01
 MRCHDU: Convergence failed at  63  side 2    Res =  0.8507E+01
 MRCHDU: Convergence failed at  64  side 2    Res =  0.9668E+01
 MRCHDU: Convergence failed at  65  side 2    Res =  0.1093E+02
 MRCHDU: Convergence failed at  66  side 2    Res =  0.1227E+02
 MRCHDU: Convergence failed at  67  side 2    Res =  0.1368E+02
 MRCHDU: Convergence failed at  68  side 2    Res =  0.1517E+02
 MRCHDU: Convergence failed at  69  side 2    Res =  0.1670E+02
 MRCHDU: Convergence failed at  70  side 2    Res =  0.1827E+02
 MRCHDU: Convergence failed at  71  side 2    Res =  0.2005E+02
 MRCHDU: Convergence failed at  72  side 2    Res =  0.2233E+02
 MRCHDU: Convergence failed at  73  side 2    Res =  0.2573E+02
 MRCHDU: Convergence failed at  74  side 2    Res =  0.3151E+02
 MRCHDU: Convergence failed at  75  side 2    Res =  0.4214E+02
 MRCHDU: Convergence failed at  76  side 2    Res =  0.5995E+02
 MRCHDU: Convergence failed at  77  side 2    Res =  0.7793E+02
 MRCHDU: Convergence failed at  78  side 2    Res =  0.7820E+02
 MRCHDU: Convergence failed at  79  side 2    Res =  0.6648E+02
 MRCHDU: Convergence failed at  80  side 2    Res =  0.1101E+03
 MRCHDU: Convergence failed at  81  side 2    Res =  0.1111E+03
 MRCHDU: Convergence failed at  82  side 2    Res =  0.1423E+03
 Side 1  free  transition at x/c =  0.5710   52
 Side 2  free  transition at x/c =  0.4059   45
 idif Ue xi dudx           1  0.13679475      2.55358219E-03   53.569744    
 Uenew xinew           2  1.37235383E-02  2.56180763E-04

   8   rms: 0.2775E+00   max: 0.1029E+01   T at   47  2
       a = -1.500      CL =  0.3985
      Cm = -0.1366     CD =  0.01463   =>   CDf =  0.00640    CDp =  0.00823

 MRCHDU: Convergence failed at  47  side 2    Res =  0.3946E+01
 MRCHDU: Convergence failed at  48  side 2    Res =  0.2475E+01
 MRCHDU: Convergence failed at  49  side 2    Res =  0.2431E+01
 MRCHDU: Convergence failed at  50  side 2    Res =  0.2760E+01
 MRCHDU: Convergence failed at  51  side 2    Res =  0.4016E+01
 Side 1  free  transition at x/c =  0.5837   51
 Side 2  free  transition at x/c =  0.3639   44

   9   rms: 0.2796E+00   max: -.1989E+01   T at   44  2   RLX: 0.251
       a = -1.500      CL =  0.4155
      Cm = -0.1443     CD =  0.01832   =>   CDf =  0.00694    CDp =  0.01138

 Side 1  free  transition at x/c =  0.5801   52
 Side 2  free  transition at x/c =  0.3769   43

  10   rms: 0.3993E+00   max: -.4587E+01   D at    2  1   RLX: 0.109
       a = -1.500      CL =  0.4296
      Cm = -0.1472     CD =  0.02010   =>   CDf =  0.00791    CDp =  0.01219

 Side 1  free  transition at x/c =  0.5785   52
 Side 2  free  transition at x/c =  0.3816   44

  11   rms: 0.8673E-01   max: -.8176E+00   T at   44  2   RLX: 0.612
       a = -1.500      CL =  0.4658
      Cm = -0.1569     CD =  0.01615   =>   CDf =  0.00810    CDp =  0.00805

 Side 1  free  transition at x/c =  0.5738   52
 Side 2  free  transition at x/c =  0.3938   44

  12   rms: 0.6472E-01   max: -.5940E+00   T at   44  2   RLX: 0.842
       a = -1.500      CL =  0.4901
      Cm = -0.1628     CD =  0.01714   =>   CDf =  0.00802    CDp =  0.00912

 MRCHDU: Convergence failed at  46  side 2    Res =  0.9610E+01
 MRCHDU: Convergence failed at  47  side 2    Res =  0.9288E+01
 MRCHDU: Convergence failed at  48  side 2    Res =  0.5395E+01
 MRCHDU: Convergence failed at  49  side 2    Res =  0.3262E+01
 MRCHDU: Convergence failed at  50  side 2    Res =  0.3207E+01
 MRCHDU: Convergence failed at  51  side 2    Res =  0.3573E+01
 MRCHDU: Convergence failed at  52  side 2    Res =  0.5351E+01
 MRCHDU: Convergence failed at  53  side 2    Res =  0.8791E+01
 MRCHDU: Convergence failed at  54  side 2    Res =  0.1762E+02
 MRCHDU: Convergence failed at  55  side 2    Res =  0.6944E+02
 MRCHDU: Convergence failed at  56  side 2    Res =  0.6927E+02
 MRCHDU: Convergence failed at  57  side 2    Res =  0.2687E+02
 MRCHDU: Convergence failed at  58  side 2    Res =  0.1856E+02
 MRCHDU: Convergence failed at  59  side 2    Res =  0.1480E+02
 MRCHDU: Convergence failed at  60  side 2    Res =  0.1796E+02
 MRCHDU: Convergence failed at  61  side 2    Res =  0.1856E+02
 MRCHDU: Convergence failed at  62  side 2    Res =  0.1810E+02
 MRCHDU: Convergence failed at  63  side 2    Res =  0.1878E+02
 MRCHDU: Convergence failed at  64  side 2    Res =  0.2035E+02
 MRCHDU: Convergence failed at  65  side 2    Res =  0.2273E+02
 MRCHDU: Convergence failed at  66  side 2    Res =  0.2609E+02
 MRCHDU: Convergence failed at  67  side 2    Res =  0.3075E+02
 MRCHDU: Convergence failed at  68  side 2    Res =  0.3681E+02
 MRCHDU: Convergence failed at  69  side 2    Res =  0.4618E+02
 MRCHDU: Convergence failed at  70  side 2    Res =  0.5851E+02
 MRCHDU: Convergence failed at  71  side 2    Res =  0.7593E+02
 MRCHDU: Convergence failed at  72  side 2    Res =  0.9384E+02
 MRCHDU: Convergence failed at  73  side 2    Res =  0.1013E+03
 MRCHDU: Convergence failed at  74  side 2    Res =  0.9067E+02
 MRCHDU: Convergence failed at  75  side 2    Res =  0.7369E+02
 MRCHDU: Convergence failed at  76  side 2    Res =  0.6355E+02
 MRCHDU: Convergence failed at  77  side 2    Res =  0.6377E+02
 MRCHDU: Convergence failed at  78  side 2    Res =  0.8470E+02
 MRCHDU: Convergence failed at  79  side 2    Res =  0.1420E+03
 MRCHDU: Convergence failed at  80  side 2    Res =  0.1198E+03
 MRCHDU: Convergence failed at  81  side 2    Res =  0.1085E+03
 MRCHDU: Convergence failed at  82  side 2    Res =  0.4975E+02
 MRCHDU: Convergence failed at  83  side 2    Res =  0.6710E+01
 Side 1  free  transition at x/c =  0.5712   52
 Side 2  free  transition at x/c =  0.4063   45
 idif Ue xi dudx           1  0.13568832      2.50172615E-03   54.237881    
 Uenew xinew           2  1.10821398E-02  2.04324722E-04

  13   rms: 0.4370E+00   max: 0.1954E+01   T at   46  2   RLX: 0.768
       a = -1.500      CL =  0.3494
      Cm = -0.1113     CD =  0.01384   =>   CDf =  0.00618    CDp =  0.00767

 MRCHDU: Convergence failed at  47  side 2    Res =  0.1905E+01
 MRCHDU: Convergence failed at  48  side 2    Res =  0.1869E+01
 Side 1  free  transition at x/c =  0.5837   51
 Side 2  free  transition at x/c =  0.3622   44

  14   rms: 0.3063E+00   max: -.2368E+01   T at   44  2   RLX: 0.211
       a = -1.500      CL =  0.4150
      Cm = -0.1418     CD =  0.02213   =>   CDf =  0.00631    CDp =  0.01582

 Side 1  free  transition at x/c =  0.5806   52
 Side 2  free  transition at x/c =  0.3745   43

  15   rms: 0.5684E+00   max: 0.6210E+01   T at   43  2   RLX: 0.120
       a = -1.500      CL =  0.4160
      Cm = -0.1419     CD =  0.02371   =>   CDf =  0.00639    CDp =  0.01731

 Side 1  free  transition at x/c =  0.5811   52
 Side 2  free  transition at x/c =  0.3611   43

  16   rms: 0.2230E+00   max: -.1285E+01   T at   43  2   RLX: 0.389
       a = -1.500      CL =  0.4445
      Cm = -0.1496     CD =  0.02391   =>   CDf =  0.00624    CDp =  0.01767

 Side 1  free  transition at x/c =  0.5760   52
 Side 2  free  transition at x/c =  0.3701   43

  17   rms: 0.7794E+00   max: -.8516E+01   T at   43  2   RLX: 0.059
       a = -1.500      CL =  0.4700
      Cm = -0.1573     CD =  0.02526   =>   CDf =  0.00639    CDp =  0.01887

 Side 1  free  transition at x/c =  0.5728   52
 Side 2  free  transition at x/c =  0.3806   44

  18   rms: 0.4213E+00   max: -.2775E+01   T at   44  2   RLX: 0.180
       a = -1.500      CL =  0.4974
      Cm = -0.1657     CD =  0.02102   =>   CDf =  0.00663    CDp =  0.01439

 Side 1  free  transition at x/c =  0.5701   51
 Side 2  free  transition at x/c =  0.3946   45

  19   rms: 0.2427E+00   max: -.1058E+01   D at   66  2   RLX: 0.473
       a = -1.500      CL =  0.5135
      Cm = -0.1704     CD =  0.01761   =>   CDf =  0.00703    CDp =  0.01058

 MRCHDU: Convergence failed at  75  side 2    Res =  0.2477E+00
 Side 1  free  transition at x/c =  0.5679   51
 Side 2  free  transition at x/c =  0.4013   45

  20   rms: 0.2335E+00   max: -.1085E+01   D at   56  2   RLX: 0.461
       a = -1.500      CL =  0.5149
      Cm = -0.1695     CD =  0.01690   =>   CDf =  0.00739    CDp =  0.00951

 Side 1  free  transition at x/c =  0.5673   51
 Side 2  free  transition at x/c =  0.4103   45

  21   rms: 0.1358E+00   max: -.6914E+00   D at   77  2   RLX: 0.723
       a = -1.500      CL =  0.5062
      Cm = -0.1676     CD =  0.01617   =>   CDf =  0.00778    CDp =  0.00839

 Side 1  free  transition at x/c =  0.5690   51
 Side 2  free  transition at x/c =  0.4057   45

  22   rms: 0.5904E-01   max: -.4377E+00   D at   77  2
       a = -1.500      CL =  0.4922
      Cm = -0.1637     CD =  0.01609   =>   CDf =  0.00791    CDp =  0.00818

 Side 1  free  transition at x/c =  0.5710   52
 Side 2  free  transition at x/c =  0.4008   45

  23   rms: 0.1226E-01   max: -.1061E+00   D at   77  2
       a = -1.500      CL =  0.4894
      Cm = -0.1630     CD =  0.01606   =>   CDf =  0.00806    CDp =  0.00800

 Side 1  free  transition at x/c =  0.5718   52
 Side 2  free  transition at x/c =  0.4006   45

  24   rms: 0.7036E-03   max: -.7489E-02   D at   54  1
       a = -1.500      CL =  0.4895
      Cm = -0.1630     CD =  0.01607   =>   CDf =  0.00798    CDp =  0.00809

 Side 1  free  transition at x/c =  0.5716   52
 Side 2  free  transition at x/c =  0.4006   45

  25   rms: 0.4700E-05   max: -.7106E-04   D at   54  1
       a = -1.500      CL =  0.4895
      Cm = -0.1630     CD =  0.01607   =>   CDf =  0.00799    CDp =  0.00808
 plradd ia,ip,cpol            6           0  3.50557221E-03

 Point added to stored polar  1
 Point written to save file  s1221_Re150k.base.pol                           
 Dump file unspecified or not available
 Calculating wake trajectory ...
 Calculating source influence matrix ...

 Solving BL system ...

 Side 1  free  transition at x/c =  0.5716   52
 Side 2  free  transition at x/c =  0.4006   45

   1   rms: 0.1016E+00   max: -.6649E+00   T at   45  2   RLX: 0.752
       a = -1.000      CL =  0.5295
      Cm = -0.1620     CD =  0.01661   =>   CDf =  0.00799    CDp =  0.00862

 Side 1  free  transition at x/c =  0.5508   50
 Side 2  free  transition at x/c =  0.4107   45

   2   rms: 0.1075E+00   max: -.7329E+00   T at   45  2   RLX: 0.682
       a = -1.000      CL =  0.5500
      Cm = -0.1645     CD =  0.01763   =>   CDf =  0.00814    CDp =  0.00948

 MRCHDU: Convergence failed at  46  side 2    Res =  0.1681E+02
 MRCHDU: Convergence failed at  47  side 2    Res =  0.5594E+02
 MRCHDU: Convergence failed at  48  side 2    Res =  0.4632E+01
 MRCHDU: Convergence failed at  49  side 2    Res =  0.4219E+01
 MRCHDU: Convergence failed at  50  side 2    Res =  0.7983E+01
 MRCHDU: Convergence failed at  51  side 2    Res =  0.1752E+02
 MRCHDU: Convergence failed at  52  side 2    Res =  0.7300E+02
 MRCHDU: Convergence failed at  53  side 2    Res =  0.8258E+02
 MRCHDU: Convergence failed at  54  side 2    Res =  0.7035E+02
 MRCHDU: Convergence failed at  55  side 2    Res =  0.3699E+02
 MRCHDU: Convergence failed at  56  side 2    Res =  0.2820E+02
 MRCHDU: Convergence failed at  57  side 2    Res =  0.2368E+02
 MRCHDU: Convergence failed at  58  side 2    Res =  0.2022E+02
 MRCHDU: Convergence failed at  59  side 2    Res =  0.1790E+02
 MRCHDU: Convergence failed at  60  side 2    Res =  0.1708E+02
 MRCHDU: Convergence failed at  61  side 2    Res =  0.1739E+02
 MRCHDU: Convergence failed at  62  side 2    Res =  0.1863E+02
 MRCHDU: Convergence failed at  63  side 2    Res =  0.2072E+02
 MRCHDU: Convergence failed at  64  side 2    Res =  0.2373E+02
 MRCHDU: Convergence failed at  65  side 2    Res =  0.2795E+02
 MRCHDU: Convergence failed at  66  side 2    Res =  0.3392E+02
 MRCHDU: Convergence failed at  67  side 2    Res =  0.4248E+02
 MRCHDU: Convergence failed at  68  side 2    Res =  0.5419E+02
 MRCHDU: Convergence failed at  69  side 2    Res =  0.7341E+02
 MRCHDU: Convergence failed at  70  side 2    Res =  0.9885E+02
 MRCHDU: Convergence failed at  71  side 2    Res =  0.1323E+03
 MRCHDU: Convergence failed at  72  side 2    Res =  0.1529E+03
 MRCHDU: Convergence failed at  73  side 2    Res =  0.1388E+03
 MRCHDU: Convergence failed at  74  side 2    Res =  0.1094E+03
 MRCHDU: Convergence failed at  75  side 2    Res =  0.9146E+02
 MRCHDU: Convergence failed at  76  side 2    Res =  0.9084E+02
 MRCHDU: Convergence failed at  77  side 2    Res =  0.1167E+03
 MRCHDU: Convergence failed at  78  side 2    Res =  0.2325E+03
 MRCHDU: Convergence failed at  79  side 2    Res =  0.2020E+03
 MRCHDU: Convergence failed at  80  side 2    Res =  0.1509E+04
 MRCHDU: Convergence failed at  81  side 2    Res =  0.1353E+02
 MRCHDU: Convergence failed at  82  side 2    Res =  0.3503E+01
 Side 1  free  transition at x/c =  0.5415   51
 Side 2  free  transition at x/c =  0.4252   45
 idif Ue xi dudx           1  0.18730205      3.44622135E-03   54.349979    
 Uenew xinew           2  6.96754083E-02  1.28197670E-03

   3   rms: 0.3779E+00   max: 0.1756E+01   T at   47  2   RLX: 0.854
       a = -1.000      CL =  0.4010
      Cm = -0.1161     CD =  0.01408   =>   CDf =  0.00658    CDp =  0.00750

 MRCHDU: Convergence failed at  47  side 2    Res =  0.6083E+01
 MRCHDU: Convergence failed at  48  side 2    Res =  0.4191E+01
 MRCHDU: Convergence failed at  49  side 2    Res =  0.5160E+02
 Side 1  free  transition at x/c =  0.5528   50
 Side 2  free  transition at x/c =  0.3945   44

   4   rms: 0.5799E+00   max: -.4519E+01   T at   44  2   RLX: 0.111
       a = -1.000      CL =  0.4497
      Cm = -0.1394     CD =  0.02118   =>   CDf =  0.00687    CDp =  0.01431

 Side 1  free  transition at x/c =  0.5505   50
 Side 2  free  transition at x/c =  0.4098   45

   5   rms: 0.1721E+00   max: -.8942E+00   D at   70  2   RLX: 0.559
       a = -1.000      CL =  0.5177
      Cm = -0.1568     CD =  0.01645   =>   CDf =  0.00795    CDp =  0.00849

 Side 1  free  transition at x/c =  0.5414   50
 Side 2  free  transition at x/c =  0.4214   46

   6   rms: 0.9759E-01   max: 0.6243E+00   D at   46  2
       a = -1.000      CL =  0.5529
      Cm = -0.1645     CD =  0.01617   =>   CDf =  0.00839    CDp =  0.00777

 Side 1  free  transition at x/c =  0.5390   51
 Side 2  free  transition at x/c =  0.4209   45

   7   rms: 0.1340E-01   max: 0.1095E+00   D at   46  2
       a = -1.000      CL =  0.5469
      Cm = -0.1628     CD =  0.01633   =>   CDf =  0.00842    CDp =  0.00791

 Side 1  free  transition at x/c =  0.5396   51
 Side 2  free  transition at x/c =  0.4185   45

   8   rms: 0.1093E-02   max: -.6833E-02   D at   46  2
       a = -1.000      CL =  0.5470
      Cm = -0.1629     CD =  0.01632   =>   CDf =  0.00839    CDp =  0.00793

 Side 1  free  transition at x/c =  0.5395   51
 Side 2  free  transition at x/c =  0.4186   45

   9   rms: 0.3017E-05   max: -.1644E-04   D at    4  1
       a = -1.000      CL =  0.5470
      Cm = -0.1629     CD =  0.01632   =>   CDf =  0.00839    CDp =  0.00793
 plradd ia,ip,cpol            7           0  0.19683543    

 Point added to stored polar  1
 Point written to save file  s1221_Re150k.base.pol                           
 Dump file unspecified or not available
 Calculating wake trajectory ...
 Calculating source influence matrix ...

 Solving BL system ...

 Side 1  free  transition at x/c =  0.5395   51
 Side 2  free  transition at x/c =  0.4186   45

   1   rms: 0.9115E-01   max: -.4301E+00   T at   45  2
       a = -0.500      CL =  0.6047
      Cm = -0.1628     CD =  0.01670   =>   CDf =  0.00840    CDp =  0.00830

 Side 1  free  transition at x/c =  0.5184   49
 Side 2  free  transition at x/c =  0.4309   46

   2   rms: 0.5434E-01   max: -.2888E+00   D at   50  1
       a = -0.500      CL =  0.6068
      Cm = -0.1634     CD =  0.01643   =>   CDf =  0.00875    CDp =  0.00767

 Side 1  free  transition at x/c =  0.5164   49
 Side 2  free  transition at x/c =  0.4332   46

   3   rms: 0.4030E-02   max: 0.2905E-01   D at   50  1
       a = -0.500      CL =  0.6064
      Cm = -0.1633     CD =  0.01652   =>   CDf =  0.00877    CDp =  0.00775

 Side 1  free  transition at x/c =  0.5155   49
 Side 2  free  transition at x/c =  0.4326   46

   4   rms: 0.8100E-04   max: -.5341E-03   D at   46  2
       a = -0.500      CL =  0.6064
      Cm = -0.1633     CD =  0.01652   =>   CDf =  0.00878    CDp =  0.00774
 plradd ia,ip,cpol            8           0  0.18295601    

 Point added to stored polar  1
 Point written to save file  s1221_Re150k.base.pol                           
 Dump file unspecified or not available
 Calculating wake trajectory ...
 Calculating source influence matrix ...

 Solving BL system ...

 Side 1  free  transition at x/c =  0.5155   49
 Side 2  free  transition at x/c =  0.4326   46

   1   rms: 0.8604E-01   max: -.3831E+00   T at   46  2
       a =  0.000      CL =  0.6637
      Cm = -0.1632     CD =  0.01657   =>   CDf =  0.00875    CDp =  0.00783

 Side 1  free  transition at x/c =  0.4925   49
 Side 2  free  transition at x/c =  0.4440   45

   2   rms: 0.5305E-01   max: -.3088E+00   D at   46  2
       a =  0.000      CL =  0.6667
      Cm = -0.1640     CD =  0.01682   =>   CDf =  0.00911    CDp =  0.00770

 Side 1  free  transition at x/c =  0.4954   49
 Side 2  free  transition at x/c =  0.4474   46

   3   rms: 0.1224E-01   max: 0.1297E+00   D at   47  2
       a =  0.000      CL =  0.6661
      Cm = -0.1638     CD =  0.01674   =>   CDf =  0.00910    CDp =  0.00764

 Side 1  free  transition at x/c =  0.4948   49
 Side 2  free  transition at x/c =  0.4464   46

   4   rms: 0.7808E-03   max: 0.8417E-02   D at   47  2
       a =  0.000      CL =  0.6660
      Cm = -0.1638     CD =  0.01674   =>   CDf =  0.00908    CDp =  0.00765

 Side 1  free  transition at x/c =  0.4948   49
 Side 2  free  transition at x/c =  0.4464   46

   5   rms: 0.1771E-05   max: 0.1343E-04   D at   47  2
       a =  0.000      CL =  0.6660
      Cm = -0.1638     CD =  0.01674   =>   CDf =  0.00908    CDp =  0.00765
 plradd ia,ip,cpol            9           0  0.18295601    

 Point added to stored polar  1
 Point written to save file  s1221_Re150k.base.pol                           
 Dump file unspecified or not available
 Calculating wake trajectory ...
 Calculating source influence matrix ...

 Solving BL system ...

 Side 1  free  transition at x/c =  0.4948   49
 Side 2  free  transition at x/c =  0.4464   46

   1   rms: 0.8763E-01   max: -.4062E+00   T at   46  2
       a =  0.500      CL =  0.7230
      Cm = -0.1638     CD =  0.01674   =>   CDf =  0.00904    CDp =  0.00770

 Side 1  free  transition at x/c =  0.4782   49
 Side 2  free  transition at x/c =  0.4585   45

   2   rms: 0.3870E-01   max: -.2356E+00   D at   47  2
       a =  0.500      CL =  0.7252
      Cm = -0.1642     CD =  0.01700   =>   CDf =  0.00930    CDp =  0.00770

 Side 1  free  transition at x/c =  0.4783   49
 Side 2  free  transition at x/c =  0.4608   45

   3   rms: 0.3777E-02   max: 0.4306E-01   D at   47  2
       a =  0.500      CL =  0.7248
      Cm = -0.1641     CD =  0.01699   =>   CDf =  0.00927    CDp =  0.00772

 Side 1  free  transition at x/c =  0.4782   49
 Side 2  free  transition at x/c =  0.4602   45

   4   rms: 0.2799E-04   max: 0.4419E-03   D at   48  2
       a =  0.500      CL =  0.7248
      Cm = -0.1641     CD =  0.01699   =>   CDf =  0.00927    CDp =  0.00773
 plradd ia,ip,cpol           10           0  0.18295601    

 Point added to stored polar  1
 Point written to save file  s1221_Re150k.base.pol                           
 Dump file unspecified or not available
 Calculating wake trajectory ...
 Calculating source influence matrix ...

 Solving BL system ...

 Side 1  free  transition at x/c =  0.4782   49
 Side 2  free  transition at x/c =  0.4602   45

   1   rms: 0.8997E-01   max: -.4332E+00   T at   45  2
       a =  1.000      CL =  0.7860
      Cm = -0.1651     CD =  0.01732   =>   CDf =  0.00921    CDp =  0.00811

 Side 1  free  transition at x/c =  0.4635   49
 Side 2  free  transition at x/c =  0.4817   46

   2   rms: 0.2951E-01   max: 0.3653E+00   D at   46  2
       a =  1.000      CL =  0.7844
      Cm = -0.1647     CD =  0.01737   =>   CDf =  0.00949    CDp =  0.00788

 Side 1  free  transition at x/c =  0.4647   49
 Side 2  free  transition at x/c =  0.4779   45

   3   rms: 0.6772E-02   max: 0.9183E-01   D at   46  2
       a =  1.000      CL =  0.7837
      Cm = -0.1645     CD =  0.01733   =>   CDf =  0.00944    CDp =  0.00789

 Side 1  free  transition at x/c =  0.4645   49
 Side 2  free  transition at x/c =  0.4765   45

   4   rms: 0.1793E-03   max: 0.1974E-02   D at   50  2
       a =  1.000      CL =  0.7837
      Cm = -0.1645     CD =  0.01733   =>   CDf =  0.00942    CDp =  0.00791

 Side 1  free  transition at x/c =  0.4645   49
 Side 2  free  transition at x/c =  0.4765   45

   5   rms: 0.1328E-05   max: -.1397E-04   D at    4  1
       a =  1.000      CL =  0.7837
      Cm = -0.1645     CD =  0.01733   =>   CDf =  0.00942    CDp =  0.00791
 plradd ia,ip,cpol           11           0  0.16928986    

 Point added to stored polar  1
 Point written to save file  s1221_Re150k.base.pol                           
 Dump file unspecified or not available
 Calculating wake trajectory ...
 Calculating source influence matrix ...

 Solving BL system ...

 Side 1  free  transition at x/c =  0.4645   49
 Side 2  free  transition at x/c =  0.4765   45

   1   rms: 0.8841E-01   max: -.3926E+00   T at   45  2
       a =  1.500      CL =  0.8432
      Cm = -0.1651     CD =  0.01759   =>   CDf =  0.00942    CDp =  0.00817

 Side 1  free  transition at x/c =  0.4493   48
 Side 2  free  transition at x/c =  0.5029   47

   2   rms: 0.3723E-01   max: 0.4181E+00   D at   47  2
       a =  1.500      CL =  0.8431
      Cm = -0.1650     CD =  0.01776   =>   CDf =  0.00949    CDp =  0.00827

 Side 1  free  transition at x/c =  0.4526   49
 Side 2  free  transition at x/c =  0.4981   47

   3   rms: 0.8999E-02   max: 0.1038E+00   D at   49  1
       a =  1.500      CL =  0.8423
      Cm = -0.1648     CD =  0.01767   =>   CDf =  0.00951    CDp =  0.00816

 Side 1  free  transition at x/c =  0.4517   49
 Side 2  free  transition at x/c =  0.4966   47

   4   rms: 0.8925E-03   max: 0.1016E-01   D at   49  1
       a =  1.500      CL =  0.8422
      Cm = -0.1648     CD =  0.01767   =>   CDf =  0.00952    CDp =  0.00815

 Side 1  free  transition at x/c =  0.4517   49
 Side 2  free  transition at x/c =  0.4966   47

   5   rms: 0.8166E-05   max: -.4306E-04   D at   83  1
       a =  1.500      CL =  0.8422
      Cm = -0.1648     CD =  0.01767   =>   CDf =  0.00952    CDp =  0.00815
 plradd ia,ip,cpol           12           0  0.16928986    

 Point added to stored polar  1
 Point written to save file  s1221_Re150k.base.pol                           
 Dump file unspecified or not available
 Calculating wake trajectory ...
 Calculating source influence matrix ...

 Solving BL system ...

 Side 1  free  transition at x/c =  0.4517   49
 Side 2  free  transition at x/c =  0.4966   47

   1   rms: 0.9425E-01   max: -.5618E+00   T at   47  2   RLX: 0.890
       a =  2.000      CL =  0.8934
      Cm = -0.1649     CD =  0.01810   =>   CDf =  0.00943    CDp =  0.00867

 Side 1  free  transition at x/c =  0.4445   49
 Side 2  free  transition at x/c =  0.5136   47

   2   rms: 0.7769E-01   max: -.4442E+00   T at   48  2
       a =  2.000      CL =  0.9001
      Cm = -0.1651     CD =  0.01779   =>   CDf =  0.00960    CDp =  0.00819

 Side 1  free  transition at x/c =  0.4399   49
 Side 2  free  transition at x/c =  0.5250   47

   3   rms: 0.2476E-01   max: -.2071E+00   D at   47  2
       a =  2.000      CL =  0.8997
      Cm = -0.1649     CD =  0.01800   =>   CDf =  0.00944    CDp =  0.00856

 Side 1  free  transition at x/c =  0.4404   49
 Side 2  free  transition at x/c =  0.5230   47

   4   rms: 0.3446E-03   max: 0.3224E-02   D at   48  2
       a =  2.000      CL =  0.8997
      Cm = -0.1649     CD =  0.01802   =>   CDf =  0.00939    CDp =  0.00863

 Side 1  free  transition at x/c =  0.4404   49
 Side 2  free  transition at x/c =  0.5229   47

   5   rms: 0.1017E-05   max: 0.6048E-05   D at   67  2
       a =  2.000      CL =  0.8997
      Cm = -0.1649     CD =  0.01802   =>   CDf =  0.00939    CDp =  0.00863
 plradd ia,ip,cpol           13           0  0.16928986    

 Point added to stored polar  1
 Point written to save file  s1221_Re150k.base.pol                           
 Dump file unspecified or not available
 Calculating wake trajectory ...
 Calculating source influence matrix ...

 Solving BL system ...

 Side 1  free  transition at x/c =  0.4404   49
 Side 2  free  transition at x/c =  0.5229   47

   1   rms: 0.8878E-01   max: -.4713E+00   T at   47  2
       a =  2.500      CL =  0.9584
      Cm = -0.1652     CD =  0.01846   =>   CDf =  0.00928    CDp =  0.00918

 Side 1  free  transition at x/c =  0.4308   49
 Side 2  free  transition at x/c =  0.5605   48

   2   rms: 0.2214E-01   max: 0.2055E+00   D at   49  2
       a =  2.500      CL =  0.9582
      Cm = -0.1652     CD =  0.01847   =>   CDf =  0.00933    CDp =  0.00914

 Side 1  free  transition at x/c =  0.4310   49
 Side 2  free  transition at x/c =  0.5610   48

   3   rms: 0.2465E-02   max: 0.2637E-01   D at   49  2
       a =  2.500      CL =  0.9581
      Cm = -0.1652     CD =  0.01851   =>   CDf =  0.00935    CDp =  0.00915

 Side 1  free  transition at x/c =  0.4309   49
 Side 2  free  transition at x/c =  0.5598   48

   4   rms: 0.3367E-04   max: -.3102E-03   D at   48  2
       a =  2.500      CL =  0.9581
      Cm = -0.1652     CD =  0.01851   =>   CDf =  0.00936    CDp =  0.00915
 plradd ia,ip,cpol           14           0  0.15581641    

 Point added to stored polar  1
 Point written to save file  s1221_Re150k.base.pol                           
 Dump file unspecified or not available
 Calculating wake trajectory ...
 Calculating source influence matrix ...

 Solving BL system ...

 Side 1  free  transition at x/c =  0.4309   49
 Side 2  free  transition at x/c =  0.5598   48

   1   rms: 0.9185E-01   max: -.5262E+00   T at   48  2   RLX: 0.950
       a =  3.000      CL =  1.0132
      Cm = -0.1654     CD =  0.01887   =>   CDf =  0.00937    CDp =  0.00950

 MRCHDU: Convergence failed at  52  side 2    Res =  0.1246E+03
 MRCHDU: Convergence failed at  53  side 2    Res =  0.3320E+01
 MRCHDU: Convergence failed at  54  side 2    Res =  0.2145E+01
 MRCHDU: Convergence failed at  55  side 2    Res =  0.2904E+01
 MRCHDU: Convergence failed at  56  side 2    Res =  0.3826E+01
 MRCHDU: Convergence failed at  57  side 2    Res =  0.4850E+01
 MRCHDU: Convergence failed at  58  side 2    Res =  0.6112E+01
 MRCHDU: Convergence failed at  59  side 2    Res =  0.7550E+01
 MRCHDU: Convergence failed at  60  side 2    Res =  0.8930E+01
 MRCHDU: Convergence failed at  61  side 2    Res =  0.9982E+01
 MRCHDU: Convergence failed at  62  side 2    Res =  0.1092E+02
 MRCHDU: Convergence failed at  63  side 2    Res =  0.1676E+02
 MRCHDU: Convergence failed at  64  side 2    Res =  0.1794E+02
 MRCHDU: Convergence failed at  65  side 2    Res =  0.1585E+02
 MRCHDU: Convergence failed at  66  side 2    Res =  0.1587E+02
 MRCHDU: Convergence failed at  67  side 2    Res =  0.1575E+02
 MRCHDU: Convergence failed at  68  side 2    Res =  0.1561E+02
 MRCHDU: Convergence failed at  69  side 2    Res =  0.1510E+02
 MRCHDU: Convergence failed at  70  side 2    Res =  0.1400E+02
 MRCHDU: Convergence failed at  71  side 2    Res =  0.1222E+02
 MRCHDU: Convergence failed at  72  side 2    Res =  0.1015E+02
 MRCHDU: Convergence failed at  73  side 2    Res =  0.6484E+01
 MRCHDU: Convergence failed at  74  side 2    Res =  0.3553E+01
 Side 1  free  transition at x/c =  0.4203   49
 Side 2  free  transition at x/c =  0.6208   52

   2   rms: 0.1713E+00   max: -.7874E+00   D at   72  2   RLX: 0.635
       a =  3.000      CL =  1.0300
      Cm = -0.1652     CD =  0.01890   =>   CDf =  0.00799    CDp =  0.01091

 Side 1  free  transition at x/c =  0.4197   50
 Side 2  free  transition at x/c =  0.6415   52
 idif Ue xi dudx           1  0.21428537      1.97267532E-03   108.62679    
 Uenew xinew           2  1.77405705E-03  1.63316727E-05

   3   rms: 0.4130E+00   max: 0.7437E+01   D at    2  1   RLX: 0.182
       a =  3.000      CL =  1.0297
      Cm = -0.1663     CD =  0.01919   =>   CDf =  0.00933    CDp =  0.00986

 Side 1  free  transition at x/c =  0.4199   49
 Side 2  free  transition at x/c =  0.6367   53

   4   rms: 0.8878E-01   max: 0.1464E+01   T at    2  2   RLX: 0.798
       a =  3.000      CL =  1.0184
      Cm = -0.1655     CD =  0.01889   =>   CDf =  0.00915    CDp =  0.00974

 Side 1  free  transition at x/c =  0.4208   49
 Side 2  free  transition at x/c =  0.6219   52

   5   rms: 0.1226E-01   max: 0.9923E-01   D at    4  2
       a =  3.000      CL =  1.0152
      Cm = -0.1652     CD =  0.01884   =>   CDf =  0.00911    CDp =  0.00973

 Side 1  free  transition at x/c =  0.4211   49
 Side 2  free  transition at x/c =  0.6158   52

   6   rms: 0.2246E-02   max: -.2634E-01   C at   52  2
       a =  3.000      CL =  1.0153
      Cm = -0.1652     CD =  0.01885   =>   CDf =  0.00911    CDp =  0.00974

 Side 1  free  transition at x/c =  0.4211   49
 Side 2  free  transition at x/c =  0.6169   52

   7   rms: 0.3117E-04   max: -.4233E-03   D at   52  2
       a =  3.000      CL =  1.0153
      Cm = -0.1652     CD =  0.01885   =>   CDf =  0.00910    CDp =  0.00975
 plradd ia,ip,cpol           15           0  0.15581641    

 Point added to stored polar  1
 Point written to save file  s1221_Re150k.base.pol                           
 Dump file unspecified or not available
 Calculating wake trajectory ...
 Calculating source influence matrix ...

 Solving BL system ...

 Side 1  free  transition at x/c =  0.4211   49
 Side 2  free  transition at x/c =  0.6169   52

   1   rms: 0.1121E+00   max: -.9248E+00   C at   52  2   RLX: 0.541
       a =  3.500      CL =  1.0454
      Cm = -0.1650     CD =  0.01904   =>   CDf =  0.00894    CDp =  0.01010

 Side 1  free  transition at x/c =  0.4171   50
 Side 2  free  transition at x/c =  0.6514   53

   2   rms: 0.7243E-01   max: -.7356E+00   C at   53  2   RLX: 0.680
       a =  3.500      CL =  1.0640
      Cm = -0.1653     CD =  0.01941   =>   CDf =  0.00912    CDp =  0.01030

 Side 1  free  transition at x/c =  0.4154   49
 Side 2  free  transition at x/c =  0.6846   55

   3   rms: 0.5011E-01   max: -.6614E+00   C at   55  2   RLX: 0.756
       a =  3.500      CL =  1.0681
      Cm = -0.1647     CD =  0.01928   =>   CDf =  0.00902    CDp =  0.01026

 Side 1  free  transition at x/c =  0.4141   49
 Side 2  free  transition at x/c =  0.7062   56

   4   rms: 0.2698E-01   max: -.3472E+00   C at   56  2
       a =  3.500      CL =  1.0692
      Cm = -0.1644     CD =  0.01932   =>   CDf =  0.00885    CDp =  0.01046

 Side 1  free  transition at x/c =  0.4136   49
 Side 2  free  transition at x/c =  0.7384   58

   5   rms: 0.4121E-02   max: -.4409E-01   D at   57  2
       a =  3.500      CL =  1.0678
      Cm = -0.1640     CD =  0.01933   =>   CDf =  0.00871    CDp =  0.01062

 Side 1  free  transition at x/c =  0.4137   49
 Side 2  free  transition at x/c =  0.7340   58

   6   rms: 0.7192E-03   max: 0.9858E-02   C at   58  2
       a =  3.500      CL =  1.0677
      Cm = -0.1640     CD =  0.01933   =>   CDf =  0.00871    CDp =  0.01061

 Side 1  free  transition at x/c =  0.4137   49
 Side 2  free  transition at x/c =  0.7335   58

   7   rms: 0.2908E-05   max: -.3572E-04   C at   58  2
       a =  3.500      CL =  1.0677
      Cm = -0.1640     CD =  0.01933   =>   CDf =  0.00872    CDp =  0.01061
 plradd ia,ip,cpol           16           0  0.15581641    

 Point added to stored polar  1
 Point written to save file  s1221_Re150k.base.pol                           
 Dump file unspecified or not available
 Calculating wake trajectory ...
 Calculating source influence matrix ...

 Solving BL system ...

 Side 1  free  transition at x/c =  0.4137   49
 Side 2  free  transition at x/c =  0.7335   58

   1   rms: 0.1539E+00   max: -.1959E+01   C at   58  2   RLX: 0.255
       a =  4.000      CL =  1.0775
      Cm = -0.1628     CD =  0.01933   =>   CDf =  0.00873    CDp =  0.01061

 Side 1  free  transition at x/c =  0.4114   49
 Side 2  free  transition at x/c =  0.7688   60

   2   rms: 0.1016E+00   max: -.1095E+01   C at   60  2   RLX: 0.457
       a =  4.000      CL =  1.0930
      Cm = -0.1621     CD =  0.01948   =>   CDf =  0.00860    CDp =  0.01087

 Side 1  free  transition at x/c =  0.4084   49
 Side 2  free  transition at x/c =  0.8353   64

   3   rms: 0.1216E+00   max: -.1866E+01   C at   64  2   RLX: 0.268
       a =  4.000      CL =  1.0921
      Cm = -0.1605     CD =  0.01941   =>   CDf =  0.00843    CDp =  0.01097

 Side 1  free  transition at x/c =  0.4078   49
 Side 2  free  transition at x/c =  0.8512   65

   4   rms: 0.1080E+00   max: -.1668E+01   C at   65  2   RLX: 0.300
       a =  4.000      CL =  1.0920
      Cm = -0.1595     CD =  0.01937   =>   CDf =  0.00840    CDp =  0.01097

 Side 1  free  transition at x/c =  0.4074   49
 Side 2  free  transition at x/c =  0.8711   66

   5   rms: 0.9950E-01   max: -.1535E+01   C at   66  2   RLX: 0.326
       a =  4.000      CL =  1.0918
      Cm = -0.1586     CD =  0.01932   =>   CDf =  0.00836    CDp =  0.01096

 Side 1  free  transition at x/c =  0.4070   49
 Side 2  free  transition at x/c =  0.8950   68

   6   rms: 0.1650E+00   max: -.2490E+01   C at   68  2   RLX: 0.201
       a =  4.000      CL =  1.0892
      Cm = -0.1578     CD =  0.01926   =>   CDf =  0.00833    CDp =  0.01093

 Side 1  free  transition at x/c =  0.4070   49
 Side 2  free  transition at x/c =  0.9063   68

   7   rms: 0.5891E-01   max: -.8789E+00   C at   68  2   RLX: 0.569
       a =  4.000      CL =  1.0925
      Cm = -0.1575     CD =  0.01924   =>   CDf =  0.00832    CDp =  0.01092

 Side 1  free  transition at x/c =  0.4065   49
 Side 2 forced transition at x/c =  1.0000   76

   8   rms: 0.1439E-01   max: -.1210E+00   D at   67  2
       a =  4.000      CL =  1.1000
      Cm = -0.1582     CD =  0.01932   =>   CDf =  0.00828    CDp =  0.01103

 Side 1  free  transition at x/c =  0.4058   49
 Side 2 forced transition at x/c =  1.0000   76

   9   rms: 0.1099E-02   max: 0.7328E-02   D at   66  2
       a =  4.000      CL =  1.0995
      Cm = -0.1581     CD =  0.01930   =>   CDf =  0.00834    CDp =  0.01096

 Side 1  free  transition at x/c =  0.4058   49
 Side 2 forced transition at x/c =  1.0000   76

  10   rms: 0.8745E-05   max: 0.5511E-04   D at   64  2
       a =  4.000      CL =  1.0995
      Cm = -0.1581     CD =  0.01930   =>   CDf =  0.00833    CDp =  0.01097
 plradd ia,ip,cpol           17           0  0.14247867    

 Point added to stored polar  1
 Point written to save file  s1221_Re150k.base.pol                           
 Dump file unspecified or not available
 Calculating wake trajectory ...
 Calculating source influence matrix ...

 Solving BL system ...

 Side 1  free  transition at x/c =  0.4058   49
 Side 2 forced transition at x/c =  1.0000   76

   1   rms: 0.1027E+00   max: -.2932E+00   n at   70  2
       a =  4.500      CL =  1.1623
      Cm = -0.1597     CD =  0.02017   =>   CDf =  0.00816    CDp =  0.01201

 Side 1  free  transition at x/c =  0.3990   49
 Side 2 forced transition at x/c =  1.0000   75

   2   rms: 0.1811E-01   max: 0.6567E-01   D at   45  2
       a =  4.500      CL =  1.1606
      Cm = -0.1593     CD =  0.02036   =>   CDf =  0.00862    CDp =  0.01175

 Side 1  free  transition at x/c =  0.3988   49
 Side 2 forced transition at x/c =  1.0000   75

   3   rms: 0.1989E-02   max: 0.9503E-02   D at   45  2
       a =  4.500      CL =  1.1604
      Cm = -0.1592     CD =  0.02037   =>   CDf =  0.00857    CDp =  0.01180

 Side 1  free  transition at x/c =  0.3988   49
 Side 2 forced transition at x/c =  1.0000   75

   4   rms: 0.3480E-04   max: 0.1826E-03   D at   45  2
       a =  4.500      CL =  1.1604
      Cm = -0.1592     CD =  0.02037   =>   CDf =  0.00856    CDp =  0.01181
 plradd ia,ip,cpol           18           0  0.12932682    

 Point added to stored polar  1
 Point written to save file  s1221_Re150k.base.pol                           
 Dump file unspecified or not available
 Calculating wake trajectory ...
 Calculating source influence matrix ...

 Solving BL system ...

 Side 1  free  transition at x/c =  0.3988   49
 Side 2 forced transition at x/c =  1.0000   75

   1   rms: 0.8651E-01   max: -.1703E+00   C at   75  2
       a =  5.000      CL =  1.2160
      Cm = -0.1593     CD =  0.02126   =>   CDf =  0.00836    CDp =  0.01290

 Side 1  free  transition at x/c =  0.3897   50
 Side 2 forced transition at x/c =  1.0000   74

   2   rms: 0.2051E-01   max: -.1426E+00   D at   51  1
       a =  5.000      CL =  1.2162
      Cm = -0.1593     CD =  0.02130   =>   CDf =  0.00836    CDp =  0.01294

 Side 1  free  transition at x/c =  0.3907   50
 Side 2 forced transition at x/c =  1.0000   74

   3   rms: 0.1634E-02   max: -.1807E-01   D at    4  1
       a =  5.000      CL =  1.2162
      Cm = -0.1593     CD =  0.02131   =>   CDf =  0.00840    CDp =  0.01290

 Side 1  free  transition at x/c =  0.3906   50
 Side 2 forced transition at x/c =  1.0000   74

   4   rms: 0.7716E-05   max: -.8321E-04   D at    7  1
       a =  5.000      CL =  1.2162
      Cm = -0.1593     CD =  0.02131   =>   CDf =  0.00840    CDp =  0.01291
 plradd ia,ip,cpol           19           0  0.11646307    

 Point added to stored polar  1
 Point written to save file  s1221_Re150k.base.pol                           
 Dump file unspecified or not available
 Calculating wake trajectory ...
 Calculating source influence matrix ...

 Solving BL system ...

 Side 1  free  transition at x/c =  0.3906   50
 Side 2 forced transition at x/c =  1.0000   74

   1   rms: 0.8185E-01   max: -.1212E+00   C at   74  2
       a =  5.500      CL =  1.2727
      Cm = -0.1594     CD =  0.02222   =>   CDf =  0.00841    CDp =  0.01381

 Side 1  free  transition at x/c =  0.3831   50
 Side 2 forced transition at x/c =  1.0000   74

   2   rms: 0.1829E-01   max: -.1148E+00   D at   51  1
       a =  5.500      CL =  1.2736
      Cm = -0.1596     CD =  0.02231   =>   CDf =  0.00850    CDp =  0.01382

 Side 1  free  transition at x/c =  0.3836   50
 Side 2 forced transition at x/c =  1.0000   74

   3   rms: 0.2564E-03   max: 0.2779E-02   D at   51  1
       a =  5.500      CL =  1.2737
      Cm = -0.1596     CD =  0.02233   =>   CDf =  0.00854    CDp =  0.01379

 Side 1  free  transition at x/c =  0.3836   50
 Side 2 forced transition at x/c =  1.0000   74

   4   rms: 0.2341E-05   max: -.1434E-04   C at   74  2
       a =  5.500      CL =  1.2737
      Cm = -0.1596     CD =  0.02233   =>   CDf =  0.00854    CDp =  0.01379
 plradd ia,ip,cpol           20           0  9.19279233E-02

 Point added to stored polar  1
 Point written to save file  s1221_Re150k.base.pol                           
 Dump file unspecified or not available
 Calculating wake trajectory ...
 Calculating source influence matrix ...

 Solving BL system ...

 Side 1  free  transition at x/c =  0.3836   50
 Side 2 forced transition at x/c =  1.0000   74

   1   rms: 0.8458E-01   max: -.8060E-01   n at   71  2
       a =  6.000      CL =  1.3320
      Cm = -0.1602     CD =  0.02386   =>   CDf =  0.00828    CDp =  0.01558

 Side 1  free  transition at x/c =  0.3780   50
 Side 2 forced transition at x/c =  1.0000   73

   2   rms: 0.2086E-01   max: 0.2449E+00   D at   51  1
       a =  6.000      CL =  1.3262
      Cm = -0.1592     CD =  0.02364   =>   CDf =  0.00838    CDp =  0.01526

 Side 1  free  transition at x/c =  0.3757   50
 Side 2 forced transition at x/c =  1.0000   73

   3   rms: 0.5298E-02   max: 0.4179E-01   D at   51  1
       a =  6.000      CL =  1.3268
      Cm = -0.1592     CD =  0.02350   =>   CDf =  0.00832    CDp =  0.01518

 Side 1  free  transition at x/c =  0.3756   50
 Side 2 forced transition at x/c =  1.0000   73

   4   rms: 0.1033E-03   max: 0.8670E-03   D at   52  1
       a =  6.000      CL =  1.3267
      Cm = -0.1592     CD =  0.02349   =>   CDf =  0.00829    CDp =  0.01520

 Side 1  free  transition at x/c =  0.3756   50
 Side 2 forced transition at x/c =  1.0000   73

   5   rms: 0.1518E-05   max: -.1775E-04   C at   73  2
       a =  6.000      CL =  1.3267
      Cm = -0.1592     CD =  0.02349   =>   CDf =  0.00829    CDp =  0.01520
 plradd ia,ip,cpol           21           0  8.05095881E-02

 Point added to stored polar  1
 Point written to save file  s1221_Re150k.base.pol                           
 Dump file unspecified or not available
 Calculating wake trajectory ...
 Calculating source influence matrix ...

 Solving BL system ...

 Side 1  free  transition at x/c =  0.3756   50
 Side 2 forced transition at x/c =  1.0000   73

   1   rms: 0.7859E-01   max: -.1066E+00   C at   73  2
       a =  6.500      CL =  1.3803
      Cm = -0.1589     CD =  0.02454   =>   CDf =  0.00800    CDp =  0.01654

 Side 1  free  transition at x/c =  0.3672   51
 Side 2 forced transition at x/c =  1.0000   72

   2   rms: 0.2716E-01   max: -.1580E+00   D at   52  1
       a =  6.500      CL =  1.3818
      Cm = -0.1591     CD =  0.02445   =>   CDf =  0.00823    CDp =  0.01621

 Side 1  free  transition at x/c =  0.3682   51
 Side 2 forced transition at x/c =  1.0000   72

   3   rms: 0.7352E-03   max: -.7901E-02   D at    4  1
       a =  6.500      CL =  1.3819
      Cm = -0.1591     CD =  0.02447   =>   CDf =  0.00829    CDp =  0.01618

 Side 1  free  transition at x/c =  0.3682   51
 Side 2 forced transition at x/c =  1.0000   72

   4   rms: 0.1865E-05   max: 0.1731E-04   D at   52  1
[...]
 plradd ia,ip,cpol           41           0  1.70638203E-04

 Point added to stored polar  1
 Point written to save file  s1221_Re150k.base.pol                           
 Dump file unspecified or not available
 Calculating wake trajectory ...
 Calculating source influence matrix ...

 Solving BL system ...

 Side 1  free  transition at x/c =  0.2059   47
 Side 2 forced transition at x/c =  1.0000   65

   1   rms: 0.3532E-01   max: -.1312E+00   D at   48  1
       a = 13.000      CL =  1.9282
      Cm = -0.1310     CD =  0.03511   =>   CDf =  0.00581    CDp =  0.02929

 Side 1  free  transition at x/c =  0.1929   46
 Side 2 forced transition at x/c =  1.0000   65

   2   rms: 0.8840E-02   max: -.8636E-01   D at   46  1
       a = 13.000      CL =  1.9234
      Cm = -0.1303     CD =  0.03508   =>   CDf =  0.00587    CDp =  0.02921

 Side 1  free  transition at x/c =  0.1954   46
 Side 2 forced transition at x/c =  1.0000   65

   3   rms: 0.1081E-02   max: -.4222E-02   D at   97  1
       a = 13.000      CL =  1.9241
      Cm = -0.1304     CD =  0.03512   =>   CDf =  0.00577    CDp =  0.02935

 Side 1  free  transition at x/c =  0.1948   46
 Side 2 forced transition at x/c =  1.0000   65

   4   rms: 0.3302E-04   max: -.2731E-03   C at   46  1
       a = 13.000      CL =  1.9241
      Cm = -0.1304     CD =  0.03512   =>   CDf =  0.00577    CDp =  0.02935
 plradd ia,ip,cpol           42           0  1.70638203E-04

 Point added to stored polar  1
 Point written to save file  s1221_Re150k.base.pol                           
 Dump file unspecified or not available
 Calculating wake trajectory ...
 Calculating source influence matrix ...

 Solving BL system ...

 Side 1  free  transition at x/c =  0.1948   46
 Side 2 forced transition at x/c =  1.0000   65

   1   rms: 0.3587E-01   max: 0.1040E+00   D at   90  1
       a = 13.250      CL =  1.9237
      Cm = -0.1266     CD =  0.03662   =>   CDf =  0.00577    CDp =  0.03085

 Side 1  free  transition at x/c =  0.1806   45
 Side 2 forced transition at x/c =  1.0000   65

   2   rms: 0.1119E-01   max: -.9221E-01   D at   46  1
       a = 13.250      CL =  1.9191
      Cm = -0.1261     CD =  0.03658   =>   CDf =  0.00585    CDp =  0.03073

 Side 1  free  transition at x/c =  0.1845   46
 Side 2 forced transition at x/c =  1.0000   65

   3   rms: 0.2229E-02   max: -.3676E-01   D at   45  1
       a = 13.250      CL =  1.9201
      Cm = -0.1263     CD =  0.03660   =>   CDf =  0.00577    CDp =  0.03082

 Side 1  free  transition at x/c =  0.1839   46
 Side 2 forced transition at x/c =  1.0000   65

   4   rms: 0.1989E-03   max: -.1514E-02   D at   48  1
       a = 13.250      CL =  1.9202
      Cm = -0.1263     CD =  0.03660   =>   CDf =  0.00574    CDp =  0.03086

 Side 1  free  transition at x/c =  0.1839   46
 Side 2 forced transition at x/c =  1.0000   65

   5   rms: 0.1097E-05   max: -.1542E-04   C at   65  2
       a = 13.250      CL =  1.9202
      Cm = -0.1263     CD =  0.03660   =>   CDf =  0.00575    CDp =  0.03085
 plradd ia,ip,cpol           43           0  1.70638203E-04

 Point added to stored polar  1
 Point written to save file  s1221_Re150k.base.pol                           
 Dump file unspecified or not available
 Calculating wake trajectory ...
 Calculating source influence matrix ...

 Solving BL system ...

 Side 1  free  transition at x/c =  0.1839   46
 Side 2 forced transition at x/c =  1.0000   65

   1   rms: 0.3869E-01   max: -.2030E+00   D at   47  1   RLX: 0.992
       a = 13.500      CL =  1.9138
      Cm = -0.1222     CD =  0.03844   =>   CDf =  0.00575    CDp =  0.03269

 Side 1  free  transition at x/c =  0.1756   45
 Side 2 forced transition at x/c =  1.0000   65

   2   rms: 0.8706E-02   max: -.1117E+00   D at   45  1
       a = 13.500      CL =  1.9144
      Cm = -0.1226     CD =  0.03853   =>   CDf =  0.00559    CDp =  0.03294

 Side 1  free  transition at x/c =  0.1719   45
 Side 2 forced transition at x/c =  1.0000   65

   3   rms: 0.1988E-02   max: -.2125E-01   C at   45  1
       a = 13.500      CL =  1.9142
      Cm = -0.1225     CD =  0.03855   =>   CDf =  0.00567    CDp =  0.03288

 Side 1  free  transition at x/c =  0.1724   45
 Side 2 forced transition at x/c =  1.0000   65

   4   rms: 0.7388E-04   max: -.5715E-03   D at   46  1
       a = 13.500      CL =  1.9142
      Cm = -0.1225     CD =  0.03856   =>   CDf =  0.00564    CDp =  0.03292
 plradd ia,ip,cpol           44           0  1.70638203E-04

 Point added to stored polar  1
 Point written to save file  s1221_Re150k.base.pol                           
 Dump file unspecified or not available
 Calculating wake trajectory ...
 Calculating source influence matrix ...

 Solving BL system ...

 Side 1  free  transition at x/c =  0.1724   45
 Side 2 forced transition at x/c =  1.0000   65

   1   rms: 0.4027E-01   max: -.1796E+00   D at   46  1   RLX: 0.924
       a = 13.750      CL =  1.9057
      Cm = -0.1191     CD =  0.04074   =>   CDf =  0.00565    CDp =  0.03510

 Side 1  free  transition at x/c =  0.1648   44
 Side 2 forced transition at x/c =  1.0000   65

   2   rms: 0.7130E-02   max: -.8327E-01   D at   44  1
       a = 13.750      CL =  1.9054
      Cm = -0.1192     CD =  0.04104   =>   CDf =  0.00559    CDp =  0.03545

 Side 1  free  transition at x/c =  0.1614   44
 Side 2 forced transition at x/c =  1.0000   65

   3   rms: 0.1679E-02   max: -.1823E-01   C at   44  1
       a = 13.750      CL =  1.9049
      Cm = -0.1191     CD =  0.04103   =>   CDf =  0.00558    CDp =  0.03545

 Side 1  free  transition at x/c =  0.1620   44
 Side 2 forced transition at x/c =  1.0000   65

   4   rms: 0.5474E-04   max: -.4977E-03   D at   44  1
       a = 13.750      CL =  1.9049
      Cm = -0.1191     CD =  0.04103   =>   CDf =  0.00556    CDp =  0.03548
 plradd ia,ip,cpol           45           0  2.05161501E-04

 Point added to stored polar  1
 Point written to save file  s1221_Re150k.base.pol                           
 Dump file unspecified or not available
 Calculating wake trajectory ...
 Calculating source influence matrix ...

 Solving BL system ...

 Side 1  free  transition at x/c =  0.1620   44
 Side 2 forced transition at x/c =  1.0000   65

   1   rms: 0.4166E-01   max: 0.1464E+00   D at   86  1   RLX: 0.863
       a = 14.000      CL =  1.8961
      Cm = -0.1165     CD =  0.04356   =>   CDf =  0.00556    CDp =  0.03800

 Side 1  free  transition at x/c =  0.1543   43
 Side 2 forced transition at x/c =  1.0000   65

   2   rms: 0.8376E-02   max: -.5507E-01   C at   43  1
       a = 14.000      CL =  1.8920
      Cm = -0.1163     CD =  0.04417   =>   CDf =  0.00562    CDp =  0.03855

 Side 1  free  transition at x/c =  0.1535   43
 Side 2 forced transition at x/c =  1.0000   65

   3   rms: 0.3572E-03   max: 0.4651E-02   D at   88  1
       a = 14.000      CL =  1.8918
      Cm = -0.1162     CD =  0.04415   =>   CDf =  0.00553    CDp =  0.03862

 Side 1  free  transition at x/c =  0.1535   43
 Side 2 forced transition at x/c =  1.0000   65

   4   rms: 0.5616E-05   max: -.9460E-04   C at   65  2
       a = 14.000      CL =  1.8918
      Cm = -0.1162     CD =  0.04415   =>   CDf =  0.00553    CDp =  0.03862
 plradd ia,ip,cpol           46           0  2.05161501E-04

 Point added to stored polar  1
 Point written to save file  s1221_Re150k.base.pol                           
 Dump file unspecified or not available
 Calculating wake trajectory ...
 Calculating source influence matrix ...

 Solving BL system ...

 Side 1  free  transition at x/c =  0.1535   43
 Side 2 forced transition at x/c =  1.0000   65

   1   rms: 0.4259E-01   max: 0.1511E+00   D at   83  1   RLX: 0.808
       a = 14.250      CL =  1.8846
      Cm = -0.1147     CD =  0.04696   =>   CDf =  0.00554    CDp =  0.04142

 Side 1  free  transition at x/c =  0.1445   43
 Side 2 forced transition at x/c =  1.0000   65

   2   rms: 0.1371E-01   max: -.7263E-01   D at   43  1
       a = 14.250      CL =  1.8765
      Cm = -0.1143     CD =  0.04800   =>   CDf =  0.00559    CDp =  0.04241

 Side 1  free  transition at x/c =  0.1457   43
 Side 2 forced transition at x/c =  1.0000   65

   3   rms: 0.6475E-03   max: 0.6352E-02   D at   85  1
       a = 14.250      CL =  1.8765
      Cm = -0.1143     CD =  0.04795   =>   CDf =  0.00546    CDp =  0.04249

 Side 1  free  transition at x/c =  0.1456   43
 Side 2 forced transition at x/c =  1.0000   65

   4   rms: 0.1031E-04   max: 0.5731E-04   D at   80  2
       a = 14.250      CL =  1.8765
      Cm = -0.1143     CD =  0.04794   =>   CDf =  0.00546    CDp =  0.04248
 plradd ia,ip,cpol           47           0  2.05161501E-04

 Point added to stored polar  1
 Point written to save file  s1221_Re150k.base.pol                           
 Dump file unspecified or not available
 Calculating wake trajectory ...
 Calculating source influence matrix ...

 Solving BL system ...

 Side 1  free  transition at x/c =  0.1456   43
 Side 2 forced transition at x/c =  1.0000   65

   1   rms: 0.4811E-01   max: 0.1781E+00   D at   81  1   RLX: 0.748
       a = 14.500      CL =  1.8647
      Cm = -0.1135     CD =  0.05137   =>   CDf =  0.00547    CDp =  0.04590

 Side 1  free  transition at x/c =  0.1411   42
 Side 2 forced transition at x/c =  1.0000   65

   2   rms: 0.1499E-01   max: 0.6596E-01   D at   83  1
       a = 14.500      CL =  1.8611
      Cm = -0.1136     CD =  0.05253   =>   CDf =  0.00547    CDp =  0.04706

 Side 1  free  transition at x/c =  0.1379   42
 Side 2 forced transition at x/c =  1.0000   65

   3   rms: 0.2104E-02   max: -.1506E-01   C at   42  1
       a = 14.500      CL =  1.8599
      Cm = -0.1136     CD =  0.05248   =>   CDf =  0.00538    CDp =  0.04710

 Side 1  free  transition at x/c =  0.1385   42
 Side 2 forced transition at x/c =  1.0000   65

   4   rms: 0.9907E-04   max: -.6194E-03   D at   42  1
       a = 14.500      CL =  1.8599
      Cm = -0.1135     CD =  0.05247   =>   CDf =  0.00536    CDp =  0.04711
 plradd ia,ip,cpol           48           0  2.05161501E-04

 Point added to stored polar  1
 Point written to save file  s1221_Re150k.base.pol                           
 Dump file unspecified or not available
 Calculating wake trajectory ...
 Calculating source influence matrix ...

 Solving BL system ...

 Side 1  free  transition at x/c =  0.1385   42
 Side 2 forced transition at x/c =  1.0000   65

   1   rms: 0.4804E-01   max: 0.1780E+00   D at   78  1   RLX: 0.704
       a = 14.750      CL =  1.8509
      Cm = -0.1137     CD =  0.05613   =>   CDf =  0.00537    CDp =  0.05076

 Side 1  free  transition at x/c =  0.1326   42
 Side 2 forced transition at x/c =  1.0000   65

   2   rms: 0.1766E-01   max: 0.8321E-01   D at   79  1
       a = 14.750      CL =  1.8428
      Cm = -0.1139     CD =  0.05787   =>   CDf =  0.00538    CDp =  0.05249

 Side 1  free  transition at x/c =  0.1321   42
 Side 2 forced transition at x/c =  1.0000   65

   3   rms: 0.1848E-02   max: 0.1327E-01   D at   79  2
       a = 14.750      CL =  1.8418
      Cm = -0.1138     CD =  0.05775   =>   CDf =  0.00532    CDp =  0.05243

 Side 1  free  transition at x/c =  0.1323   42
 Side 2 forced transition at x/c =  1.0000   65

   4   rms: 0.1028E-03   max: 0.6641E-03   D at   79  2
       a = 14.750      CL =  1.8417
      Cm = -0.1138     CD =  0.05774   =>   CDf =  0.00531    CDp =  0.05243

 Side 1  free  transition at x/c =  0.1323   42
 Side 2 forced transition at x/c =  1.0000   65

   5   rms: 0.3894E-05   max: -.4457E-04   C at   65  2
       a = 14.750      CL =  1.8417
      Cm = -0.1138     CD =  0.05774   =>   CDf =  0.00531    CDp =  0.05243
 plradd ia,ip,cpol           49           0  2.05161501E-04

 Point added to stored polar  1
 Point written to save file  s1221_Re150k.base.pol                           
 Dump file unspecified or not available
 Calculating wake trajectory ...
 Calculating source influence matrix ...

 Solving BL system ...

 Side 1  free  transition at x/c =  0.1323   42
 Side 2 forced transition at x/c =  1.0000   65

   1   rms: 0.4898E-01   max: 0.1805E+00   D at   74  1   RLX: 0.659
       a = 15.000      CL =  1.8317
      Cm = -0.1144     CD =  0.06166   =>   CDf =  0.00463    CDp =  0.05703

 Side 1  free  transition at x/c =  0.1288   42
 Side 2 forced transition at x/c =  1.0000   64

   2   rms: 0.1990E-01   max: 0.7992E-01   D at   76  1
       a = 15.000      CL =  1.8258
      Cm = -0.1149     CD =  0.06362   =>   CDf =  0.00533    CDp =  0.05829

 Side 1  free  transition at x/c =  0.1260   42
 Side 2 forced transition at x/c =  1.0000   64

   3   rms: 0.2563E-02   max: 0.1529E-01   D at   79  2
       a = 15.000      CL =  1.8241
      Cm = -0.1148     CD =  0.06346   =>   CDf =  0.00522    CDp =  0.05824

 Side 1  free  transition at x/c =  0.1265   42
 Side 2 forced transition at x/c =  1.0000   64

   4   rms: 0.8946E-04   max: 0.6404E-03   D at   79  2
       a = 15.000      CL =  1.8242
      Cm = -0.1147     CD =  0.06344   =>   CDf =  0.00521    CDp =  0.05823
 plradd ia,ip,cpol           50           0  2.05161501E-04

 Point added to stored polar  1
 Point written to save file  s1221_Re150k.base.pol                           
 Dump file unspecified or not available
 Calculating wake trajectory ...
 Calculating source influence matrix ...

 Solving BL system ...

 Side 1  free  transition at x/c =  0.1265   42
 Side 2 forced transition at x/c =  1.0000   64

   1   rms: 0.4856E-01   max: 0.1856E+00   D at   72  1   RLX: 0.624
       a = 15.250      CL =  1.8160
      Cm = -0.1158     CD =  0.06755   =>   CDf =  0.00521    CDp =  0.06234

 Side 1  free  transition at x/c =  0.1219   42
 Side 2 forced transition at x/c =  1.0000   64

   2   rms: 0.1926E-01   max: 0.7980E-01   D at   72  1
       a = 15.250      CL =  1.8081
      Cm = -0.1164     CD =  0.06978   =>   CDf =  0.00516    CDp =  0.06462

 Side 1  free  transition at x/c =  0.1206   42
 Side 2 forced transition at x/c =  1.0000   64

   3   rms: 0.2832E-02   max: 0.2141E-01   D at   79  2
       a = 15.250      CL =  1.8063
      Cm = -0.1163     CD =  0.06957   =>   CDf =  0.00512    CDp =  0.06445

 Side 1  free  transition at x/c =  0.1210   42
 Side 2 forced transition at x/c =  1.0000   64

   4   rms: 0.1639E-03   max: 0.1684E-02   D at   79  2
       a = 15.250      CL =  1.8062
      Cm = -0.1163     CD =  0.06954   =>   CDf =  0.00510    CDp =  0.06444

 Side 1  free  transition at x/c =  0.1210   42
 Side 2 forced transition at x/c =  1.0000   64

   5   rms: 0.4088E-05   max: -.6239E-04   C at   64  2
       a = 15.250      CL =  1.8062
      Cm = -0.1163     CD =  0.06954   =>   CDf =  0.00510    CDp =  0.06444
 plradd ia,ip,cpol           51           0  2.05161501E-04

 Point added to stored polar  1
 Point written to save file  s1221_Re150k.base.pol                           
 Dump file unspecified or not available
 Calculating wake trajectory ...
 Calculating source influence matrix ...

 Solving BL system ...

 Side 1  free  transition at x/c =  0.1210   42
 Side 2 forced transition at x/c =  1.0000   64

   1   rms: 0.4461E-01   max: 0.1653E+00   D at   69  1   RLX: 0.591
       a = 15.500      CL =  1.7987
      Cm = -0.1173     CD =  0.07341   =>   CDf =  0.00510    CDp =  0.06831

 Side 1  free  transition at x/c =  0.1177   42
 Side 2 forced transition at x/c =  1.0000   64

   2   rms: 0.1516E-01   max: -.6177E-01   D at   43  1
       a = 15.500      CL =  1.7943
      Cm = -0.1169     CD =  0.07485   =>   CDf =  0.00518    CDp =  0.06966

 Side 1  free  transition at x/c =  0.1156   41
 Side 2 forced transition at x/c =  1.0000   64

   3   rms: 0.7680E-02   max: -.3841E-01   D at   41  1
       a = 15.500      CL =  1.7911
      Cm = -0.1176     CD =  0.07545   =>   CDf =  0.00518    CDp =  0.07026

 Side 1  free  transition at x/c =  0.1158   41
 Side 2 forced transition at x/c =  1.0000   64

   4   rms: 0.6316E-03   max: 0.4302E-02   D at   80  2
       a = 15.500      CL =  1.7908
      Cm = -0.1175     CD =  0.07530   =>   CDf =  0.00513    CDp =  0.07017

 Side 1  free  transition at x/c =  0.1159   41
 Side 2 forced transition at x/c =  1.0000   64

   5   rms: 0.9828E-05   max: -.1034E-03   C at   64  2
       a = 15.500      CL =  1.7908
      Cm = -0.1175     CD =  0.07530   =>   CDf =  0.00513    CDp =  0.07016
 plradd ia,ip,cpol           52           0  2.05161501E-04

 Point added to stored polar  1
 Point written to save file  s1221_Re150k.base.pol                           
 Dump file unspecified or not available
 Calculating wake trajectory ...
 Calculating source influence matrix ...

 Solving BL system ...

 Side 1  free  transition at x/c =  0.1159   41
 Side 2 forced transition at x/c =  1.0000   64

   1   rms: 0.4660E-01   max: 0.1810E+00   D at   67  1   RLX: 0.562
       a = 15.750      CL =  1.7837
      Cm = -0.1189     CD =  0.07943   =>   CDf =  0.00514    CDp =  0.07429

 Side 1  free  transition at x/c =  0.1125   41
 Side 2 forced transition at x/c =  1.0000   64

   2   rms: 0.1947E-01   max: 0.7560E-01   D at   68  1
       a = 15.750      CL =  1.7764
      Cm = -0.1196     CD =  0.08201   =>   CDf =  0.00502    CDp =  0.07698

 Side 1  free  transition at x/c =  0.1107   41
 Side 2 forced transition at x/c =  1.0000   64

   3   rms: 0.2707E-02   max: 0.1720E-01   D at   80  2
       a = 15.750      CL =  1.7745
      Cm = -0.1195     CD =  0.08167   =>   CDf =  0.00496    CDp =  0.07671

 Side 1  free  transition at x/c =  0.1110   41
 Side 2 forced transition at x/c =  1.0000   64

   4   rms: 0.1378E-03   max: 0.2392E-02   D at   80  2
       a = 15.750      CL =  1.7745
      Cm = -0.1195     CD =  0.08164   =>   CDf =  0.00495    CDp =  0.07669

 Side 1  free  transition at x/c =  0.1110   41
 Side 2 forced transition at x/c =  1.0000   64

   5   rms: 0.6979E-05   max: 0.3266E-04   C at   64  2
       a = 15.750      CL =  1.7745
      Cm = -0.1195     CD =  0.08164   =>   CDf =  0.00495    CDp =  0.07669
 plradd ia,ip,cpol           53           0  2.05161501E-04

 Point added to stored polar  1
 Point written to save file  s1221_Re150k.base.pol                           
 Dump file unspecified or not available
 Calculating wake trajectory ...
 Calculating source influence matrix ...

 Solving BL system ...

 Side 1  free  transition at x/c =  0.1110   41
 Side 2 forced transition at x/c =  1.0000   64

   1   rms: 0.4019E-01   max: 0.1535E+00   D at   65  1   RLX: 0.537
       a = 16.000      CL =  1.7688
      Cm = -0.1206     CD =  0.08529   =>   CDf =  0.00495    CDp =  0.08033

 Side 1  free  transition at x/c =  0.1081   41
 Side 2 forced transition at x/c =  1.0000   64

   2   rms: 0.1719E-01   max: 0.5812E-01   D at   63  1
       a = 16.000      CL =  1.7630
      Cm = -0.1213     CD =  0.08771   =>   CDf =  0.00494    CDp =  0.08277

 Side 1  free  transition at x/c =  0.1063   41
 Side 2 forced transition at x/c =  1.0000   64

   3   rms: 0.1943E-02   max: 0.1386E-01   D at   80  2
       a = 16.000      CL =  1.7617
      Cm = -0.1210     CD =  0.08726   =>   CDf =  0.00496    CDp =  0.08230

 Side 1  free  transition at x/c =  0.1065   41
 Side 2 forced transition at x/c =  1.0000   64

   4   rms: 0.2024E-03   max: -.7149E-03   D at   82  2
       a = 16.000      CL =  1.7619
      Cm = -0.1210     CD =  0.08724   =>   CDf =  0.00495    CDp =  0.08229

 Side 1  free  transition at x/c =  0.1065   41
 Side 2 forced transition at x/c =  1.0000   64

   5   rms: 0.3080E-04   max: -.1527E-03   D at   80  2
       a = 16.000      CL =  1.7619
      Cm = -0.1210     CD =  0.08724   =>   CDf =  0.00495    CDp =  0.08229
 plradd ia,ip,cpol           54           0  2.05161501E-04

 Point added to stored polar  1
 Point written to save file  s1221_Re150k.base.pol                           
 Dump file unspecified or not available

.OPERva   c>  
 Polar accumulation disabled

.OPERv   c>  
 XFOIL   c>  
 XFOIL   c>  