
 ===================================================
  XFOIL Version 6.99
  Copyright (C) 2000   Mark Drela, Harold Youngren

  This software comes with ABSOLUTELY NO WARRANTY,
    subject to the GNU General Public License.

  Caveat computor
 ===================================================

 File  xfoil.def  not found

   QUIT    Exit program

  .OPER    Direct operating point(s)
  .MDES    Complex mapping design routine
  .QDES    Surface speed design routine
  .GDES    Geometry design routine

   SAVE f  Write airfoil to labeled coordinate file
   PSAV f  Write airfoil to plain coordinate file
   ISAV f  Write airfoil to ISES coordinate file
   MSAV f  Write airfoil to MSES coordinate file
   REVE    Reverse written-airfoil node ordering

   LOAD f  Read buffer airfoil from coordinate file
   NACA i  Set NACA 4,5-digit airfoil and buffer airfoil
   INTE    Set buffer airfoil by interpolating two airfoils
   NORM    Buffer airfoil normalization toggle
   XYCM rr Change CM reference location, currently  0.25000 0.00000

   BEND    Display structural properties of current airfoil

   PCOP    Set current-airfoil panel nodes directly from buffer airfoil points
   PANE    Set current-airfoil panel nodes ( 160 ) based on curvature
  .PPAR    Show/change paneling

  .PLOP    Plotting options

   WDEF f  Write  current-settings file
   RDEF f  Reread current-settings file
   NAME s  Specify new airfoil name
   NINC    Increment name version number

   Z       Zoom    | (available in all menus)
   U       Unzoom  | 

 XFOIL   c>  
 Labeled airfoil file.  Name:  S3010-103-84                                    

 Number of input coordinate points:  61
 Counterclockwise ordering
 Max thickness =     0.103192  at x =   0.250
 Max camber    =     0.027942  at x =   0.384

  LE  x,y  =   0.00004   0.00049  |   Chord =   0.99996
  TE  x,y  =   1.00000   0.00000  |

 Current airfoil nodes set from buffer airfoil nodes (  61 )

 WARNING: Poor input coordinate distribution
          Excessive panel angle   40.8  at i =  33
          Repaneling with PANE and/or PPAR suggested
           (doing GDES,CADD before repaneling _may_
            improve excessively coarse LE spacing

 XFOIL   c>  
 XFOIL   c>  
 Sharp trailing edge

 Paneling parameters used...
   Number of panel nodes       160
   Panel bunching parameter    1.000
   TE/LE panel density ratio   0.150
   Refined-area/LE panel density ratio    0.200
   Top    side refined area x/c limits  1.000 1.000
   Bottom side refined area x/c limits  1.000 1.000

 XFOIL   c>  
.OPERi   c>  
 Xtr/c     =  1.0000    top    side
 Xtr/c     =  1.0000    bottom side
 Ncrit     =    9.00   ( 0.070 % turb. level )
 Vacc      =  0.0100

 Klag  =  5.6000     Uxwt  =    1.00
 A     =  6.7000     B     =  0.7500       KCt = 0.01485
 CtiniK=  1.8000     CtiniX=  3.3000

..VPAR   c>  
..VPAR   c>  
.OPERi   c>  
 M  =    0.0000
 Re =    300000

.OPERv   c>  
.OPERv   c>  
.OPERv   c>  
 Polar  1 newly created for accumulation
 Airfoil archived with polar: S3010-103-84                                    

Enter  polar save filename  OR  <return> for no file   s>  
 New polar save file available

Enter  polar dump filename  OR  <return> for no file   s>  
 Polar dump file will NOT be written

 Polar accumulation enabled

.OPERva   c>   Calculating unit vorticity distributions ...
 Calculating wake trajectory ...
 Calculating source influence matrix ...

 Solving BL system ...

 Initializing BL ...
    side            1  ...
 MRCHUE: Inverse mode at  52     Hk =   3.922
 MRCHUE: Inverse mode at  53     Hk =   4.376
 MRCHUE: Inverse mode at  54     Hk =   4.822
 MRCHUE: Inverse mode at  55     Hk =   5.261
 MRCHUE: Inverse mode at  56     Hk =   5.694
 MRCHUE: Inverse mode at  57     Hk =   6.122
 MRCHUE: Inverse mode at  58     Hk =   6.546
 MRCHUE: Inverse mode at  59     Hk =   6.967
 MRCHUE: Inverse mode at  60     Hk =   7.385
 MRCHUE: Inverse mode at  61     Hk =   7.800
 MRCHUE: Inverse mode at  62     Hk =   8.213
 MRCHUE: Inverse mode at  63     Hk =   8.624
 MRCHUE: Inverse mode at  64     Hk =   7.365
 MRCHUE: Inverse mode at  65     Hk =   5.830
 MRCHUE: Inverse mode at  66     Hk =   4.723
 MRCHUE: Inverse mode at  67     Hk =   3.861
 MRCHUE: Inverse mode at  68     Hk =   3.161
    side            2  ...
 MRCHUE: Inverse mode at  14     Hk =   3.800
 MRCHUE: Inverse mode at  15     Hk =   4.704
 MRCHUE: Convergence failed at  16  side 2    Res =  0.3308E+01
 MRCHUE: Inverse mode at  17     Hk =   5.657
 MRCHUE: Inverse mode at  18     Hk =   6.592
 MRCHUE: Inverse mode at  19     Hk =   7.542
 MRCHUE: Inverse mode at  20     Hk =   8.544
 MRCHUE: Inverse mode at  21     Hk =   9.649
 MRCHUE: Inverse mode at  22     Hk =   4.040
 MRCHUE: Inverse mode at  23     Hk =   2.500

 MRCHDU: Convergence failed at  22  side 2    Res =  0.6866E+01
 MRCHDU: Convergence failed at  23  side 2    Res =  0.2332E+03
 MRCHDU: Convergence failed at  24  side 2    Res =  0.1092E+03
 MRCHDU: Convergence failed at  25  side 2    Res =  0.1336E+03
 MRCHDU: Convergence failed at  26  side 2    Res =  0.8945E+02
 MRCHDU: Convergence failed at  27  side 2    Res =  0.5885E+02
 MRCHDU: Convergence failed at  28  side 2    Res =  0.3766E+02
 MRCHDU: Convergence failed at  29  side 2    Res =  0.2592E+02
 MRCHDU: Convergence failed at  30  side 2    Res =  0.1679E+02
 MRCHDU: Convergence failed at  31  side 2    Res =  0.2053E+02
 MRCHDU: Convergence failed at  32  side 2    Res =  0.2226E+02
 MRCHDU: Convergence failed at  33  side 2    Res =  0.4026E+02
 MRCHDU: Convergence failed at  34  side 2    Res =  0.4429E+02
 MRCHDU: Convergence failed at  35  side 2    Res =  0.2708E+02
 MRCHDU: Convergence failed at  36  side 2    Res =  0.2643E+02
 MRCHDU: Convergence failed at  37  side 2    Res =  0.5694E+02
 MRCHDU: Convergence failed at  38  side 2    Res =  0.3385E+02
 MRCHDU: Convergence failed at  39  side 2    Res =  0.3633E+02
 MRCHDU: Convergence failed at  40  side 2    Res =  0.7113E+02
 MRCHDU: Convergence failed at  41  side 2    Res =  0.4071E+02
 MRCHDU: Convergence failed at  42  side 2    Res =  0.4385E+02
 MRCHDU: Convergence failed at  43  side 2    Res =  0.4694E+02
 MRCHDU: Convergence failed at  44  side 2    Res =  0.5000E+02
 MRCHDU: Convergence failed at  45  side 2    Res =  0.5323E+02
 MRCHDU: Convergence failed at  46  side 2    Res =  0.5692E+02
 MRCHDU: Convergence failed at  47  side 2    Res =  0.6099E+02
 MRCHDU: Convergence failed at  48  side 2    Res =  0.6390E+02
 MRCHDU: Convergence failed at  49  side 2    Res =  0.6621E+02
 MRCHDU: Convergence failed at  50  side 2    Res =  0.6205E+02
 MRCHDU: Convergence failed at  51  side 2    Res =  0.6583E+02
 MRCHDU: Convergence failed at  52  side 2    Res =  0.6739E+02
 MRCHDU: Convergence failed at  53  side 2    Res =  0.6180E+02
 MRCHDU: Convergence failed at  54  side 2    Res =  0.6531E+02
 MRCHDU: Convergence failed at  55  side 2    Res =  0.6116E+02
 MRCHDU: Convergence failed at  56  side 2    Res =  0.6538E+02
 MRCHDU: Convergence failed at  57  side 2    Res =  0.7048E+02
 MRCHDU: Convergence failed at  58  side 2    Res =  0.7601E+02
 MRCHDU: Convergence failed at  59  side 2    Res =  0.8158E+02
 MRCHDU: Convergence failed at  60  side 2    Res =  0.8906E+02
 MRCHDU: Convergence failed at  61  side 2    Res =  0.9709E+02
 MRCHDU: Convergence failed at  62  side 2    Res =  0.1080E+03
 MRCHDU: Convergence failed at  63  side 2    Res =  0.1188E+03
 MRCHDU: Convergence failed at  64  side 2    Res =  0.1337E+03
 MRCHDU: Convergence failed at  65  side 2    Res =  0.1518E+03
 MRCHDU: Convergence failed at  66  side 2    Res =  0.1787E+03
 MRCHDU: Convergence failed at  67  side 2    Res =  0.2051E+03
 MRCHDU: Convergence failed at  68  side 2    Res =  0.3091E+03
 MRCHDU: Convergence failed at  69  side 2    Res =  0.2514E+03
 MRCHDU: Convergence failed at  70  side 2    Res =  0.2106E+03
 MRCHDU: Convergence failed at  71  side 2    Res =  0.1811E+03
 MRCHDU: Convergence failed at  72  side 2    Res =  0.1599E+03
 MRCHDU: Convergence failed at  73  side 2    Res =  0.1430E+03
 MRCHDU: Convergence failed at  74  side 2    Res =  0.1296E+03
 MRCHDU: Convergence failed at  75  side 2    Res =  0.1192E+03
 MRCHDU: Convergence failed at  76  side 2    Res =  0.1089E+03
 MRCHDU: Convergence failed at  77  side 2    Res =  0.1013E+03
 MRCHDU: Convergence failed at  78  side 2    Res =  0.9357E+02
 MRCHDU: Convergence failed at  79  side 2    Res =  0.8754E+02
 MRCHDU: Convergence failed at  80  side 2    Res =  0.3539E+02
 MRCHDU: Convergence failed at  81  side 2    Res =  0.5711E+02
 MRCHDU: Convergence failed at  82  side 2    Res =  0.6143E+02
 MRCHDU: Convergence failed at  83  side 2    Res =  0.6771E+02
 MRCHDU: Convergence failed at  84  side 2    Res =  0.7716E+02
 MRCHDU: Convergence failed at  85  side 2    Res =  0.8017E+02
 MRCHDU: Convergence failed at  86  side 2    Res =  0.1058E+03
 Side 1  free  transition at x/c =  0.8260   64
 Side 2  free  transition at x/c =  0.0367   22

   1   rms: 0.1182E+01   max: 0.1503E+01   D at   88  2   RLX: 0.467
       a = -4.000      CL = -0.9907
      Cm =  0.2063     CD =  0.00701   =>   CDf =  0.00241    CDp =  0.00459

 MRCHDU: Convergence failed at  83  side 2    Res =  0.3112E-01
 MRCHDU: Convergence failed at  84  side 2    Res =  0.1290E-02
 Side 1  free  transition at x/c =  0.8492   66
 Side 2  free  transition at x/c =  0.0336   20
 idif Ue xi dudx           1  0.14106554      2.93636322E-03   48.040901    
 Uenew xinew           2  4.02602600E-03  8.38041306E-05

   2   rms: 0.4501E+00   max: 0.1912E+01   T at    2  1   RLX: 0.356
       a = -4.000      CL = -0.4586
      Cm =  0.0414     CD =  0.02674   =>   CDf =  0.00429    CDp =  0.02245

 MRCHDU: Convergence failed at  67  side 1    Res =  0.2017E+01
 MRCHDU: Convergence failed at  68  side 1    Res =  0.1509E+02
 MRCHDU: Convergence failed at  69  side 1    Res =  0.2341E+01
 MRCHDU: Convergence failed at  70  side 1    Res =  0.2669E+01
 MRCHDU: Convergence failed at  71  side 1    Res =  0.3659E+01
 MRCHDU: Convergence failed at  72  side 1    Res =  0.4538E+01
 MRCHDU: Convergence failed at  73  side 1    Res =  0.5206E+01
 MRCHDU: Convergence failed at  74  side 1    Res =  0.5563E+01
 MRCHDU: Convergence failed at  75  side 1    Res =  0.5109E+01
 MRCHDU: Convergence failed at  76  side 1    Res =  0.6256E+01
 MRCHDU: Convergence failed at  49  side 2    Res =  0.9321E-02
 MRCHDU: Convergence failed at  84  side 2    Res =  0.5739E-01
 MRCHDU: Convergence failed at  85  side 2    Res =  0.3181E-03
 Side 1  free  transition at x/c =  0.8694   67
 Side 2  free  transition at x/c =  0.0322   21

   3   rms: 0.4561E+00   max: -.2155E+01   D at   33  2   RLX: 0.232
       a = -4.000      CL = -0.3227
      Cm = -0.0081     CD =  0.02286   =>   CDf =  0.00400    CDp =  0.01886

 MRCHDU: Convergence failed at  49  side 2    Res =  0.9723E-01
 MRCHDU: Convergence failed at  84  side 2    Res =  0.9262E-01
 MRCHDU: Convergence failed at  85  side 2    Res =  0.3617E-03
 Side 1  free  transition at x/c =  0.8761   67
 Side 2  free  transition at x/c =  0.0322   21

   4   rms: 0.6444E+00   max: -.4162E+01   D at   29  2   RLX: 0.120
       a = -4.000      CL = -0.2812
      Cm = -0.0215     CD =  0.02149   =>   CDf =  0.00470    CDp =  0.01679

 MRCHDU: Convergence failed at  48  side 2    Res =  0.4949E-01
 MRCHDU: Convergence failed at  83  side 2    Res =  0.1419E+00
 MRCHDU: Convergence failed at  84  side 2    Res =  0.2497E+00
 Side 1  free  transition at x/c =  0.8768   68
 Side 2  free  transition at x/c =  0.0326   20

   5   rms: 0.4979E+00   max: -.2439E+01   D at   48  2   RLX: 0.205
       a = -4.000      CL = -0.2169
      Cm = -0.0462     CD =  0.01933   =>   CDf =  0.00473    CDp =  0.01460

 MRCHDU: Convergence failed at  48  side 2    Res =  0.1103E+00
 MRCHDU: Convergence failed at  49  side 2    Res =  0.2592E+00
 Side 1  free  transition at x/c =  0.8788   68
 Side 2  free  transition at x/c =  0.0327   20

   6   rms: 0.8360E+00   max: -.3981E+01   D at   50  2   RLX: 0.126
       a = -4.000      CL = -0.1743
      Cm = -0.0571     CD =  0.01170   =>   CDf =  0.00716    CDp =  0.00454

 Side 1  free  transition at x/c =  0.8795   68
 Side 2  free  transition at x/c =  0.0322   20
 idif Ue xi dudx           1  0.14410178      2.92587280E-03   49.250870    
 Uenew xinew           2  3.61076416E-03  7.33137131E-05

   7   rms: 0.1147E+01   max: -.5290E+01   D at   50  2   RLX: 0.095
       a = -4.000      CL = -0.1759
      Cm = -0.0579     CD =  0.01105   =>   CDf =  0.00749    CDp =  0.00355

 MRCHDU: Convergence failed at  35  side 2    Res =  0.1061E+00
 MRCHDU: Convergence failed at  51  side 2    Res =  0.1774E-01
 Side 1  free  transition at x/c =  0.8799   67
 Side 2  free  transition at x/c =  0.0318   21

   8   rms: 0.2613E+00   max: -.1377E+01   D at   47  2   RLX: 0.363
       a = -4.000      CL = -0.1792
      Cm = -0.0567     CD =  0.01161   =>   CDf =  0.00818    CDp =  0.00343

 Side 1  free  transition at x/c =  0.8789   67
 Side 2  free  transition at x/c =  0.0307   21

   9   rms: 0.1860E+00   max: -.1060E+01   D at   48  2   RLX: 0.472
       a = -4.000      CL = -0.1617
      Cm = -0.0571     CD =  0.01229   =>   CDf =  0.00773    CDp =  0.00456

 Side 1  free  transition at x/c =  0.8788   67
 Side 2  free  transition at x/c =  0.0302   21

  10   rms: 0.1142E+00   max: -.7818E+00   D at   50  2   RLX: 0.640
       a = -4.000      CL = -0.1407
      Cm = -0.0595     CD =  0.01275   =>   CDf =  0.00729    CDp =  0.00547

 Side 1  free  transition at x/c =  0.8790   67
 Side 2  free  transition at x/c =  0.0301   21

  11   rms: 0.5103E-01   max: -.5245E+00   D at   50  2   RLX: 0.953
       a = -4.000      CL = -0.1291
      Cm = -0.0616     CD =  0.01305   =>   CDf =  0.00695    CDp =  0.00610

 Side 1  free  transition at x/c =  0.8783   67
 Side 2  free  transition at x/c =  0.0301   21

  12   rms: 0.9781E-02   max: -.1520E+00   D at   50  2
       a = -4.000      CL = -0.1288
      Cm = -0.0618     CD =  0.01307   =>   CDf =  0.00686    CDp =  0.00621

 Side 1  free  transition at x/c =  0.8782   67
 Side 2  free  transition at x/c =  0.0300   21

  13   rms: 0.5500E-03   max: -.9685E-02   D at   50  2
       a = -4.000      CL = -0.1288
      Cm = -0.0617     CD =  0.01307   =>   CDf =  0.00685    CDp =  0.00622

 Side 1  free  transition at x/c =  0.8782   67
 Side 2  free  transition at x/c =  0.0300   21

  14   rms: 0.2477E-05   max: -.3814E-04   D at   50  2
       a = -4.000      CL = -0.1288
      Cm = -0.0617     CD =  0.01307   =>   CDf =  0.00685    CDp =  0.00622
 plradd ia,ip,cpol            1           0  2.09966698E-03

 Point added to stored polar  1
 Point written to save file  s3010_Re300k.base.pol                           
 Dump file unspecified or not available
 Calculating wake trajectory ...
 Calculating source influence matrix ...

 Solving BL system ...

 Side 1  free  transition at x/c =  0.8782   67
 Side 2  free  transition at x/c =  0.0300   21

   1   rms: 0.1002E+00   max: -.4192E+00   T at   21  2
       a = -3.500      CL = -0.0786
      Cm = -0.0603     CD =  0.01196   =>   CDf =  0.00693    CDp =  0.00503

 Side 1  free  transition at x/c =  0.8526   67
 Side 2  free  transition at x/c =  0.0344   21

   2   rms: 0.2450E-01   max: -.2611E+00   D at   67  1
       a = -3.500      CL = -0.0785
      Cm = -0.0600     CD =  0.01206   =>   CDf =  0.00702    CDp =  0.00504

 Side 1  free  transition at x/c =  0.8571   67
 Side 2  free  transition at x/c =  0.0346   21

   3   rms: 0.3834E-02   max: 0.3991E-01   C at   67  1
       a = -3.500      CL = -0.0783
      Cm = -0.0601     CD =  0.01208   =>   CDf =  0.00699    CDp =  0.00509

 Side 1  free  transition at x/c =  0.8556   67
 Side 2  free  transition at x/c =  0.0346   21

   4   rms: 0.1481E-03   max: -.2124E-02   D at   70  1
       a = -3.500      CL = -0.0783
      Cm = -0.0601     CD =  0.01208   =>   CDf =  0.00701    CDp =  0.00507

 Side 1  free  transition at x/c =  0.8556   67
 Side 2  free  transition at x/c =  0.0346   21

   5   rms: 0.1155E-05   max: 0.5733E-05   D at   67  1
       a = -3.500      CL = -0.0783
      Cm = -0.0601     CD =  0.01208   =>   CDf =  0.00701    CDp =  0.00507
 plradd ia,ip,cpol            2           0  2.09966698E-03

 Point added to stored polar  1
 Point written to save file  s3010_Re300k.base.pol                           
 Dump file unspecified or not available
 Calculating wake trajectory ...
 Calculating source influence matrix ...

 Solving BL system ...

 Side 1  free  transition at x/c =  0.8556   67
 Side 2  free  transition at x/c =  0.0346   21

   1   rms: 0.1631E+00   max: -.8507E+00   T at   21  2   RLX: 0.588
       a = -3.000      CL = -0.0503
      Cm = -0.0591     CD =  0.01096   =>   CDf =  0.00701    CDp =  0.00395

 Side 1  free  transition at x/c =  0.8445   66
 Side 2  free  transition at x/c =  0.0414   21

   2   rms: 0.5351E-01   max: -.3524E+00   T at   21  2
       a = -3.000      CL = -0.0257
      Cm = -0.0589     CD =  0.01129   =>   CDf =  0.00703    CDp =  0.00426

 Side 1  free  transition at x/c =  0.8313   65
 Side 2  free  transition at x/c =  0.0501   22

   3   rms: 0.2929E-01   max: -.2792E+00   T at   22  2
       a = -3.000      CL = -0.0264
      Cm = -0.0587     CD =  0.01105   =>   CDf =  0.00710    CDp =  0.00395

 Side 1  free  transition at x/c =  0.8342   65
 Side 2  free  transition at x/c =  0.0593   23

   4   rms: 0.1195E-01   max: 0.1753E+00   D at   23  2
       a = -3.000      CL = -0.0267
      Cm = -0.0587     CD =  0.01090   =>   CDf =  0.00703    CDp =  0.00388

 Side 1  free  transition at x/c =  0.8338   65
 Side 2  free  transition at x/c =  0.0627   23

   5   rms: 0.1804E-02   max: -.3286E-01   C at   23  2
       a = -3.000      CL = -0.0266
      Cm = -0.0587     CD =  0.01092   =>   CDf =  0.00700    CDp =  0.00392

 Side 1  free  transition at x/c =  0.8338   65
 Side 2  free  transition at x/c =  0.0634   23

   6   rms: 0.4484E-04   max: -.9039E-03   C at   23  2
       a = -3.000      CL = -0.0266
      Cm = -0.0587     CD =  0.01092   =>   CDf =  0.00700    CDp =  0.00392
 plradd ia,ip,cpol            3           0  3.48080113E-03

 Point added to stored polar  1
 Point written to save file  s3010_Re300k.base.pol                           
 Dump file unspecified or not available
 Calculating wake trajectory ...
 Calculating source influence matrix ...

 Solving BL system ...

 Side 1  free  transition at x/c =  0.8338   65
 Side 2  free  transition at x/c =  0.0634   23

   1   rms: 0.3947E+00   max: -.4054E+01   C at   23  2   RLX: 0.123
       a = -2.500      CL = -0.0201
      Cm = -0.0586     CD =  0.01068   =>   CDf =  0.00703    CDp =  0.00365

 MRCHDU: Convergence failed at  24  side 2    Res =  0.2126E+01
 MRCHDU: Convergence failed at  25  side 2    Res =  0.1389E+01
 MRCHDU: Convergence failed at  26  side 2    Res =  0.1835E+01
 MRCHDU: Convergence failed at  27  side 2    Res =  0.2051E+01
 MRCHDU: Convergence failed at  28  side 2    Res =  0.2200E+01
 MRCHDU: Convergence failed at  29  side 2    Res =  0.2345E+01
 MRCHDU: Convergence failed at  30  side 2    Res =  0.2517E+01
 MRCHDU: Convergence failed at  31  side 2    Res =  0.1670E+02
 MRCHDU: Convergence failed at  32  side 2    Res =  0.3759E+01
 MRCHDU: Convergence failed at  33  side 2    Res =  0.4032E+01
 MRCHDU: Convergence failed at  34  side 2    Res =  0.4151E+01
 MRCHDU: Convergence failed at  35  side 2    Res =  0.4395E+01
 MRCHDU: Convergence failed at  36  side 2    Res =  0.4564E+01
 MRCHDU: Convergence failed at  37  side 2    Res =  0.4671E+01
 MRCHDU: Convergence failed at  38  side 2    Res =  0.4728E+01
 MRCHDU: Convergence failed at  39  side 2    Res =  0.4737E+01
 MRCHDU: Convergence failed at  40  side 2    Res =  0.4748E+01
 MRCHDU: Convergence failed at  41  side 2    Res =  0.4793E+01
 MRCHDU: Convergence failed at  42  side 2    Res =  0.4814E+01
 MRCHDU: Convergence failed at  43  side 2    Res =  0.4811E+01
 MRCHDU: Convergence failed at  44  side 2    Res =  0.4809E+01
 MRCHDU: Convergence failed at  45  side 2    Res =  0.4796E+01
 MRCHDU: Convergence failed at  46  side 2    Res =  0.4781E+01
 MRCHDU: Convergence failed at  47  side 2    Res =  0.4766E+01
 MRCHDU: Convergence failed at  48  side 2    Res =  0.4758E+01
 MRCHDU: Convergence failed at  49  side 2    Res =  0.4691E+01
 MRCHDU: Convergence failed at  50  side 2    Res =  0.4686E+01
 MRCHDU: Convergence failed at  51  side 2    Res =  0.4672E+01
 MRCHDU: Convergence failed at  52  side 2    Res =  0.4662E+01
 MRCHDU: Convergence failed at  53  side 2    Res =  0.4645E+01
 MRCHDU: Convergence failed at  54  side 2    Res =  0.4632E+01
 MRCHDU: Convergence failed at  55  side 2    Res =  0.4615E+01
 MRCHDU: Convergence failed at  56  side 2    Res =  0.4553E+01
 MRCHDU: Convergence failed at  57  side 2    Res =  0.4540E+01
 MRCHDU: Convergence failed at  58  side 2    Res =  0.4472E+01
 MRCHDU: Convergence failed at  59  side 2    Res =  0.4460E+01
 MRCHDU: Convergence failed at  60  side 2    Res =  0.4445E+01
 MRCHDU: Convergence failed at  61  side 2    Res =  0.4434E+01
 MRCHDU: Convergence failed at  62  side 2    Res =  0.4420E+01
 MRCHDU: Convergence failed at  63  side 2    Res =  0.4407E+01
 MRCHDU: Convergence failed at  64  side 2    Res =  0.4391E+01
 MRCHDU: Convergence failed at  65  side 2    Res =  0.4321E+01
 MRCHDU: Convergence failed at  66  side 2    Res =  0.6954E+01
 MRCHDU: Convergence failed at  67  side 2    Res =  0.7209E+01
 MRCHDU: Convergence failed at  68  side 2    Res =  0.7481E+01
 MRCHDU: Convergence failed at  69  side 2    Res =  0.7772E+01
 MRCHDU: Convergence failed at  70  side 2    Res =  0.8352E+01
 MRCHDU: Convergence failed at  71  side 2    Res =  0.8677E+01
 MRCHDU: Convergence failed at  72  side 2    Res =  0.9313E+01
 MRCHDU: Convergence failed at  73  side 2    Res =  0.9972E+01
 MRCHDU: Convergence failed at  74  side 2    Res =  0.1041E+02
 MRCHDU: Convergence failed at  75  side 2    Res =  0.1086E+02
 MRCHDU: Convergence failed at  76  side 2    Res =  0.1164E+02
 MRCHDU: Convergence failed at  77  side 2    Res =  0.1217E+02
 MRCHDU: Convergence failed at  78  side 2    Res =  0.1279E+02
 MRCHDU: Convergence failed at  79  side 2    Res =  0.1375E+02
 MRCHDU: Convergence failed at  80  side 2    Res =  0.1480E+02
 MRCHDU: Convergence failed at  81  side 2    Res =  0.1598E+02
 MRCHDU: Convergence failed at  82  side 2    Res =  0.1700E+02
 MRCHDU: Convergence failed at  83  side 2    Res =  0.1754E+02
 MRCHDU: Convergence failed at  84  side 2    Res =  0.1228E+02
 Side 1  free  transition at x/c =  0.8304   66
 Side 2  free  transition at x/c =  0.1812   31

   2   rms: 0.4557E+00   max: -.1795E+01   C at   31  2   RLX: 0.279
       a = -2.500      CL = -0.4643
      Cm =  0.1027     CD =  0.00612   =>   CDf =  0.00399    CDp =  0.00213

 Side 1  free  transition at x/c =  0.8247   66
 Side 2  free  transition at x/c =  0.6388   60

   3   rms: 0.4293E+00   max: 0.5626E+01   C at   60  2   RLX: 0.267
       a = -2.500      CL = -0.3208
      Cm =  0.0547     CD =  0.00707   =>   CDf =  0.00661    CDp =  0.00046

 Side 1  free  transition at x/c =  0.8214   66
 Side 2  free  transition at x/c =  0.5278   53

   4   rms: 0.3794E+00   max: 0.5620E+01   C at   53  2   RLX: 0.267
       a = -2.500      CL = -0.2241
      Cm =  0.0223     CD =  0.00766   =>   CDf =  0.00663    CDp =  0.00103

 Side 1  free  transition at x/c =  0.8194   65
 Side 2  free  transition at x/c =  0.4395   47

   5   rms: 0.2942E+00   max: 0.4456E+01   C at   47  2   RLX: 0.337
       a = -2.500      CL = -0.1374
      Cm = -0.0063     CD =  0.00820   =>   CDf =  0.00663    CDp =  0.00157

 Side 1  free  transition at x/c =  0.8159   65
 Side 2  free  transition at x/c =  0.3447   41

   6   rms: 0.1729E+00   max: 0.2411E+01   C at   41  2   RLX: 0.622
       a = -2.500      CL = -0.0356
      Cm = -0.0391     CD =  0.00900   =>   CDf =  0.00665    CDp =  0.00235

 Side 1  free  transition at x/c =  0.8123   65
 Side 2  free  transition at x/c =  0.2715   37

   7   rms: 0.6455E-01   max: 0.6613E+00   C at   37  2
       a = -2.500      CL =  0.0248
      Cm = -0.0580     CD =  0.00974   =>   CDf =  0.00651    CDp =  0.00323

 Side 1  free  transition at x/c =  0.8107   65
 Side 2  free  transition at x/c =  0.2308   34

   8   rms: 0.1065E-01   max: 0.1475E+00   D at   36  2
       a = -2.500      CL =  0.0249
      Cm = -0.0580     CD =  0.00977   =>   CDf =  0.00639    CDp =  0.00337

 Side 1  free  transition at x/c =  0.8107   65
 Side 2  free  transition at x/c =  0.2284   34

   9   rms: 0.5528E-03   max: -.7142E-02   D at   36  2
       a = -2.500      CL =  0.0250
      Cm = -0.0580     CD =  0.00978   =>   CDf =  0.00639    CDp =  0.00338

 Side 1  free  transition at x/c =  0.8107   65
 Side 2  free  transition at x/c =  0.2283   34

  10   rms: 0.2441E-05   max: -.3135E-04   D at   36  2
       a = -2.500      CL =  0.0250
      Cm = -0.0580     CD =  0.00978   =>   CDf =  0.00639    CDp =  0.00338
 plradd ia,ip,cpol            4           0  3.48080113E-03

 Point added to stored polar  1
 Point written to save file  s3010_Re300k.base.pol                           
 Dump file unspecified or not available
 Calculating wake trajectory ...
 Calculating source influence matrix ...

 Solving BL system ...

 Side 1  free  transition at x/c =  0.8107   65
 Side 2  free  transition at x/c =  0.2283   34

   1   rms: 0.2368E+00   max: -.4063E+01   C at   34  2   RLX: 0.123
       a = -2.000      CL =  0.0313
      Cm = -0.0579     CD =  0.00966   =>   CDf =  0.00640    CDp =  0.00326

 Side 1  free  transition at x/c =  0.8080   65
 Side 2  free  transition at x/c =  0.2443   35

   2   rms: 0.1974E+00   max: -.3261E+01   C at   35  2   RLX: 0.153
       a = -2.000      CL =  0.0386
      Cm = -0.0578     CD =  0.00959   =>   CDf =  0.00636    CDp =  0.00323

 Side 1  free  transition at x/c =  0.8055   65
 Side 2  free  transition at x/c =  0.2616   36

   3   rms: 0.1692E+00   max: -.2808E+01   C at   36  2   RLX: 0.178
       a = -2.000      CL =  0.0458
      Cm = -0.0576     CD =  0.00953   =>   CDf =  0.00633    CDp =  0.00320

 Side 1  free  transition at x/c =  0.8034   64
 Side 2  free  transition at x/c =  0.2780   37

   4   rms: 0.1457E+00   max: -.2454E+01   C at   37  2   RLX: 0.204
       a = -2.000      CL =  0.0531
      Cm = -0.0578     CD =  0.00942   =>   CDf =  0.00628    CDp =  0.00314

 Side 1  free  transition at x/c =  0.7995   64
 Side 2  free  transition at x/c =  0.2928   38

   5   rms: 0.1258E+00   max: -.2146E+01   C at   38  2   RLX: 0.233
       a = -2.000      CL =  0.0593
      Cm = -0.0577     CD =  0.00936   =>   CDf =  0.00624    CDp =  0.00312

 Side 1  free  transition at x/c =  0.7963   64
 Side 2  free  transition at x/c =  0.3063   39

   6   rms: 0.1144E+00   max: -.1928E+01   C at   39  2   RLX: 0.259
       a = -2.000      CL =  0.0644
      Cm = -0.0576     CD =  0.00929   =>   CDf =  0.00625    CDp =  0.00304

 Side 1  free  transition at x/c =  0.7940   65
 Side 2  free  transition at x/c =  0.3190   39

   7   rms: 0.1095E+00   max: -.1624E+01   C at   39  2   RLX: 0.308
       a = -2.000      CL =  0.0687
      Cm = -0.0576     CD =  0.00922   =>   CDf =  0.00620    CDp =  0.00301

 Side 1  free  transition at x/c =  0.7923   65
 Side 2  free  transition at x/c =  0.3332   40

   8   rms: 0.8873E-01   max: -.1406E+01   C at   40  2   RLX: 0.356
       a = -2.000      CL =  0.0720
      Cm = -0.0575     CD =  0.00915   =>   CDf =  0.00616    CDp =  0.00299

 Side 1  free  transition at x/c =  0.7910   65
 Side 2  free  transition at x/c =  0.3487   41

   9   rms: 0.7333E-01   max: -.1210E+01   C at   41  2   RLX: 0.413
       a = -2.000      CL =  0.0743
      Cm = -0.0575     CD =  0.00909   =>   CDf =  0.00611    CDp =  0.00299

 Side 1  free  transition at x/c =  0.7902   65
 Side 2  free  transition at x/c =  0.3643   42

  10   rms: 0.5647E-01   max: -.9500E+00   C at   42  2   RLX: 0.526
       a = -2.000      CL =  0.0758
      Cm = -0.0574     CD =  0.00904   =>   CDf =  0.00606    CDp =  0.00298

 Side 1  free  transition at x/c =  0.7895   64
 Side 2  free  transition at x/c =  0.3799   43

  11   rms: 0.3955E-01   max: -.6744E+00   C at   43  2   RLX: 0.741
       a = -2.000      CL =  0.0766
      Cm = -0.0573     CD =  0.00898   =>   CDf =  0.00601    CDp =  0.00297

 Side 1  free  transition at x/c =  0.7888   64
 Side 2  free  transition at x/c =  0.3953   44

  12   rms: 0.2255E-01   max: -.3902E+00   C at   44  2
       a = -2.000      CL =  0.0766
      Cm = -0.0572     CD =  0.00895   =>   CDf =  0.00595    CDp =  0.00300

 Side 1  free  transition at x/c =  0.7886   64
 Side 2  free  transition at x/c =  0.4081   44

  13   rms: 0.2985E-02   max: -.5379E-01   C at   44  2
       a = -2.000      CL =  0.0767
      Cm = -0.0572     CD =  0.00897   =>   CDf =  0.00587    CDp =  0.00310

 Side 1  free  transition at x/c =  0.7886   64
 Side 2  free  transition at x/c =  0.4097   44

  14   rms: 0.2949E-04   max: 0.4449E-03   C at   44  2
       a = -2.000      CL =  0.0767
      Cm = -0.0572     CD =  0.00897   =>   CDf =  0.00586    CDp =  0.00311
 plradd ia,ip,cpol            5           0  3.48080113E-03

 Point added to stored polar  1
 Point written to save file  s3010_Re300k.base.pol                           
 Dump file unspecified or not available
 Calculating wake trajectory ...
 Calculating source influence matrix ...

 Solving BL system ...

 Side 1  free  transition at x/c =  0.7886   64
 Side 2  free  transition at x/c =  0.4096   44

   1   rms: 0.1992E+00   max: -.3218E+01   C at   44  2   RLX: 0.155
       a = -1.500      CL =  0.0851
      Cm = -0.0572     CD =  0.00888   =>   CDf =  0.00586    CDp =  0.00302

 Side 1  free  transition at x/c =  0.7839   64
 Side 2  free  transition at x/c =  0.4425   47

   2   rms: 0.2283E+00   max: -.3714E+01   C at   47  2   RLX: 0.135
       a = -1.500      CL =  0.0904
      Cm = -0.0569     CD =  0.00874   =>   CDf =  0.00576    CDp =  0.00298

 Side 1  free  transition at x/c =  0.7810   64
 Side 2  free  transition at x/c =  0.4584   48

   3   rms: 0.1720E+00   max: -.2639E+01   C at   48  2   RLX: 0.189
       a = -1.500      CL =  0.0982
      Cm = -0.0570     CD =  0.00868   =>   CDf =  0.00573    CDp =  0.00295

 Side 1  free  transition at x/c =  0.7778   64
 Side 2  free  transition at x/c =  0.4769   49

   4   rms: 0.1424E+00   max: -.2249E+01   C at   49  2   RLX: 0.222
       a = -1.500      CL =  0.1053
      Cm = -0.0569     CD =  0.00863   =>   CDf =  0.00570    CDp =  0.00293

 Side 1  free  transition at x/c =  0.7752   64
 Side 2  free  transition at x/c =  0.4940   50

   5   rms: 0.1201E+00   max: -.1949E+01   C at   50  2   RLX: 0.256
       a = -1.500      CL =  0.1115
      Cm = -0.0568     CD =  0.00858   =>   CDf =  0.00567    CDp =  0.00292

 Side 1  free  transition at x/c =  0.7732   63
 Side 2  free  transition at x/c =  0.5100   51

   6   rms: 0.1037E+00   max: -.1716E+01   C at   51  2   RLX: 0.291
       a = -1.500      CL =  0.1170
      Cm = -0.0568     CD =  0.00851   =>   CDf =  0.00563    CDp =  0.00288

 Side 1  free  transition at x/c =  0.7702   63
 Side 2  free  transition at x/c =  0.5254   52

   7   rms: 0.8807E-01   max: -.1472E+01   C at   52  2   RLX: 0.340
       a = -1.500      CL =  0.1212
      Cm = -0.0567     CD =  0.00845   =>   CDf =  0.00558    CDp =  0.00287

 Side 1  free  transition at x/c =  0.7680   63
 Side 2  free  transition at x/c =  0.5405   53

   8   rms: 0.7298E-01   max: -.1228E+01   C at   53  2   RLX: 0.407
       a = -1.500      CL =  0.1242
      Cm = -0.0566     CD =  0.00839   =>   CDf =  0.00554    CDp =  0.00286

 Side 1  free  transition at x/c =  0.7664   63
 Side 2  free  transition at x/c =  0.5559   54

   9   rms: 0.5701E-01   max: -.9660E+00   C at   54  2   RLX: 0.518
       a = -1.500      CL =  0.1263
      Cm = -0.0564     CD =  0.00834   =>   CDf =  0.00548    CDp =  0.00285

 Side 1  free  transition at x/c =  0.7653   63
 Side 2  free  transition at x/c =  0.5723   55

  10   rms: 0.3844E-01   max: -.6604E+00   C at   55  2   RLX: 0.757
       a = -1.500      CL =  0.1274
      Cm = -0.0561     CD =  0.00828   =>   CDf =  0.00542    CDp =  0.00287

 Side 1  free  transition at x/c =  0.7646   63
 Side 2  free  transition at x/c =  0.5910   56

  11   rms: 0.1564E-01   max: -.2719E+00   C at   56  2
       a = -1.500      CL =  0.1276
      Cm = -0.0559     CD =  0.00827   =>   CDf =  0.00533    CDp =  0.00294

 Side 1  free  transition at x/c =  0.7643   63
 Side 2  free  transition at x/c =  0.6029   57

  12   rms: 0.3297E-02   max: -.5689E-01   C at   57  2
       a = -1.500      CL =  0.1276
      Cm = -0.0559     CD =  0.00827   =>   CDf =  0.00529    CDp =  0.00299

 Side 1  free  transition at x/c =  0.7643   63
 Side 2  free  transition at x/c =  0.6042   57

  13   rms: 0.1865E-04   max: -.3137E-03   C at   57  2
       a = -1.500      CL =  0.1276
      Cm = -0.0559     CD =  0.00827   =>   CDf =  0.00527    CDp =  0.00300
 plradd ia,ip,cpol            6           0  3.48080113E-03

 Point added to stored polar  1
 Point written to save file  s3010_Re300k.base.pol                           
 Dump file unspecified or not available
 Calculating wake trajectory ...
 Calculating source influence matrix ...

 Solving BL system ...

 Side 1  free  transition at x/c =  0.7643   63
 Side 2  free  transition at x/c =  0.6042   57

   1   rms: 0.1995E+00   max: -.3066E+01   C at   57  2   RLX: 0.163
       a = -1.000      CL =  0.1356
      Cm = -0.0556     CD =  0.00817   =>   CDf =  0.00527    CDp =  0.00290

 Side 1  free  transition at x/c =  0.7606   63
 Side 2  free  transition at x/c =  0.6262   58

   2   rms: 0.1150E+00   max: -.1388E+01   C at   58  2   RLX: 0.360
       a = -1.000      CL =  0.1517
      Cm = -0.0553     CD =  0.00816   =>   CDf =  0.00528    CDp =  0.00288

 Side 1  free  transition at x/c =  0.7549   63
 Side 2  free  transition at x/c =  0.6810   61

   3   rms: 0.1189E+00   max: -.1824E+01   C at   61  2   RLX: 0.274
       a = -1.000      CL =  0.1577
      Cm = -0.0545     CD =  0.00794   =>   CDf =  0.00510    CDp =  0.00285

 Side 1  free  transition at x/c =  0.7499   63
 Side 2  free  transition at x/c =  0.6977   62

   4   rms: 0.7278E-01   max: -.1069E+01   C at   62  2   RLX: 0.468
       a = -1.000      CL =  0.1669
      Cm = -0.0543     CD =  0.00791   =>   CDf =  0.00507    CDp =  0.00284

 Side 1  free  transition at x/c =  0.7450   63
 Side 2  free  transition at x/c =  0.7217   63

   5   rms: 0.3076E-01   max: -.3670E+00   C at   63  2
       a = -1.000      CL =  0.1775
      Cm = -0.0538     CD =  0.00790   =>   CDf =  0.00505    CDp =  0.00285

 Side 1  free  transition at x/c =  0.7414   62
 Side 2  free  transition at x/c =  0.7815   67

   6   rms: 0.2309E-01   max: 0.3727E+00   C at   67  2
       a = -1.000      CL =  0.1762
      Cm = -0.0535     CD =  0.00782   =>   CDf =  0.00482    CDp =  0.00300

 Side 1  free  transition at x/c =  0.7408   62
 Side 2  free  transition at x/c =  0.7695   66

   7   rms: 0.2187E-02   max: 0.2636E-01   C at   66  2
       a = -1.000      CL =  0.1758
      Cm = -0.0534     CD =  0.00781   =>   CDf =  0.00486    CDp =  0.00295

 Side 1  free  transition at x/c =  0.7408   62
 Side 2  free  transition at x/c =  0.7676   66

   8   rms: 0.4203E-04   max: -.6657E-03   C at   66  2
       a = -1.000      CL =  0.1758
      Cm = -0.0534     CD =  0.00781   =>   CDf =  0.00487    CDp =  0.00294
 plradd ia,ip,cpol            7           0  3.48080113E-03

 Point added to stored polar  1
 Point written to save file  s3010_Re300k.base.pol                           
 Dump file unspecified or not available
 Calculating wake trajectory ...
 Calculating source influence matrix ...

 Solving BL system ...

 Side 1  free  transition at x/c =  0.7408   62
 Side 2  free  transition at x/c =  0.7676   66

   1   rms: 0.1412E+00   max: -.1874E+01   C at   66  2   RLX: 0.267
       a = -0.500      CL =  0.1887
      Cm = -0.0527     CD =  0.00771   =>   CDf =  0.00487    CDp =  0.00284

 Side 1  free  transition at x/c =  0.7324   62
 Side 2  free  transition at x/c =  0.8002   68

   2   rms: 0.7976E-01   max: -.7515E+00   C at   68  2   RLX: 0.665
       a = -0.500      CL =  0.2125
      Cm = -0.0514     CD =  0.00768   =>   CDf =  0.00484    CDp =  0.00283

 Side 1  free  transition at x/c =  0.7220   62
 Side 2  free  transition at x/c =  0.8777   72

   3   rms: 0.4781E-01   max: -.5267E+00   D at    2  1   RLX: 0.949
       a = -0.500      CL =  0.2212
      Cm = -0.0497     CD =  0.00748   =>   CDf =  0.00469    CDp =  0.00279

 Side 1  free  transition at x/c =  0.7147   62
 Side 2  free  transition at x/c =  0.8934   73

   4   rms: 0.1108E-01   max: -.1456E+00   C at   73  2
       a = -0.500      CL =  0.2218
      Cm = -0.0498     CD =  0.00753   =>   CDf =  0.00473    CDp =  0.00281

 Side 1  free  transition at x/c =  0.7158   62
 Side 2  free  transition at x/c =  0.9010   74

   5   rms: 0.1070E-02   max: -.1552E-01   D at   73  2
       a = -0.500      CL =  0.2220
      Cm = -0.0498     CD =  0.00754   =>   CDf =  0.00468    CDp =  0.00286

 Side 1  free  transition at x/c =  0.7157   62
 Side 2  free  transition at x/c =  0.9006   74

   6   rms: 0.2456E-04   max: 0.3853E-03   C at   74  2
       a = -0.500      CL =  0.2220
      Cm = -0.0498     CD =  0.00754   =>   CDf =  0.00468    CDp =  0.00286
 plradd ia,ip,cpol            8           0  0.18528590    

 Point added to stored polar  1
 Point written to save file  s3010_Re300k.base.pol                           
 Dump file unspecified or not available
 Calculating wake trajectory ...
 Calculating source influence matrix ...

 Solving BL system ...

 Side 1  free  transition at x/c =  0.7157   62
 Side 2  free  transition at x/c =  0.9006   74

   1   rms: 0.1463E+00   max: -.1816E+01   C at   74  2   RLX: 0.275
       a =  0.000      CL =  0.2372
      Cm = -0.0493     CD =  0.00747   =>   CDf =  0.00469    CDp =  0.00278

 Side 1  free  transition at x/c =  0.7098   61
 Side 2  free  transition at x/c =  0.9265   75

   2   rms: 0.6900E-01   max: -.2885E+00   T at   75  2
       a =  0.000      CL =  0.2721
      Cm = -0.0476     CD =  0.00747   =>   CDf =  0.00473    CDp =  0.00274

 Side 1  free  transition at x/c =  0.6857   60
 Side 2 forced transition at x/c =  1.0000   81

   3   rms: 0.5356E-01   max: 0.5791E+00   D at   76  2
       a =  0.000      CL =  0.3057
      Cm = -0.0552     CD =  0.00738   =>   CDf =  0.00503    CDp =  0.00236

 Side 1  free  transition at x/c =  0.6900   61
 Side 2 forced transition at x/c =  1.0000   80

   4   rms: 0.1620E-01   max: 0.1623E+00   C at   80  2
       a =  0.000      CL =  0.3063
      Cm = -0.0550     CD =  0.00743   =>   CDf =  0.00488    CDp =  0.00255

 Side 1  free  transition at x/c =  0.6883   61
 Side 2 forced transition at x/c =  1.0000   80

   5   rms: 0.3809E-02   max: 0.4306E-01   C at   80  2
       a =  0.000      CL =  0.3070
      Cm = -0.0551     CD =  0.00745   =>   CDf =  0.00488    CDp =  0.00258

 Side 1  free  transition at x/c =  0.6883   61
 Side 2 forced transition at x/c =  1.0000   80

   6   rms: 0.1817E-03   max: 0.2168E-02   C at   80  2
       a =  0.000      CL =  0.3070
      Cm = -0.0551     CD =  0.00746   =>   CDf =  0.00487    CDp =  0.00258

 Side 1  free  transition at x/c =  0.6883   61
 Side 2 forced transition at x/c =  1.0000   80

   7   rms: 0.1699E-05   max: -.1678E-04   D at    4  1
       a =  0.000      CL =  0.3070
      Cm = -0.0551     CD =  0.00746   =>   CDf =  0.00487    CDp =  0.00258
 plradd ia,ip,cpol            9           0  0.15720677    

 Point added to stored polar  1
 Point written to save file  s3010_Re300k.base.pol                           
 Dump file unspecified or not available
 Calculating wake trajectory ...
 Calculating source influence matrix ...

 Solving BL system ...

 Side 1  free  transition at x/c =  0.6883   61
 Side 2 forced transition at x/c =  1.0000   80

   1   rms: 0.9317E-01   max: -.3042E+00   C at   80  2
       a =  0.500      CL =  0.3572
      Cm = -0.0540     CD =  0.00762   =>   CDf =  0.00487    CDp =  0.00274

 Side 1  free  transition at x/c =  0.6619   59
 Side 2 forced transition at x/c =  1.0000   80

   2   rms: 0.2238E-01   max: -.3131E+00   D at   60  1
       a =  0.500      CL =  0.3586
      Cm = -0.0541     CD =  0.00759   =>   CDf =  0.00517    CDp =  0.00242

 Side 1  free  transition at x/c =  0.6629   59
 Side 2 forced transition at x/c =  1.0000   80

   3   rms: 0.3036E-02   max: 0.4093E-01   D at   60  1
       a =  0.500      CL =  0.3587
      Cm = -0.0542     CD =  0.00762   =>   CDf =  0.00512    CDp =  0.00249

 Side 1  free  transition at x/c =  0.6616   59
 Side 2 forced transition at x/c =  1.0000   80

   4   rms: 0.5397E-04   max: -.6747E-03   C at   59  1
       a =  0.500      CL =  0.3587
      Cm = -0.0542     CD =  0.00762   =>   CDf =  0.00513    CDp =  0.00249
 plradd ia,ip,cpol           10           0  0.14348006    

 Point added to stored polar  1
 Point written to save file  s3010_Re300k.base.pol                           
 Dump file unspecified or not available
 Calculating wake trajectory ...
 Calculating source influence matrix ...

 Solving BL system ...

 Side 1  free  transition at x/c =  0.6616   59
 Side 2 forced transition at x/c =  1.0000   80

   1   rms: 0.8758E-01   max: -.2242E+00   C at   80  2
       a =  1.000      CL =  0.4120
      Cm = -0.0536     CD =  0.00776   =>   CDf =  0.00516    CDp =  0.00259

 Side 1  free  transition at x/c =  0.6308   58
 Side 2 forced transition at x/c =  1.0000   79

   2   rms: 0.2347E-01   max: -.3492E+00   D at   59  1
       a =  1.000      CL =  0.4117
      Cm = -0.0534     CD =  0.00781   =>   CDf =  0.00543    CDp =  0.00238

 Side 1  free  transition at x/c =  0.6351   58
 Side 2 forced transition at x/c =  1.0000   79

   3   rms: 0.5248E-02   max: -.8226E-01   C at   58  1
       a =  1.000      CL =  0.4119
      Cm = -0.0535     CD =  0.00782   =>   CDf =  0.00542    CDp =  0.00240

 Side 1  free  transition at x/c =  0.6343   58
 Side 2 forced transition at x/c =  1.0000   79

   4   rms: 0.1276E-03   max: 0.1617E-02   C at   58  1
       a =  1.000      CL =  0.4119
      Cm = -0.0535     CD =  0.00782   =>   CDf =  0.00538    CDp =  0.00244

 Side 1  free  transition at x/c =  0.6342   58
 Side 2 forced transition at x/c =  1.0000   79

   5   rms: 0.9132E-06   max: 0.3676E-05   D at   63  1
       a =  1.000      CL =  0.4119
      Cm = -0.0535     CD =  0.00782   =>   CDf =  0.00538    CDp =  0.00244
 plradd ia,ip,cpol           11           0  0.12999494    

 Point added to stored polar  1
 Point written to save file  s3010_Re300k.base.pol                           
 Dump file unspecified or not available
 Calculating wake trajectory ...
 Calculating source influence matrix ...

 Solving BL system ...

 Side 1  free  transition at x/c =  0.6342   58
 Side 2 forced transition at x/c =  1.0000   79

   1   rms: 0.8609E-01   max: -.1815E+00   C at   79  2
       a =  1.500      CL =  0.4668
      Cm = -0.0532     CD =  0.00792   =>   CDf =  0.00539    CDp =  0.00253

 Side 1  free  transition at x/c =  0.5995   57
 Side 2 forced transition at x/c =  1.0000   78

   2   rms: 0.2706E-01   max: -.3859E+00   D at   58  1
       a =  1.500      CL =  0.4655
      Cm = -0.0528     CD =  0.00805   =>   CDf =  0.00567    CDp =  0.00238

 Side 1  free  transition at x/c =  0.6073   58
 Side 2 forced transition at x/c =  1.0000   78

   3   rms: 0.3463E-02   max: 0.5291E-01   D at   58  1
       a =  1.500      CL =  0.4658
      Cm = -0.0529     CD =  0.00805   =>   CDf =  0.00558    CDp =  0.00247

 Side 1  free  transition at x/c =  0.6058   58
 Side 2 forced transition at x/c =  1.0000   78

   4   rms: 0.4018E-03   max: 0.4595E-02   C at   58  1
       a =  1.500      CL =  0.4658
      Cm = -0.0529     CD =  0.00804   =>   CDf =  0.00558    CDp =  0.00246

 Side 1  free  transition at x/c =  0.6056   58
 Side 2 forced transition at x/c =  1.0000   78

   5   rms: 0.2767E-05   max: -.2828E-04   D at   60  1
       a =  1.500      CL =  0.4658
      Cm = -0.0529     CD =  0.00804   =>   CDf =  0.00558    CDp =  0.00246
 plradd ia,ip,cpol           12           0  0.11676393    

 Point added to stored polar  1
 Point written to save file  s3010_Re300k.base.pol                           
 Dump file unspecified or not available
 Calculating wake trajectory ...
 Calculating source influence matrix ...

 Solving BL system ...

 Side 1  free  transition at x/c =  0.6056   58
 Side 2 forced transition at x/c =  1.0000   78

   1   rms: 0.9073E-01   max: -.1549E+00   C at   78  2
       a =  2.000      CL =  0.5191
      Cm = -0.0521     CD =  0.00841   =>   CDf =  0.00559    CDp =  0.00283

 Side 1  free  transition at x/c =  0.5806   56
 Side 2 forced transition at x/c =  1.0000   78

   2   rms: 0.1598E-01   max: 0.1963E+00   D at   57  1
       a =  2.000      CL =  0.5201
      Cm = -0.0524     CD =  0.00829   =>   CDf =  0.00573    CDp =  0.00255

 Side 1  free  transition at x/c =  0.5764   56
 Side 2 forced transition at x/c =  1.0000   78

   3   rms: 0.9761E-03   max: 0.1214E-01   D at   58  1
       a =  2.000      CL =  0.5201
      Cm = -0.0524     CD =  0.00829   =>   CDf =  0.00576    CDp =  0.00253

 Side 1  free  transition at x/c =  0.5767   56
 Side 2 forced transition at x/c =  1.0000   78

   4   rms: 0.8405E-05   max: -.1749E-03   D at   58  1
       a =  2.000      CL =  0.5201
      Cm = -0.0524     CD =  0.00829   =>   CDf =  0.00576    CDp =  0.00254
 plradd ia,ip,cpol           13           0  0.10384559    

 Point added to stored polar  1
 Point written to save file  s3010_Re300k.base.pol                           
 Dump file unspecified or not available
 Calculating wake trajectory ...
 Calculating source influence matrix ...

 Solving BL system ...

 Side 1  free  transition at x/c =  0.5767   56
 Side 2 forced transition at x/c =  1.0000   78

   1   rms: 0.8920E-01   max: -.1399E+00   C at   78  2
       a =  2.500      CL =  0.5737
      Cm = -0.0518     CD =  0.00866   =>   CDf =  0.00573    CDp =  0.00293

 Side 1  free  transition at x/c =  0.5510   55
 Side 2 forced transition at x/c =  1.0000   77

   2   rms: 0.1789E-01   max: -.1922E+00   D at   58  1
       a =  2.500      CL =  0.5745
      Cm = -0.0520     CD =  0.00853   =>   CDf =  0.00590    CDp =  0.00263

 Side 1  free  transition at x/c =  0.5481   55
 Side 2 forced transition at x/c =  1.0000   77

   3   rms: 0.5581E-03   max: -.1113E-01   D at   58  1
       a =  2.500      CL =  0.5744
      Cm = -0.0520     CD =  0.00858   =>   CDf =  0.00590    CDp =  0.00267

 Side 1  free  transition at x/c =  0.5480   55
 Side 2 forced transition at x/c =  1.0000   77

   4   rms: 0.3984E-05   max: -.7686E-04   D at   58  1
       a =  2.500      CL =  0.5744
      Cm = -0.0520     CD =  0.00858   =>   CDf =  0.00591    CDp =  0.00267
 plradd ia,ip,cpol           14           0  9.13393572E-02

 Point added to stored polar  1
 Point written to save file  s3010_Re300k.base.pol                           
 Dump file unspecified or not available
 Calculating wake trajectory ...
 Calculating source influence matrix ...

 Solving BL system ...

 Side 1  free  transition at x/c =  0.5480   55
 Side 2 forced transition at x/c =  1.0000   77

   1   rms: 0.8817E-01   max: -.1277E+00   C at   77  2
       a =  3.000      CL =  0.6282
      Cm = -0.0514     CD =  0.00893   =>   CDf =  0.00591    CDp =  0.00302

 Side 1  free  transition at x/c =  0.5209   53
 Side 2 forced transition at x/c =  1.0000   77

   2   rms: 0.2583E-01   max: -.3330E+00   D at   54  1
       a =  3.000      CL =  0.6287
      Cm = -0.0515     CD =  0.00882   =>   CDf =  0.00606    CDp =  0.00277

 Side 1  free  transition at x/c =  0.5206   53
 Side 2 forced transition at x/c =  1.0000   77

   3   rms: 0.3290E-02   max: 0.4542E-01   C at   53  1
       a =  3.000      CL =  0.6287
      Cm = -0.0515     CD =  0.00889   =>   CDf =  0.00603    CDp =  0.00287

 Side 1  free  transition at x/c =  0.5192   53
 Side 2 forced transition at x/c =  1.0000   77

   4   rms: 0.7800E-04   max: -.1033E-02   D at   53  1
       a =  3.000      CL =  0.6287
      Cm = -0.0515     CD =  0.00889   =>   CDf =  0.00605    CDp =  0.00285
 plradd ia,ip,cpol           15           0  7.93425068E-02

 Point added to stored polar  1
 Point written to save file  s3010_Re300k.base.pol                           
 Dump file unspecified or not available
 Calculating wake trajectory ...
 Calculating source influence matrix ...

 Solving BL system ...

 Side 1  free  transition at x/c =  0.5192   53
 Side 2 forced transition at x/c =  1.0000   77

   1   rms: 0.8702E-01   max: -.1189E+00   C at   77  2
       a =  3.500      CL =  0.6826
      Cm = -0.0511     CD =  0.00925   =>   CDf =  0.00598    CDp =  0.00327

 Side 1  free  transition at x/c =  0.4901   52
 Side 2 forced transition at x/c =  1.0000   76

   2   rms: 0.2855E-01   max: -.3847E+00   D at   53  1
       a =  3.500      CL =  0.6826
      Cm = -0.0511     CD =  0.00917   =>   CDf =  0.00620    CDp =  0.00297

 Side 1  free  transition at x/c =  0.4921   52
 Side 2 forced transition at x/c =  1.0000   76

   3   rms: 0.4967E-02   max: 0.6987E-01   C at   52  1
       a =  3.500      CL =  0.6827
      Cm = -0.0511     CD =  0.00924   =>   CDf =  0.00614    CDp =  0.00310

 Side 1  free  transition at x/c =  0.4900   52
 Side 2 forced transition at x/c =  1.0000   76

   4   rms: 0.1412E-03   max: -.1851E-02   D at   52  1
       a =  3.500      CL =  0.6827
      Cm = -0.0511     CD =  0.00924   =>   CDf =  0.00617    CDp =  0.00308

 Side 1  free  transition at x/c =  0.4900   52
 Side 2 forced transition at x/c =  1.0000   76

   5   rms: 0.1224E-05   max: -.4870E-05   D at   79  1
       a =  3.500      CL =  0.6827
      Cm = -0.0511     CD =  0.00924   =>   CDf =  0.00617    CDp =  0.00308
 plradd ia,ip,cpol           16           0  6.79383501E-02

 Point added to stored polar  1
 Point written to save file  s3010_Re300k.base.pol                           
 Dump file unspecified or not available
 Calculating wake trajectory ...
 Calculating source influence matrix ...

 Solving BL system ...

 Side 1  free  transition at x/c =  0.4900   52
 Side 2 forced transition at x/c =  1.0000   76

   1   rms: 0.8667E-01   max: -.1112E+00   C at   76  2
       a =  4.000      CL =  0.7367
      Cm = -0.0507     CD =  0.00960   =>   CDf =  0.00607    CDp =  0.00353

 Side 1  free  transition at x/c =  0.4596   51
 Side 2 forced transition at x/c =  1.0000   75

   2   rms: 0.2526E-01   max: -.3011E+00   D at   52  1
       a =  4.000      CL =  0.7363
      Cm = -0.0506     CD =  0.00958   =>   CDf =  0.00632    CDp =  0.00326

 Side 1  free  transition at x/c =  0.4616   51
 Side 2 forced transition at x/c =  1.0000   75

   3   rms: 0.3343E-02   max: 0.4587E-01   C at   51  1
       a =  4.000      CL =  0.7365
      Cm = -0.0507     CD =  0.00963   =>   CDf =  0.00625    CDp =  0.00338

 Side 1  free  transition at x/c =  0.4602   51
 Side 2 forced transition at x/c =  1.0000   75

   4   rms: 0.5934E-04   max: -.7356E-03   D at   51  1
       a =  4.000      CL =  0.7365
      Cm = -0.0507     CD =  0.00963   =>   CDf =  0.00627    CDp =  0.00336
 plradd ia,ip,cpol           17           0  4.76593822E-02

 Point added to stored polar  1
 Point written to save file  s3010_Re300k.base.pol                           
 Dump file unspecified or not available
 Calculating wake trajectory ...
 Calculating source influence matrix ...

 Solving BL system ...

 Side 1  free  transition at x/c =  0.4602   51
 Side 2 forced transition at x/c =  1.0000   75

   1   rms: 0.8631E-01   max: -.1054E+00   C at   75  2
       a =  4.500      CL =  0.7903
      Cm = -0.0503     CD =  0.01001   =>   CDf =  0.00627    CDp =  0.00374

 Side 1  free  transition at x/c =  0.4294   49
 Side 2 forced transition at x/c =  1.0000   75

   2   rms: 0.1322E-01   max: -.1650E+00   D at   49  1
       a =  4.500      CL =  0.7898
      Cm = -0.0502     CD =  0.01006   =>   CDf =  0.00643    CDp =  0.00362

 Side 1  free  transition at x/c =  0.4311   49
 Side 2 forced transition at x/c =  1.0000   75

   3   rms: 0.2169E-02   max: 0.3085E-01   C at   49  1
       a =  4.500      CL =  0.7899
      Cm = -0.0502     CD =  0.01005   =>   CDf =  0.00635    CDp =  0.00369

 Side 1  free  transition at x/c =  0.4303   49
 Side 2 forced transition at x/c =  1.0000   75

   4   rms: 0.2164E-04   max: -.3154E-03   D at   51  1
       a =  4.500      CL =  0.7899
      Cm = -0.0502     CD =  0.01005   =>   CDf =  0.00637    CDp =  0.00368
 plradd ia,ip,cpol           18           0  4.76593822E-02

 Point added to stored polar  1
 Point written to save file  s3010_Re300k.base.pol                           
 Dump file unspecified or not available
 Calculating wake trajectory ...
 Calculating source influence matrix ...

 Solving BL system ...

 Side 1  free  transition at x/c =  0.4303   49
 Side 2 forced transition at x/c =  1.0000   75

   1   rms: 0.8655E-01   max: -.9976E-01   C at   75  2
       a =  5.000      CL =  0.8434
      Cm = -0.0498     CD =  0.01046   =>   CDf =  0.00623    CDp =  0.00423

 Side 1  free  transition at x/c =  0.3979   48
 Side 2 forced transition at x/c =  1.0000   74

   2   rms: 0.1734E-01   max: 0.2527E+00   D at   49  1
       a =  5.000      CL =  0.8426
      Cm = -0.0497     CD =  0.01054   =>   CDf =  0.00652    CDp =  0.00402

 Side 1  free  transition at x/c =  0.4002   48
 Side 2 forced transition at x/c =  1.0000   74

   3   rms: 0.3319E-02   max: 0.4603E-01   C at   48  1
       a =  5.000      CL =  0.8428
      Cm = -0.0498     CD =  0.01052   =>   CDf =  0.00643    CDp =  0.00409

 Side 1  free  transition at x/c =  0.3991   48
 Side 2 forced transition at x/c =  1.0000   74

   4   rms: 0.3890E-04   max: -.4970E-03   D at   50  1
       a =  5.000      CL =  0.8428
      Cm = -0.0498     CD =  0.01052   =>   CDf =  0.00644    CDp =  0.00407
 plradd ia,ip,cpol           19           0  3.91255431E-02

 Point added to stored polar  1
 Point written to save file  s3010_Re300k.base.pol                           
 Dump file unspecified or not available
 Calculating wake trajectory ...
 Calculating source influence matrix ...

 Solving BL system ...

 Side 1  free  transition at x/c =  0.3991   48
 Side 2 forced transition at x/c =  1.0000   74

   1   rms: 0.8821E-01   max: -.9591E-01   C at   74  2
       a =  5.500      CL =  0.8956
      Cm = -0.0493     CD =  0.01100   =>   CDf =  0.00645    CDp =  0.00455

 Side 1  free  transition at x/c =  0.3669   46
 Side 2 forced transition at x/c =  1.0000   74

   2   rms: 0.1739E-01   max: 0.2802E+00   D at   47  1
       a =  5.500      CL =  0.8950
      Cm = -0.0492     CD =  0.01107   =>   CDf =  0.00658    CDp =  0.00449

 Side 1  free  transition at x/c =  0.3681   46
 Side 2 forced transition at x/c =  1.0000   74

   3   rms: 0.2845E-02   max: 0.4147E-01   C at   46  1
       a =  5.500      CL =  0.8952
      Cm = -0.0492     CD =  0.01104   =>   CDf =  0.00651    CDp =  0.00453

 Side 1  free  transition at x/c =  0.3671   46
 Side 2 forced transition at x/c =  1.0000   74

   4   rms: 0.3252E-04   max: -.4470E-03   D at   47  1
       a =  5.500      CL =  0.8952
      Cm = -0.0492     CD =  0.01104   =>   CDf =  0.00652    CDp =  0.00451
 plradd ia,ip,cpol           20           0  3.16578858E-02

 Point added to stored polar  1
 Point written to save file  s3010_Re300k.base.pol                           
 Dump file unspecified or not available
 Calculating wake trajectory ...
 Calculating source influence matrix ...

 Solving BL system ...

 Side 1  free  transition at x/c =  0.3671   46
 Side 2 forced transition at x/c =  1.0000   74

   1   rms: 0.9167E-01   max: 0.4857E+00   C at   46  1
       a =  6.000      CL =  0.9468
      Cm = -0.0487     CD =  0.01164   =>   CDf =  0.00634    CDp =  0.00530

 Side 1  free  transition at x/c =  0.3343   45
 Side 2 forced transition at x/c =  1.0000   73

   2   rms: 0.2344E-01   max: 0.3053E+00   D at   46  1
       a =  6.000      CL =  0.9464
      Cm = -0.0486     CD =  0.01167   =>   CDf =  0.00664    CDp =  0.00504

 Side 1  free  transition at x/c =  0.3346   45
 Side 2 forced transition at x/c =  1.0000   73

   3   rms: 0.2985E-02   max: 0.3512E-01   C at   45  1
       a =  6.000      CL =  0.9466
      Cm = -0.0487     CD =  0.01164   =>   CDf =  0.00659    CDp =  0.00505

 Side 1  free  transition at x/c =  0.3338   45
 Side 2 forced transition at x/c =  1.0000   73

   4   rms: 0.5427E-04   max: -.1176E-02   D at   46  1
       a =  6.000      CL =  0.9466
      Cm = -0.0487     CD =  0.01164   =>   CDf =  0.00660    CDp =  0.00503
 plradd ia,ip,cpol           21           0  2.00656094E-02

 Point added to stored polar  1
 Point written to save file  s3010_Re300k.base.pol                           
 Dump file unspecified or not available
 Calculating wake trajectory ...
 Calculating source influence matrix ...

 Solving BL system ...

 Side 1  free  transition at x/c =  0.3338   45
 Side 2 forced transition at x/c =  1.0000   73

   1   rms: 0.9631E-01   max: 0.5810E+00   C at   45  1   RLX: 0.941
       a =  6.500      CL =  0.9933
      Cm = -0.0479     CD =  0.01243   =>   CDf =  0.00640    CDp =  0.00603

 Side 1  free  transition at x/c =  0.3044   44
 Side 2 forced transition at x/c =  1.0000   72

   2   rms: 0.2380E-01   max: -.2699E+00   D at   44  1
       a =  6.500      CL =  0.9971
      Cm = -0.0480     CD =  0.01234   =>   CDf =  0.00667    CDp =  0.00567

 Side 1  free  transition at x/c =  0.3009   43
 Side 2 forced transition at x/c =  1.0000   72

   3   rms: 0.1882E-02   max: -.1799E-01   D at    4  1
       a =  6.500      CL =  0.9973
      Cm = -0.0480     CD =  0.01232   =>   CDf =  0.00668    CDp =  0.00564

 Side 1  free  transition at x/c =  0.3004   43
 Side 2 forced transition at x/c =  1.0000   72

   4   rms: 0.1402E-04   max: -.1398E-03   C at   43  1
       a =  6.500      CL =  0.9973
      Cm = -0.0480     CD =  0.01232   =>   CDf =  0.00667    CDp =  0.00564
 plradd ia,ip,cpol           22           0  1.58782396E-02

 Point added to stored polar  1
 Point written to save file  s3010_Re300k.base.pol                           
 Dump file unspecified or not available
 Calculating wake trajectory ...
 Calculating source influence matrix ...

 Solving BL system ...

 Side 1  free  transition at x/c =  0.3004   43
 Side 2 forced transition at x/c =  1.0000   72

   1   rms: 0.8443E-01   max: 0.3457E+00   T at   43  1
       a =  7.000      CL =  1.0504
      Cm = -0.0476     CD =  0.01275   =>   CDf =  0.00668    CDp =  0.00608

 Side 1  free  transition at x/c =  0.2632   41
 Side 2 forced transition at x/c =  1.0000   72

   2   rms: 0.2107E-01   max: 0.2822E+00   D at   42  1
       a =  7.000      CL =  1.0469
      Cm = -0.0473     CD =  0.01307   =>   CDf =  0.00683    CDp =  0.00624

 Side 1  free  transition at x/c =  0.2684   41
 Side 2 forced transition at x/c =  1.0000   72

   3   rms: 0.4714E-02   max: 0.7564E-01   C at   41  1
       a =  7.000      CL =  1.0471
      Cm = -0.0473     CD =  0.01306   =>   CDf =  0.00671    CDp =  0.00635

 Side 1  free  transition at x/c =  0.2666   41
 Side 2 forced transition at x/c =  1.0000   72

   4   rms: 0.1097E-03   max: -.1343E-02   D at   41  1
       a =  7.000      CL =  1.0471
      Cm = -0.0473     CD =  0.01306   =>   CDf =  0.00673    CDp =  0.00633

 Side 1  free  transition at x/c =  0.2666   41
 Side 2 forced transition at x/c =  1.0000   72

   5   rms: 0.1099E-05   max: 0.3902E-05   C at   41  1
       a =  7.000      CL =  1.0471
      Cm = -0.0473     CD =  0.01306   =>   CDf =  0.00673    CDp =  0.00633
 plradd ia,ip,cpol           23           0  1.58782396E-02

 Point added to stored polar  1
 Point written to save file  s3010_Re300k.base.pol                           
 Dump file unspecified or not available
 Calculating wake trajectory ...
 Calculating source influence matrix ...

 Solving BL system ...

 Side 1  free  transition at x/c =  0.2666   41
 Side 2 forced transition at x/c =  1.0000   72

   1   rms: 0.8884E-01   max: 0.4457E+00   C at   41  1
       a =  7.500      CL =  1.0972
      Cm = -0.0466     CD =  0.01380   =>   CDf =  0.00648    CDp =  0.00732

 Side 1  free  transition at x/c =  0.2336   40
 Side 2 forced transition at x/c =  1.0000   71

   2   rms: 0.2187E-01   max: 0.3076E+00   D at   41  1
       a =  7.500      CL =  1.0953
      Cm = -0.0464     CD =  0.01395   =>   CDf =  0.00685    CDp =  0.00710

 Side 1  free  transition at x/c =  0.2354   40
 Side 2 forced transition at x/c =  1.0000   71

   3   rms: 0.4174E-02   max: 0.5941E-01   C at   40  1
       a =  7.500      CL =  1.0955
      Cm = -0.0464     CD =  0.01392   =>   CDf =  0.00676    CDp =  0.00716

 Side 1  free  transition at x/c =  0.2342   40
 Side 2 forced transition at x/c =  1.0000   71

   4   rms: 0.7602E-04   max: -.1509E-02   D at   41  1
       a =  7.500      CL =  1.0955
      Cm = -0.0464     CD =  0.01392   =>   CDf =  0.00678    CDp =  0.00714
 plradd ia,ip,cpol           24           0  1.24799591E-02

 Point added to stored polar  1
 Point written to save file  s3010_Re300k.base.pol                           
 Dump file unspecified or not available
 Calculating wake trajectory ...
 Calculating source influence matrix ...

 Solving BL system ...

 Side 1  free  transition at x/c =  0.2341   40
 Side 2 forced transition at x/c =  1.0000   71

   1   rms: 0.9351E-01   max: 0.5646E+00   C at   40  1
       a =  8.000      CL =  1.1429
      Cm = -0.0455     CD =  0.01490   =>   CDf =  0.00679    CDp =  0.00812

 Side 1  free  transition at x/c =  0.2041   38
 Side 2 forced transition at x/c =  1.0000   71

   2   rms: 0.2430E-01   max: 0.3243E+00   D at   39  1
       a =  8.000      CL =  1.1423
      Cm = -0.0454     CD =  0.01492   =>   CDf =  0.00688    CDp =  0.00803

 Side 1  free  transition at x/c =  0.2040   38
 Side 2 forced transition at x/c =  1.0000   71

   3   rms: 0.3427E-02   max: 0.4373E-01   C at   38  1
       a =  8.000      CL =  1.1424
      Cm = -0.0454     CD =  0.01489   =>   CDf =  0.00683    CDp =  0.00806

 Side 1  free  transition at x/c =  0.2031   38
 Side 2 forced transition at x/c =  1.0000   71

   4   rms: 0.6002E-04   max: -.1078E-02   D at   39  1
       a =  8.000      CL =  1.1424
      Cm = -0.0454     CD =  0.01489   =>   CDf =  0.00685    CDp =  0.00804
 plradd ia,ip,cpol           25           0  6.59874408E-04

 Point added to stored polar  1
 Point written to save file  s3010_Re300k.base.pol                           
 Dump file unspecified or not available
 Calculating wake trajectory ...
 Calculating source influence matrix ...

 Solving BL system ...

 Side 1  free  transition at x/c =  0.2031   38
 Side 2 forced transition at x/c =  1.0000   71

   1   rms: 0.9700E-01   max: 0.5650E+00   C at   38  1   RLX: 0.906
       a =  8.500      CL =  1.1828
      Cm = -0.0443     CD =  0.01602   =>   CDf =  0.00657    CDp =  0.00945

 Side 1  free  transition at x/c =  0.1797   37
 Side 2 forced transition at x/c =  1.0000   70

   2   rms: 0.2561E-01   max: 0.2947E+00   D at   38  1
       a =  8.500      CL =  1.1881
      Cm = -0.0443     CD =  0.01595   =>   CDf =  0.00689    CDp =  0.00906

 Side 1  free  transition at x/c =  0.1748   37
 Side 2 forced transition at x/c =  1.0000   70

   3   rms: 0.1184E-02   max: 0.1497E-01   D at   38  1
       a =  8.500      CL =  1.1878
      Cm = -0.0443     CD =  0.01596   =>   CDf =  0.00688    CDp =  0.00908

 Side 1  free  transition at x/c =  0.1748   37
 Side 2 forced transition at x/c =  1.0000   70

   4   rms: 0.6985E-05   max: -.1095E-03   D at   38  1
       a =  8.500      CL =  1.1878
      Cm = -0.0443     CD =  0.01596   =>   CDf =  0.00688    CDp =  0.00908
 plradd ia,ip,cpol           26           0  6.59874408E-04

 Point added to stored polar  1
 Point written to save file  s3010_Re300k.base.pol                           
 Dump file unspecified or not available
 Calculating wake trajectory ...
 Calculating source influence matrix ...

 Solving BL system ...

 Side 1  free  transition at x/c =  0.1748   37
 Side 2 forced transition at x/c =  1.0000   70

   1   rms: 0.9599E-01   max: -.5628E+00   D at   37  1   RLX: 0.888
       a =  9.000      CL =  1.2254
      Cm = -0.0430     CD =  0.01719   =>   CDf =  0.00688    CDp =  0.01031

 Side 1  free  transition at x/c =  0.1545   35
 Side 2 forced transition at x/c =  1.0000   70

   2   rms: 0.2596E-01   max: 0.3063E+00   D at   36  1
       a =  9.000      CL =  1.2316
      Cm = -0.0429     CD =  0.01712   =>   CDf =  0.00693    CDp =  0.01019

 Side 1  free  transition at x/c =  0.1497   35
 Side 2 forced transition at x/c =  1.0000   70

   3   rms: 0.1113E-02   max: -.1706E-01   D at   37  1
       a =  9.000      CL =  1.2313
      Cm = -0.0429     CD =  0.01712   =>   CDf =  0.00689    CDp =  0.01024

 Side 1  free  transition at x/c =  0.1494   35
 Side 2 forced transition at x/c =  1.0000   70

   4   rms: 0.1118E-04   max: 0.3076E-04   U at   37  1
       a =  9.000      CL =  1.2313
      Cm = -0.0429     CD =  0.01712   =>   CDf =  0.00689    CDp =  0.01023
 plradd ia,ip,cpol           27           0  6.59874408E-04

 Point added to stored polar  1
 Point written to save file  s3010_Re300k.base.pol                           
 Dump file unspecified or not available
 Calculating wake trajectory ...
 Calculating source influence matrix ...

 Solving BL system ...

 Side 1  free  transition at x/c =  0.1494   35
 Side 2 forced transition at x/c =  1.0000   70

   1   rms: 0.9009E-01   max: -.4698E+00   D at   35  1
       a =  9.500      CL =  1.2737
      Cm = -0.0414     CD =  0.01844   =>   CDf =  0.00657    CDp =  0.01186

 Side 1  free  transition at x/c =  0.1289   34
 Side 2 forced transition at x/c =  1.0000   69

   2   rms: 0.2280E-01   max: 0.3204E+00   D at   35  1
       a =  9.500      CL =  1.2711
      Cm = -0.0411     CD =  0.01854   =>   CDf =  0.00696    CDp =  0.01159

 Side 1  free  transition at x/c =  0.1282   34
 Side 2 forced transition at x/c =  1.0000   69

   3   rms: 0.2403E-02   max: -.2338E-01   D at   36  1
       a =  9.500      CL =  1.2717
      Cm = -0.0412     CD =  0.01849   =>   CDf =  0.00689    CDp =  0.01160

 Side 1  free  transition at x/c =  0.1273   34
 Side 2 forced transition at x/c =  1.0000   69

   4   rms: 0.7518E-04   max: -.7984E-03   C at   34  1
       a =  9.500      CL =  1.2716
      Cm = -0.0412     CD =  0.01849   =>   CDf =  0.00689    CDp =  0.01159
 plradd ia,ip,cpol           28           0  6.59874408E-04

 Point added to stored polar  1
 Point written to save file  s3010_Re300k.base.pol                           
 Dump file unspecified or not available
 Calculating wake trajectory ...
 Calculating source influence matrix ...

 Solving BL system ...

 Side 1  free  transition at x/c =  0.1274   34
 Side 2 forced transition at x/c =  1.0000   69

   1   rms: 0.8273E-01   max: 0.4835E+00   T at   34  1
       a = 10.000      CL =  1.3169
      Cm = -0.0399     CD =  0.01945   =>   CDf =  0.00690    CDp =  0.01255

 Side 1  free  transition at x/c =  0.1057   33
 Side 2 forced transition at x/c =  1.0000   69

   2   rms: 0.5330E-01   max: -.5287E+00   D at   33  1   RLX: 0.946
       a = 10.000      CL =  1.3068
      Cm = -0.0389     CD =  0.01980   =>   CDf =  0.00690    CDp =  0.01290

 Side 1  free  transition at x/c =  0.1094   33
 Side 2 forced transition at x/c =  1.0000   69

   3   rms: 0.8329E-02   max: -.8955E-01   D at   34  1
       a = 10.000      CL =  1.3100
      Cm = -0.0393     CD =  0.01989   =>   CDf =  0.00684    CDp =  0.01306

 Side 1  free  transition at x/c =  0.1069   33
 Side 2 forced transition at x/c =  1.0000   69

   4   rms: 0.8953E-03   max: -.5556E-02   T at   33  1
       a = 10.000      CL =  1.3095
      Cm = -0.0392     CD =  0.01992   =>   CDf =  0.00689    CDp =  0.01304

 Side 1  free  transition at x/c =  0.1070   33
 Side 2 forced transition at x/c =  1.0000   69

   5   rms: 0.1592E-04   max: -.9092E-04   D at   33  1
       a = 10.000      CL =  1.3095
      Cm = -0.0392     CD =  0.01992   =>   CDf =  0.00688    CDp =  0.01304
 plradd ia,ip,cpol           29           0  6.59874408E-04

 Point added to stored polar  1
 Point written to save file  s3010_Re300k.base.pol                           
 Dump file unspecified or not available

.OPERva   c>  
 Solving BL system ...

 Side 1  free  transition at x/c =  0.1070   33
 Side 2 forced transition at x/c =  1.0000   69

   1   rms: 0.4822E-06   max: -.2135E-05   D at   90  1
       a = 10.000      CL =  1.3095
      Cm = -0.0392     CD =  0.01992   =>   CDf =  0.00688    CDp =  0.01304
 plradd ia,ip,cpol           30         182  6.59874408E-04

 Point added to stored polar  1
 Point written to save file  s3010_Re300k.base.pol                           
 Dump file unspecified or not available
 Calculating wake trajectory ...
 Calculating source influence matrix ...

 Solving BL system ...

 Side 1  free  transition at x/c =  0.1070   33
 Side 2 forced transition at x/c =  1.0000   69

   1   rms: 0.4683E-01   max: -.3108E+00   D at   33  1
       a = 10.250      CL =  1.3257
      Cm = -0.0380     CD =  0.02090   =>   CDf =  0.00689    CDp =  0.01402

 Side 1  free  transition at x/c =  0.0992   32
 Side 2 forced transition at x/c =  1.0000   69

   2   rms: 0.1960E-01   max: -.1874E+00   D at   32  1
       a = 10.250      CL =  1.3275
      Cm = -0.0381     CD =  0.02058   =>   CDf =  0.00685    CDp =  0.01373

 Side 1  free  transition at x/c =  0.0983   32
 Side 2 forced transition at x/c =  1.0000   69

   3   rms: 0.1125E-02   max: -.1294E-01   D at   33  1
       a = 10.250      CL =  1.3273
      Cm = -0.0381     CD =  0.02068   =>   CDf =  0.00684    CDp =  0.01383

 Side 1  free  transition at x/c =  0.0981   32
 Side 2 forced transition at x/c =  1.0000   69

   4   rms: 0.2159E-04   max: -.1614E-03   D at   33  1
       a = 10.250      CL =  1.3273
      Cm = -0.0381     CD =  0.02068   =>   CDf =  0.00685    CDp =  0.01383
 plradd ia,ip,cpol           31           0  6.59874408E-04

 Point added to stored polar  1
 Point written to save file  s3010_Re300k.base.pol                           
 Dump file unspecified or not available
 Calculating wake trajectory ...
 Calculating source influence matrix ...

 Solving BL system ...

 Side 1  free  transition at x/c =  0.0981   32
 Side 2 forced transition at x/c =  1.0000   69

   1   rms: 0.4210E-01   max: 0.2330E+00   T at   32  1
       a = 10.500      CL =  1.3455
      Cm = -0.0371     CD =  0.02141   =>   CDf =  0.00649    CDp =  0.01492

 Side 1  free  transition at x/c =  0.0894   32
 Side 2 forced transition at x/c =  1.0000   68

   2   rms: 0.1008E-01   max: -.9246E-01   D at   32  1
       a = 10.500      CL =  1.3417
      Cm = -0.0367     CD =  0.02158   =>   CDf =  0.00687    CDp =  0.01471

 Side 1  free  transition at x/c =  0.0900   32
 Side 2 forced transition at x/c =  1.0000   68

   3   rms: 0.1068E-02   max: -.1106E-01   D at    4  1
       a = 10.500      CL =  1.3421
      Cm = -0.0367     CD =  0.02158   =>   CDf =  0.00686    CDp =  0.01472

 Side 1  free  transition at x/c =  0.0899   32
 Side 2 forced transition at x/c =  1.0000   68

   4   rms: 0.3539E-05   max: -.1665E-04   T at   32  1
       a = 10.500      CL =  1.3421
      Cm = -0.0367     CD =  0.02158   =>   CDf =  0.00686    CDp =  0.01472
 plradd ia,ip,cpol           32           0  6.59874408E-04

 Point added to stored polar  1
 Point written to save file  s3010_Re300k.base.pol                           
 Dump file unspecified or not available
 Calculating wake trajectory ...
 Calculating source influence matrix ...

 Solving BL system ...

 Side 1  free  transition at x/c =  0.0899   32
 Side 2 forced transition at x/c =  1.0000   68

   1   rms: 0.4036E-01   max: 0.2484E+00   T at   32  1
       a = 10.750      CL =  1.3630
      Cm = -0.0359     CD =  0.02207   =>   CDf =  0.00686    CDp =  0.01521

 Side 1  free  transition at x/c =  0.0807   32
 Side 2 forced transition at x/c =  1.0000   68

   2   rms: 0.1073E-01   max: 0.4795E-01   D at   33  1
       a = 10.750      CL =  1.3589
      Cm = -0.0355     CD =  0.02226   =>   CDf =  0.00686    CDp =  0.01540

 Side 1  free  transition at x/c =  0.0824   32
 Side 2 forced transition at x/c =  1.0000   68

   3   rms: 0.6513E-03   max: -.6847E-02   D at   33  1
       a = 10.750      CL =  1.3585
      Cm = -0.0355     CD =  0.02232   =>   CDf =  0.00682    CDp =  0.01550

 Side 1  free  transition at x/c =  0.0823   32
 Side 2 forced transition at x/c =  1.0000   68

   4   rms: 0.1183E-04   max: 0.5336E-04   D at   32  1
       a = 10.750      CL =  1.3584
      Cm = -0.0355     CD =  0.02232   =>   CDf =  0.00682    CDp =  0.01550
 plradd ia,ip,cpol           33           0  6.59874408E-04

 Point added to stored polar  1
 Point written to save file  s3010_Re300k.base.pol                           
 Dump file unspecified or not available
 Calculating wake trajectory ...
 Calculating source influence matrix ...

 Solving BL system ...

 Side 1  free  transition at x/c =  0.0823   32
 Side 2 forced transition at x/c =  1.0000   68

   1   rms: 0.4391E-01   max: -.2856E+00   D at   32  1
       a = 11.000      CL =  1.3707
      Cm = -0.0339     CD =  0.02341   =>   CDf =  0.00682    CDp =  0.01659

 Side 1  free  transition at x/c =  0.0762   31
 Side 2 forced transition at x/c =  1.0000   68

   2   rms: 0.1624E-01   max: -.1454E+00   D at   31  1
       a = 11.000      CL =  1.3712
      Cm = -0.0338     CD =  0.02311   =>   CDf =  0.00678    CDp =  0.01633

 Side 1  free  transition at x/c =  0.0759   31
 Side 2 forced transition at x/c =  1.0000   68

   3   rms: 0.9638E-03   max: -.1076E-01   D at   32  1
       a = 11.000      CL =  1.3716
      Cm = -0.0339     CD =  0.02317   =>   CDf =  0.00677    CDp =  0.01640

 Side 1  free  transition at x/c =  0.0757   31
 Side 2 forced transition at x/c =  1.0000   68

   4   rms: 0.2424E-04   max: 0.1203E-03   D at   93  1
       a = 11.000      CL =  1.3716
      Cm = -0.0339     CD =  0.02317   =>   CDf =  0.00677    CDp =  0.01640
 plradd ia,ip,cpol           34           0  2.21260998E-04

 Point added to stored polar  1
 Point written to save file  s3010_Re300k.base.pol                           
 Dump file unspecified or not available
 Calculating wake trajectory ...
 Calculating source influence matrix ...

 Solving BL system ...

 Side 1  free  transition at x/c =  0.0757   31
 Side 2 forced transition at x/c =  1.0000   68

   1   rms: 0.3712E-01   max: 0.2010E+00   T at   31  1
       a = 11.250      CL =  1.3868
      Cm = -0.0324     CD =  0.02386   =>   CDf =  0.00677    CDp =  0.01709

 Side 1  free  transition at x/c =  0.0691   31
 Side 2 forced transition at x/c =  1.0000   68

   2   rms: 0.7273E-02   max: -.4300E-01   T at   31  1
       a = 11.250      CL =  1.3818
      Cm = -0.0319     CD =  0.02404   =>   CDf =  0.00679    CDp =  0.01726

 Side 1  free  transition at x/c =  0.0702   31
 Side 2 forced transition at x/c =  1.0000   68

   3   rms: 0.5024E-03   max: -.2838E-02   D at   32  1
       a = 11.250      CL =  1.3815
      Cm = -0.0318     CD =  0.02408   =>   CDf =  0.00676    CDp =  0.01732

 Side 1  free  transition at x/c =  0.0701   31
 Side 2 forced transition at x/c =  1.0000   68

   4   rms: 0.1861E-04   max: 0.7379E-04   D at   31  1
       a = 11.250      CL =  1.3815
      Cm = -0.0318     CD =  0.02408   =>   CDf =  0.00676    CDp =  0.01732
 plradd ia,ip,cpol           35           0  6.59874408E-04

 Point added to stored polar  1
 Point written to save file  s3010_Re300k.base.pol                           
 Dump file unspecified or not available
 Calculating wake trajectory ...
 Calculating source influence matrix ...

 Solving BL system ...

 Side 1  free  transition at x/c =  0.0701   31
 Side 2 forced transition at x/c =  1.0000   68

   1   rms: 0.4083E-01   max: -.2098E+00   D at   31  1
       a = 11.500      CL =  1.3874
      Cm = -0.0295     CD =  0.02536   =>   CDf =  0.00676    CDp =  0.01860

 Side 1  free  transition at x/c =  0.0662   30
 Side 2 forced transition at x/c =  1.0000   68

   2   rms: 0.1218E-01   max: -.1065E+00   D at   31  1
       a = 11.500      CL =  1.3893
      Cm = -0.0297     CD =  0.02509   =>   CDf =  0.00670    CDp =  0.01839

 Side 1  free  transition at x/c =  0.0657   30
 Side 2 forced transition at x/c =  1.0000   68

   3   rms: 0.6874E-03   max: -.5114E-02   D at   31  1
       a = 11.500      CL =  1.3896
      Cm = -0.0297     CD =  0.02513   =>   CDf =  0.00669    CDp =  0.01844

 Side 1  free  transition at x/c =  0.0656   30
 Side 2 forced transition at x/c =  1.0000   68

   4   rms: 0.1345E-04   max: 0.7566E-04   D at   88  1
       a = 11.500      CL =  1.3896
      Cm = -0.0297     CD =  0.02513   =>   CDf =  0.00669    CDp =  0.01844
 plradd ia,ip,cpol           36           0  2.21260998E-04

 Point added to stored polar  1
 Point written to save file  s3010_Re300k.base.pol                           
 Dump file unspecified or not available
 Calculating wake trajectory ...
 Calculating source influence matrix ...

 Solving BL system ...

 Side 1  free  transition at x/c =  0.0656   30
 Side 2 forced transition at x/c =  1.0000   68

   1   rms: 0.3524E-01   max: 0.1623E+00   T at   30  1
       a = 11.750      CL =  1.4023
      Cm = -0.0282     CD =  0.02603   =>   CDf =  0.00628    CDp =  0.01975

 Side 1  free  transition at x/c =  0.0610   31
 Side 2 forced transition at x/c =  1.0000   67

   2   rms: 0.8344E-02   max: -.9809E-01   D at    2  1
       a = 11.750      CL =  1.3990
      Cm = -0.0280     CD =  0.02615   =>   CDf =  0.00661    CDp =  0.01954

 Side 1  free  transition at x/c =  0.0615   31
 Side 2 forced transition at x/c =  1.0000   67

   3   rms: 0.9895E-03   max: -.1233E-01   D at    4  1
       a = 11.750      CL =  1.3992
      Cm = -0.0280     CD =  0.02615   =>   CDf =  0.00660    CDp =  0.01955

 Side 1  free  transition at x/c =  0.0615   31
 Side 2 forced transition at x/c =  1.0000   67

   4   rms: 0.2029E-05   max: 0.2577E-04   C at   67  2
       a = 11.750      CL =  1.3992
      Cm = -0.0280     CD =  0.02615   =>   CDf =  0.00660    CDp =  0.01955
 plradd ia,ip,cpol           37           0  2.21260998E-04

 Point added to stored polar  1
 Point written to save file  s3010_Re300k.base.pol                           
 Dump file unspecified or not available
 Calculating wake trajectory ...
 Calculating source influence matrix ...

 Solving BL system ...

 Side 1  free  transition at x/c =  0.0615   31
 Side 2 forced transition at x/c =  1.0000   67

   1   rms: 0.3792E-01   max: -.1646E+00   D at   31  1
       a = 12.000      CL =  1.4077
      Cm = -0.0264     CD =  0.02738   =>   CDf =  0.00660    CDp =  0.02079

 Side 1  free  transition at x/c =  0.0574   31
 Side 2 forced transition at x/c =  1.0000   67

   2   rms: 0.7835E-02   max: 0.4084E-01   D at   86  1
       a = 12.000      CL =  1.4018
      Cm = -0.0260     CD =  0.02771   =>   CDf =  0.00660    CDp =  0.02111

 Side 1  free  transition at x/c =  0.0576   31
 Side 2 forced transition at x/c =  1.0000   67

[...]
       a = 13.000      CL =  1.4328
      Cm = -0.0217     CD =  0.03351   =>   CDf =  0.00636    CDp =  0.02714

 Side 1  free  transition at x/c =  0.0433   29
 Side 2 forced transition at x/c =  1.0000   67

   2   rms: 0.7695E-02   max: -.3482E-01   D at   29  1
       a = 13.000      CL =  1.4273
      Cm = -0.0216     CD =  0.03387   =>   CDf =  0.00622    CDp =  0.02765

 Side 1  free  transition at x/c =  0.0437   29
 Side 2 forced transition at x/c =  1.0000   67

   3   rms: 0.3155E-03   max: -.1559E-02   D at   80  1
       a = 13.000      CL =  1.4274
      Cm = -0.0216     CD =  0.03384   =>   CDf =  0.00621    CDp =  0.02762

 Side 1  free  transition at x/c =  0.0436   29
 Side 2 forced transition at x/c =  1.0000   67

   4   rms: 0.1309E-04   max: -.6286E-04   D at   77  2
       a = 13.000      CL =  1.4274
      Cm = -0.0216     CD =  0.03384   =>   CDf =  0.00621    CDp =  0.02763
 plradd ia,ip,cpol           42           0  2.21260998E-04

 Point added to stored polar  1
 Point written to save file  s3010_Re300k.base.pol                           
 Dump file unspecified or not available
 Calculating wake trajectory ...
 Calculating source influence matrix ...

 Solving BL system ...

 Side 1  free  transition at x/c =  0.0436   29
 Side 2 forced transition at x/c =  1.0000   67

   1   rms: 0.3896E-01   max: -.1477E+00   D at   30  1
       a = 13.250      CL =  1.4360
      Cm = -0.0211     CD =  0.03559   =>   CDf =  0.00621    CDp =  0.02938

 Side 1  free  transition at x/c =  0.0393   29
 Side 2 forced transition at x/c =  1.0000   67

   2   rms: 0.1218E-01   max: 0.5664E-01   D at   77  1
       a = 13.250      CL =  1.4273
      Cm = -0.0210     CD =  0.03624   =>   CDf =  0.00622    CDp =  0.03003

 Side 1  free  transition at x/c =  0.0399   29
 Side 2 forced transition at x/c =  1.0000   67

   3   rms: 0.4407E-03   max: 0.5590E-02   D at   76  1
       a = 13.250      CL =  1.4271
      Cm = -0.0209     CD =  0.03622   =>   CDf =  0.00619    CDp =  0.03003

 Side 1  free  transition at x/c =  0.0399   29
 Side 2 forced transition at x/c =  1.0000   67

   4   rms: 0.1643E-04   max: 0.1211E-03   D at   77  2
       a = 13.250      CL =  1.4271
      Cm = -0.0209     CD =  0.03622   =>   CDf =  0.00619    CDp =  0.03003
 plradd ia,ip,cpol           43           0  2.21260998E-04

 Point added to stored polar  1
 Point written to save file  s3010_Re300k.base.pol                           
 Dump file unspecified or not available
 Calculating wake trajectory ...
 Calculating source influence matrix ...

 Solving BL system ...

 Side 1  free  transition at x/c =  0.0399   29
 Side 2 forced transition at x/c =  1.0000   67

   1   rms: 0.4939E-01   max: 0.1673E+00   D at   73  1
       a = 13.500      CL =  1.4214
      Cm = -0.0205     CD =  0.03968   =>   CDf =  0.00619    CDp =  0.03349

 Side 1  free  transition at x/c =  0.0374   28
 Side 2 forced transition at x/c =  1.0000   67

   2   rms: 0.2192E-01   max: -.1983E+00   D at   28  1
       a = 13.500      CL =  1.4288
      Cm = -0.0205     CD =  0.03839   =>   CDf =  0.00607    CDp =  0.03232

 Side 1  free  transition at x/c =  0.0366   28
 Side 2 forced transition at x/c =  1.0000   67

   3   rms: 0.2879E-02   max: -.1621E-01   D at   29  1
       a = 13.500      CL =  1.4299
      Cm = -0.0205     CD =  0.03842   =>   CDf =  0.00605    CDp =  0.03237

 Side 1  free  transition at x/c =  0.0362   28
 Side 2 forced transition at x/c =  1.0000   67

   4   rms: 0.1019E-03   max: -.1178E-02   D at   28  1
       a = 13.500      CL =  1.4299
      Cm = -0.0205     CD =  0.03844   =>   CDf =  0.00606    CDp =  0.03238

 Side 1  free  transition at x/c =  0.0362   28
 Side 2 forced transition at x/c =  1.0000   67

   5   rms: 0.6571E-05   max: 0.2326E-04   T at   28  1
       a = 13.500      CL =  1.4299
      Cm = -0.0205     CD =  0.03844   =>   CDf =  0.00606    CDp =  0.03238
 plradd ia,ip,cpol           44           0  2.21260998E-04

 Point added to stored polar  1
 Point written to save file  s3010_Re300k.base.pol                           
 Dump file unspecified or not available
 Calculating wake trajectory ...
 Calculating source influence matrix ...

 Solving BL system ...

 Side 1  free  transition at x/c =  0.0362   28
 Side 2 forced transition at x/c =  1.0000   67

   1   rms: 0.4091E-01   max: -.1581E+00   D at   29  1
       a = 13.750      CL =  1.4370
      Cm = -0.0204     CD =  0.04064   =>   CDf =  0.00606    CDp =  0.03458

 Side 1  free  transition at x/c =  0.0315   27
 Side 2 forced transition at x/c =  1.0000   67

   2   rms: 0.2822E-01   max: 0.1705E+00   C at   27  1
       a = 13.750      CL =  1.4186
      Cm = -0.0206     CD =  0.04250   =>   CDf =  0.00608    CDp =  0.03642

 Side 1  free  transition at x/c =  0.0339   28
 Side 2 forced transition at x/c =  1.0000   67

   3   rms: 0.1683E-01   max: -.6737E-01   D at   29  1
       a = 13.750      CL =  1.4290
      Cm = -0.0204     CD =  0.04108   =>   CDf =  0.00598    CDp =  0.03510

 Side 1  free  transition at x/c =  0.0325   28
 Side 2 forced transition at x/c =  1.0000   67

   4   rms: 0.2134E-02   max: 0.1219E-01   D at   71  1
       a = 13.750      CL =  1.4277
      Cm = -0.0204     CD =  0.04132   =>   CDf =  0.00602    CDp =  0.03530

 Side 1  free  transition at x/c =  0.0325   28
 Side 2 forced transition at x/c =  1.0000   67

   5   rms: 0.5579E-04   max: 0.4587E-03   D at   78  2
       a = 13.750      CL =  1.4277
      Cm = -0.0204     CD =  0.04131   =>   CDf =  0.00602    CDp =  0.03528
 plradd ia,ip,cpol           45           0  2.21260998E-04

 Point added to stored polar  1
 Point written to save file  s3010_Re300k.base.pol                           
 Dump file unspecified or not available
 Calculating wake trajectory ...
 Calculating source influence matrix ...

 Solving BL system ...

 Side 1  free  transition at x/c =  0.0325   28
 Side 2 forced transition at x/c =  1.0000   67

   1   rms: 0.5465E-01   max: 0.1929E+00   D at   69  1   RLX: 0.962
       a = 14.000      CL =  1.4182
      Cm = -0.0207     CD =  0.04564   =>   CDf =  0.00602    CDp =  0.03962

 Side 1  free  transition at x/c =  0.0303   27
 Side 2 forced transition at x/c =  1.0000   67

   2   rms: 0.1766E-01   max: -.1658E+00   D at   27  1
       a = 14.000      CL =  1.4227
      Cm = -0.0205     CD =  0.04453   =>   CDf =  0.00538    CDp =  0.03916

 Side 1  free  transition at x/c =  0.0295   28
 Side 2 forced transition at x/c =  1.0000   66

   3   rms: 0.2826E-02   max: -.3994E-01   D at    2  1
       a = 14.000      CL =  1.4231
      Cm = -0.0205     CD =  0.04458   =>   CDf =  0.00588    CDp =  0.03870

 Side 1  free  transition at x/c =  0.0293   28
 Side 2 forced transition at x/c =  1.0000   66

   4   rms: 0.8339E-03   max: -.1071E-01   D at    4  1
       a = 14.000      CL =  1.4231
      Cm = -0.0205     CD =  0.04460   =>   CDf =  0.00588    CDp =  0.03872

 Side 1  free  transition at x/c =  0.0293   28
 Side 2 forced transition at x/c =  1.0000   66

   5   rms: 0.2064E-05   max: 0.1065E-04   D at   29  1
       a = 14.000      CL =  1.4231
      Cm = -0.0205     CD =  0.04460   =>   CDf =  0.00588    CDp =  0.03872
 plradd ia,ip,cpol           46           0  2.21260998E-04

 Point added to stored polar  1
 Point written to save file  s3010_Re300k.base.pol                           
 Dump file unspecified or not available
 Calculating wake trajectory ...
 Calculating source influence matrix ...

 Solving BL system ...

 Side 1  free  transition at x/c =  0.0293   28
 Side 2 forced transition at x/c =  1.0000   66

   1   rms: 0.4323E-01   max: 0.2737E+00   T at   28  1   RLX: 0.925
       a = 14.250      CL =  1.4254
      Cm = -0.0209     CD =  0.04758   =>   CDf =  0.00589    CDp =  0.04169

 Side 1  free  transition at x/c =  0.0257   28
 Side 2 forced transition at x/c =  1.0000   66

   2   rms: 0.1287E-01   max: -.6858E-01   T at   28  1
       a = 14.250      CL =  1.4188
      Cm = -0.0211     CD =  0.04820   =>   CDf =  0.00588    CDp =  0.04232

 Side 1  free  transition at x/c =  0.0265   28
 Side 2 forced transition at x/c =  1.0000   66

   3   rms: 0.2004E-02   max: 0.1374E-01   D at   28  1
       a = 14.250      CL =  1.4175
      Cm = -0.0210     CD =  0.04823   =>   CDf =  0.00582    CDp =  0.04241

 Side 1  free  transition at x/c =  0.0265   28
 Side 2 forced transition at x/c =  1.0000   66

   4   rms: 0.1293E-03   max: 0.7483E-03   D at   78  2
       a = 14.250      CL =  1.4175
      Cm = -0.0210     CD =  0.04822   =>   CDf =  0.00582    CDp =  0.04240

 Side 1  free  transition at x/c =  0.0265   28
 Side 2 forced transition at x/c =  1.0000   66

   5   rms: 0.4891E-05   max: -.7299E-04   C at   66  2
       a = 14.250      CL =  1.4175
      Cm = -0.0210     CD =  0.04822   =>   CDf =  0.00582    CDp =  0.04240
 plradd ia,ip,cpol           47           0  2.21260998E-04

 Point added to stored polar  1
 Point written to save file  s3010_Re300k.base.pol                           
 Dump file unspecified or not available
 Calculating wake trajectory ...
 Calculating source influence matrix ...

 Solving BL system ...

 Side 1  free  transition at x/c =  0.0265   28
 Side 2 forced transition at x/c =  1.0000   66

   1   rms: 0.4824E-01   max: 0.1755E+00   D at   66  1   RLX: 0.857
       a = 14.500      CL =  1.4117
      Cm = -0.0220     CD =  0.05228   =>   CDf =  0.00582    CDp =  0.04646

 Side 1  free  transition at x/c =  0.0251   27
 Side 2 forced transition at x/c =  1.0000   66

   2   rms: 0.1214E-01   max: 0.6415E-01   D at   67  1
       a = 14.500      CL =  1.4060
      Cm = -0.0221     CD =  0.05293   =>   CDf =  0.00577    CDp =  0.04717

 Side 1  free  transition at x/c =  0.0250   27
 Side 2 forced transition at x/c =  1.0000   66

   3   rms: 0.1301E-02   max: 0.7494E-02   D at   79  2
       a = 14.500      CL =  1.4052
      Cm = -0.0220     CD =  0.05283   =>   CDf =  0.00574    CDp =  0.04709

 Side 1  free  transition at x/c =  0.0250   27
 Side 2 forced transition at x/c =  1.0000   66

   4   rms: 0.8536E-04   max: 0.5131E-03   C at   27  1
       a = 14.500      CL =  1.4051
      Cm = -0.0220     CD =  0.05282   =>   CDf =  0.00574    CDp =  0.04708
 plradd ia,ip,cpol           48           0  2.21260998E-04

 Point added to stored polar  1
 Point written to save file  s3010_Re300k.base.pol                           
 Dump file unspecified or not available
 Calculating wake trajectory ...
 Calculating source influence matrix ...

 Solving BL system ...

 Side 1  free  transition at x/c =  0.0250   27
 Side 2 forced transition at x/c =  1.0000   66

   1   rms: 0.4045E-01   max: -.2671E+00   C at   27  1   RLX: 0.814
       a = 14.750      CL =  1.4079
      Cm = -0.0227     CD =  0.05569   =>   CDf =  0.00574    CDp =  0.04995

 Side 1  free  transition at x/c =  0.0230   27
 Side 2 forced transition at x/c =  1.0000   66

   2   rms: 0.1368E-01   max: 0.6536E-01   D at   65  1
       a = 14.750      CL =  1.4015
      Cm = -0.0231     CD =  0.05689   =>   CDf =  0.00561    CDp =  0.05127

 Side 1  free  transition at x/c =  0.0232   27
 Side 2 forced transition at x/c =  1.0000   66

   3   rms: 0.1940E-02   max: 0.1416E-01   D at   79  2
       a = 14.750      CL =  1.4002
      Cm = -0.0230     CD =  0.05673   =>   CDf =  0.00558    CDp =  0.05115

 Side 1  free  transition at x/c =  0.0233   27
 Side 2 forced transition at x/c =  1.0000   66

   4   rms: 0.8967E-04   max: 0.1020E-02   D at   79  2
       a = 14.750      CL =  1.4002
      Cm = -0.0230     CD =  0.05671   =>   CDf =  0.00558    CDp =  0.05113
 plradd ia,ip,cpol           49           0  2.21260998E-04

 Point added to stored polar  1
 Point written to save file  s3010_Re300k.base.pol                           
 Dump file unspecified or not available
 Calculating wake trajectory ...
 Calculating source influence matrix ...

 Solving BL system ...

 Side 1  free  transition at x/c =  0.0233   27
 Side 2 forced transition at x/c =  1.0000   66

   1   rms: 0.3994E-01   max: 0.1468E+00   D at   62  1   RLX: 0.766
       a = 15.000      CL =  1.3985
      Cm = -0.0241     CD =  0.06026   =>   CDf =  0.00558    CDp =  0.05468

 Side 1  free  transition at x/c =  0.0222   27
 Side 2 forced transition at x/c =  1.0000   66

   2   rms: 0.1234E-01   max: 0.5991E-01   D at   63  1
       a = 15.000      CL =  1.3941
      Cm = -0.0244     CD =  0.06122   =>   CDf =  0.00549    CDp =  0.05573

 Side 1  free  transition at x/c =  0.0223   27
 Side 2 forced transition at x/c =  1.0000   66

   3   rms: 0.1663E-02   max: 0.8822E-02   D at   80  2
       a = 15.000      CL =  1.3930
      Cm = -0.0243     CD =  0.06103   =>   CDf =  0.00546    CDp =  0.05557

 Side 1  free  transition at x/c =  0.0224   27
 Side 2 forced transition at x/c =  1.0000   66

   4   rms: 0.7411E-04   max: 0.5897E-03   D at   80  2
       a = 15.000      CL =  1.3930
      Cm = -0.0243     CD =  0.06101   =>   CDf =  0.00545    CDp =  0.05556
 plradd ia,ip,cpol           50           0  2.21260998E-04

 Point added to stored polar  1
 Point written to save file  s3010_Re300k.base.pol                           
 Dump file unspecified or not available
 Calculating wake trajectory ...
 Calculating source influence matrix ...

 Solving BL system ...

 Side 1  free  transition at x/c =  0.0224   27
 Side 2 forced transition at x/c =  1.0000   66

   1   rms: 0.4091E-01   max: 0.1520E+00   D at   61  1   RLX: 0.725
       a = 15.250      CL =  1.3907
      Cm = -0.0256     CD =  0.06465   =>   CDf =  0.00546    CDp =  0.05920

 Side 1  free  transition at x/c =  0.0213   27
 Side 2 forced transition at x/c =  1.0000   66

   2   rms: 0.1515E-01   max: 0.6987E-01   D at   61  1
       a = 15.250      CL =  1.3850
      Cm = -0.0262     CD =  0.06610   =>   CDf =  0.00540    CDp =  0.06071

 Side 1  free  transition at x/c =  0.0212   27
 Side 2 forced transition at x/c =  1.0000   66

   3   rms: 0.2103E-02   max: 0.1177E-01   D at   80  2
       a = 15.250      CL =  1.3837
      Cm = -0.0261     CD =  0.06585   =>   CDf =  0.00536    CDp =  0.06049

 Side 1  free  transition at x/c =  0.0212   27
 Side 2 forced transition at x/c =  1.0000   66

   4   rms: 0.1087E-03   max: 0.1476E-02   D at   80  2
       a = 15.250      CL =  1.3836
      Cm = -0.0260     CD =  0.06582   =>   CDf =  0.00536    CDp =  0.06047

 Side 1  free  transition at x/c =  0.0212   27
 Side 2 forced transition at x/c =  1.0000   66

   5   rms: 0.2702E-05   max: -.1987E-04   C at   66  2
       a = 15.250      CL =  1.3836
      Cm = -0.0260     CD =  0.06582   =>   CDf =  0.00535    CDp =  0.06047
 plradd ia,ip,cpol           51           0  2.21260998E-04

 Point added to stored polar  1
 Point written to save file  s3010_Re300k.base.pol                           
 Dump file unspecified or not available
 Calculating wake trajectory ...
 Calculating source influence matrix ...

 Solving BL system ...

 Side 1  free  transition at x/c =  0.0212   27
 Side 2 forced transition at x/c =  1.0000   66

   1   rms: 0.3950E-01   max: 0.1558E+00   D at   59  1   RLX: 0.687
       a = 15.500      CL =  1.3805
      Cm = -0.0274     CD =  0.06959   =>   CDf =  0.00536    CDp =  0.06424

 Side 1  free  transition at x/c =  0.0208   27
 Side 2 forced transition at x/c =  1.0000   66

   2   rms: 0.1572E-01   max: 0.7331E-01   D at   60  1
       a = 15.500      CL =  1.3754
      Cm = -0.0280     CD =  0.07115   =>   CDf =  0.00530    CDp =  0.06585

 Side 1  free  transition at x/c =  0.0207   27
 Side 2 forced transition at x/c =  1.0000   66

   3   rms: 0.2430E-02   max: 0.1280E-01   D at   59  1
       a = 15.500      CL =  1.3740
      Cm = -0.0279     CD =  0.07085   =>   CDf =  0.00526    CDp =  0.06559

 Side 1  free  transition at x/c =  0.0208   27
 Side 2 forced transition at x/c =  1.0000   66

   4   rms: 0.1137E-03   max: 0.8312E-03   D at   81  2
       a = 15.500      CL =  1.3739
      Cm = -0.0279     CD =  0.07081   =>   CDf =  0.00525    CDp =  0.06555

 Side 1  free  transition at x/c =  0.0208   27
 Side 2 forced transition at x/c =  1.0000   66

   5   rms: 0.6741E-05   max: -.3250E-04   D at   82  2
       a = 15.500      CL =  1.3739
      Cm = -0.0279     CD =  0.07081   =>   CDf =  0.00525    CDp =  0.06555
 plradd ia,ip,cpol           52           0  2.21260998E-04

 Point added to stored polar  1
 Point written to save file  s3010_Re300k.base.pol                           
 Dump file unspecified or not available
 Calculating wake trajectory ...
 Calculating source influence matrix ...

 Solving BL system ...

 Side 1  free  transition at x/c =  0.0208   27
 Side 2 forced transition at x/c =  1.0000   66

   1   rms: 0.4459E-01   max: 0.1801E+00   D at   57  1   RLX: 0.649
       a = 15.750      CL =  1.3680
      Cm = -0.0296     CD =  0.07510   =>   CDf =  0.00526    CDp =  0.06985

 Side 1  free  transition at x/c =  0.0202   27
 Side 2 forced transition at x/c =  1.0000   66

   2   rms: 0.1972E-01   max: 0.8587E-01   D at   58  1
       a = 15.750      CL =  1.3602
      Cm = -0.0304     CD =  0.07728   =>   CDf =  0.00522    CDp =  0.07206

 Side 1  free  transition at x/c =  0.0200   26
 Side 2 forced transition at x/c =  1.0000   66

   3   rms: 0.3709E-02   max: 0.1784E-01   D at   81  2
       a = 15.750      CL =  1.3577
      Cm = -0.0303     CD =  0.07697   =>   CDf =  0.00520    CDp =  0.07177

 Side 1  free  transition at x/c =  0.0201   27
 Side 2 forced transition at x/c =  1.0000   66

   4   rms: 0.1324E-02   max: -.1181E-01   D at   26  1
       a = 15.750      CL =  1.3585
      Cm = -0.0302     CD =  0.07675   =>   CDf =  0.00519    CDp =  0.07156

 Side 1  free  transition at x/c =  0.0201   27
 Side 2 forced transition at x/c =  1.0000   66

   5   rms: 0.1546E-03   max: 0.5552E-03   T at   27  1
       a = 15.750      CL =  1.3586
      Cm = -0.0302     CD =  0.07676   =>   CDf =  0.00518    CDp =  0.07158

 Side 1  free  transition at x/c =  0.0201   27
 Side 2 forced transition at x/c =  1.0000   66

   6   rms: 0.1172E-04   max: 0.7913E-04   C at   66  2
       a = 15.750      CL =  1.3586
      Cm = -0.0302     CD =  0.07676   =>   CDf =  0.00518    CDp =  0.07158
 plradd ia,ip,cpol           53           0  2.21260998E-04

 Point added to stored polar  1
 Point written to save file  s3010_Re300k.base.pol                           
 Dump file unspecified or not available
 Calculating wake trajectory ...
 Calculating source influence matrix ...

 Solving BL system ...

 Side 1  free  transition at x/c =  0.0201   27
 Side 2 forced transition at x/c =  1.0000   66

   1   rms: 0.4368E-01   max: 0.1701E+00   D at   55  1   RLX: 0.613
       a = 16.000      CL =  1.3521
      Cm = -0.0317     CD =  0.08099   =>   CDf =  0.00519    CDp =  0.07580

 Side 1  free  transition at x/c =  0.0197   26
 Side 2 forced transition at x/c =  1.0000   66

   2   rms: 0.1450E-01   max: -.7375E-01   D at   26  1
       a = 16.000      CL =  1.3525
      Cm = -0.0324     CD =  0.08211   =>   CDf =  0.00512    CDp =  0.07699

 Side 1  free  transition at x/c =  0.0196   26
 Side 2 forced transition at x/c =  1.0000   66

   3   rms: 0.1910E-02   max: 0.1206E-01   D at   81  2
       a = 16.000      CL =  1.3513
      Cm = -0.0323     CD =  0.08177   =>   CDf =  0.00504    CDp =  0.07673

 Side 1  free  transition at x/c =  0.0196   26
 Side 2 forced transition at x/c =  1.0000   66

   4   rms: 0.9180E-04   max: 0.8350E-03   D at   81  2
       a = 16.000      CL =  1.3512
      Cm = -0.0323     CD =  0.08174   =>   CDf =  0.00504    CDp =  0.07670
 plradd ia,ip,cpol           54           0  2.21260998E-04

 Point added to stored polar  1
 Point written to save file  s3010_Re300k.base.pol                           
 Dump file unspecified or not available

.OPERva   c>  
 Polar accumulation disabled

.OPERv   c>  
 XFOIL   c>  
 XFOIL   c>  