
 ===================================================
  XFOIL Version 6.99
  Copyright (C) 2000   Mark Drela, Harold Youngren

  This software comes with ABSOLUTELY NO WARRANTY,
    subject to the GNU General Public License.

  Caveat computor
 ===================================================

 File  xfoil.def  not found

   QUIT    Exit program

  .OPER    Direct operating point(s)
  .MDES    Complex mapping design routine
  .QDES    Surface speed design routine
  .GDES    Geometry design routine

   SAVE f  Write airfoil to labeled coordinate file
   PSAV f  Write airfoil to plain coordinate file
   ISAV f  Write airfoil to ISES coordinate file
   MSAV f  Write airfoil to MSES coordinate file
   REVE    Reverse written-airfoil node ordering

   LOAD f  Read buffer airfoil from coordinate file
   NACA i  Set NACA 4,5-digit airfoil and buffer airfoil
   INTE    Set buffer airfoil by interpolating two airfoils
   NORM    Buffer airfoil normalization toggle
   XYCM rr Change CM reference location, currently  0.25000 0.00000

   BEND    Display structural properties of current airfoil

   PCOP    Set current-airfoil panel nodes directly from buffer airfoil points
   PANE    Set current-airfoil panel nodes ( 160 ) based on curvature
  .PPAR    Show/change paneling

  .PLOP    Plotting options

   WDEF f  Write  current-settings file
   RDEF f  Reread current-settings file
   NAME s  Specify new airfoil name
   NINC    Increment name version number

   Z       Zoom    | (available in all menus)
   U       Unzoom  | 

 XFOIL   c>  
 Labeled airfoil file.  Name:     S4061-096-84                                 

 Number of input coordinate points:  61
 Counterclockwise ordering
 Max thickness =     0.096294  at x =   0.283
 Max camber    =     0.039038  at x =   0.442

  LE  x,y  =   0.00011   0.00006  |   Chord =   0.99990
  TE  x,y  =   1.00001   0.00000  |

 Current airfoil nodes set from buffer airfoil nodes (  61 )

 WARNING: Poor input coordinate distribution
          Excessive panel angle   49.1  at i =  33
          Repaneling with PANE and/or PPAR suggested
           (doing GDES,CADD before repaneling _may_
            improve excessively coarse LE spacing

 XFOIL   c>  
 XFOIL   c>  
 Sharp trailing edge

 Paneling parameters used...
   Number of panel nodes       160
   Panel bunching parameter    1.000
   TE/LE panel density ratio   0.150
   Refined-area/LE panel density ratio    0.200
   Top    side refined area x/c limits  1.000 1.000
   Bottom side refined area x/c limits  1.000 1.000

 XFOIL   c>  
.OPERi   c>  
 Xtr/c     =  1.0000    top    side
 Xtr/c     =  1.0000    bottom side
 Ncrit     =    9.00   ( 0.070 % turb. level )
 Vacc      =  0.0100

 Klag  =  5.6000     Uxwt  =    1.00
 A     =  6.7000     B     =  0.7500       KCt = 0.01485
 CtiniK=  1.8000     CtiniX=  3.3000

..VPAR   c>  
..VPAR   c>  
.OPERi   c>  
 M  =    0.0000
 Re =    150000

.OPERv   c>  
.OPERv   c>  
.OPERv   c>  
 Polar  1 newly created for accumulation
 Airfoil archived with polar: S4061-096-84                                    

Enter  polar save filename  OR  <return> for no file   s>  
 New polar save file available

Enter  polar dump filename  OR  <return> for no file   s>  
 Polar dump file will NOT be written

 Polar accumulation enabled

.OPERva   c>   Calculating unit vorticity distributions ...
 Calculating wake trajectory ...
 Calculating source influence matrix ...

 Solving BL system ...

 Initializing BL ...
    side            1  ...
 MRCHUE: Inverse mode at  52     Hk =   3.800
 MRCHUE: Inverse mode at  53     Hk =   4.135
 MRCHUE: Inverse mode at  54     Hk =   4.463
 MRCHUE: Inverse mode at  55     Hk =   4.785
 MRCHUE: Inverse mode at  56     Hk =   5.103
 MRCHUE: Inverse mode at  57     Hk =   5.417
 MRCHUE: Inverse mode at  58     Hk =   5.726
 MRCHUE: Inverse mode at  59     Hk =   6.032
 MRCHUE: Inverse mode at  60     Hk =   6.335
 MRCHUE: Inverse mode at  61     Hk =   6.635
 MRCHUE: Inverse mode at  62     Hk =   6.934
 MRCHUE: Inverse mode at  63     Hk =   7.230
 MRCHUE: Inverse mode at  64     Hk =   7.525
 MRCHUE: Inverse mode at  65     Hk =   7.818
 MRCHUE: Inverse mode at  66     Hk =   8.108
 MRCHUE: Inverse mode at  67     Hk =   8.394
 MRCHUE: Inverse mode at  68     Hk =   8.677
 MRCHUE: Inverse mode at  69     Hk =   8.956
 MRCHUE: Inverse mode at  70     Hk =   9.231
 MRCHUE: Inverse mode at  71     Hk =   9.503
 MRCHUE: Inverse mode at  72     Hk =   8.777
 MRCHUE: Inverse mode at  73     Hk =   7.720
 MRCHUE: Inverse mode at  74     Hk =   6.945
 MRCHUE: Inverse mode at  75     Hk =   6.368
 MRCHUE: Inverse mode at  76     Hk =   5.952
 MRCHUE: Inverse mode at  77     Hk =   5.749
    side            2  ...
 MRCHUE: Inverse mode at  12     Hk =   3.800
 MRCHUE: Inverse mode at  13     Hk =   4.444
 MRCHUE: Convergence failed at  14  side 2    Res =  0.2102E+01
 MRCHUE: Inverse mode at  15     Hk =   5.136
 MRCHUE: Inverse mode at  16     Hk =   5.805
 MRCHUE: Inverse mode at  17     Hk =   6.465
 MRCHUE: Inverse mode at  18     Hk =   7.153
 MRCHUE: Inverse mode at  19     Hk =   7.916
 MRCHUE: Inverse mode at  20     Hk =   8.809
 MRCHUE: Inverse mode at  21     Hk =   9.821
 MRCHUE: Inverse mode at  22     Hk =   7.809
 MRCHUE: Inverse mode at  23     Hk =   4.264
 MRCHUE: Inverse mode at  24     Hk =   2.500
 MRCHUE: Inverse mode at  25     Hk =   2.500

 MRCHDU: Convergence failed at  23  side 2    Res =  0.2022E+01
 MRCHDU: Convergence failed at  24  side 2    Res =  0.2741E+02
 MRCHDU: Convergence failed at  25  side 2    Res =  0.2689E+02
 MRCHDU: Convergence failed at  26  side 2    Res =  0.1235E+02
 MRCHDU: Convergence failed at  27  side 2    Res =  0.1702E+02
 MRCHDU: Convergence failed at  28  side 2    Res =  0.2905E+02
 MRCHDU: Convergence failed at  29  side 2    Res =  0.6118E+02
 MRCHDU: Convergence failed at  30  side 2    Res =  0.3268E+02
 MRCHDU: Convergence failed at  31  side 2    Res =  0.2617E+02
 MRCHDU: Convergence failed at  32  side 2    Res =  0.4344E+02
 MRCHDU: Convergence failed at  33  side 2    Res =  0.4880E+02
 MRCHDU: Convergence failed at  34  side 2    Res =  0.5217E+02
 MRCHDU: Convergence failed at  35  side 2    Res =  0.4894E+02
 MRCHDU: Convergence failed at  36  side 2    Res =  0.5526E+02
 MRCHDU: Convergence failed at  37  side 2    Res =  0.5993E+02
 MRCHDU: Convergence failed at  38  side 2    Res =  0.2470E+02
 MRCHDU: Convergence failed at  39  side 2    Res =  0.2369E+02
 MRCHDU: Convergence failed at  40  side 2    Res =  0.2302E+02
 MRCHDU: Convergence failed at  41  side 2    Res =  0.2862E+02
 MRCHDU: Convergence failed at  42  side 2    Res =  0.2799E+02
 MRCHDU: Convergence failed at  43  side 2    Res =  0.6280E+02
 MRCHDU: Convergence failed at  44  side 2    Res =  0.6814E+02
 MRCHDU: Convergence failed at  45  side 2    Res =  0.7299E+02
 MRCHDU: Convergence failed at  46  side 2    Res =  0.7108E+02
 MRCHDU: Convergence failed at  47  side 2    Res =  0.7553E+02
 MRCHDU: Convergence failed at  48  side 2    Res =  0.2539E+02
 MRCHDU: Convergence failed at  49  side 2    Res =  0.2631E+02
 MRCHDU: Convergence failed at  50  side 2    Res =  0.2729E+02
 MRCHDU: Convergence failed at  51  side 2    Res =  0.2678E+02
 MRCHDU: Convergence failed at  52  side 2    Res =  0.2759E+02
 MRCHDU: Convergence failed at  53  side 2    Res =  0.2844E+02
 MRCHDU: Convergence failed at  54  side 2    Res =  0.2928E+02
 MRCHDU: Convergence failed at  55  side 2    Res =  0.3005E+02
 MRCHDU: Convergence failed at  56  side 2    Res =  0.3104E+02
 MRCHDU: Convergence failed at  57  side 2    Res =  0.2504E+02
 MRCHDU: Convergence failed at  58  side 2    Res =  0.2566E+02
 MRCHDU: Convergence failed at  59  side 2    Res =  0.2637E+02
 MRCHDU: Convergence failed at  60  side 2    Res =  0.2706E+02
 MRCHDU: Convergence failed at  61  side 2    Res =  0.2773E+02
 MRCHDU: Convergence failed at  62  side 2    Res =  0.2842E+02
 MRCHDU: Convergence failed at  63  side 2    Res =  0.2905E+02
 MRCHDU: Convergence failed at  64  side 2    Res =  0.2981E+02
 MRCHDU: Convergence failed at  65  side 2    Res =  0.3043E+02
 MRCHDU: Convergence failed at  66  side 2    Res =  0.3122E+02
 MRCHDU: Convergence failed at  67  side 2    Res =  0.3202E+02
 MRCHDU: Convergence failed at  68  side 2    Res =  0.3281E+02
 MRCHDU: Convergence failed at  69  side 2    Res =  0.3365E+02
 MRCHDU: Convergence failed at  70  side 2    Res =  0.3439E+02
 MRCHDU: Convergence failed at  71  side 2    Res =  0.3511E+02
 MRCHDU: Convergence failed at  72  side 2    Res =  0.3601E+02
 MRCHDU: Convergence failed at  73  side 2    Res =  0.3268E+02
 MRCHDU: Convergence failed at  74  side 2    Res =  0.3356E+02
 MRCHDU: Convergence failed at  75  side 2    Res =  0.3438E+02
 MRCHDU: Convergence failed at  76  side 2    Res =  0.3519E+02
 MRCHDU: Convergence failed at  77  side 2    Res =  0.3635E+02
 MRCHDU: Convergence failed at  78  side 2    Res =  0.9797E+02
 MRCHDU: Convergence failed at  79  side 2    Res =  0.1085E+03
 MRCHDU: Convergence failed at  80  side 2    Res =  0.1223E+03
 MRCHDU: Convergence failed at  81  side 2    Res =  0.1516E+03
 MRCHDU: Convergence failed at  82  side 2    Res =  0.2090E+03
 MRCHDU: Convergence failed at  83  side 2    Res =  0.2895E+04
 MRCHDU: Convergence failed at  84  side 2    Res =  0.1999E+03
 MRCHDU: Convergence failed at  85  side 2    Res =  0.6119E+02
 Side 1  free  transition at x/c =  0.9361   72
 Side 2  free  transition at x/c =  0.0590   22

   1   rms: 0.9739E+00   max: 0.2198E+01   D at   88  2   RLX: 0.528
       a = -4.000      CL = -0.6707
      Cm =  0.1081     CD =  0.01086   =>   CDf =  0.00314    CDp =  0.00771

 MRCHDU: Convergence failed at  53  side 2    Res =  0.1620E+00
 MRCHDU: Convergence failed at  54  side 2    Res =  0.1355E+00
 MRCHDU: Convergence failed at  55  side 2    Res =  0.1023E+00
 MRCHDU: Convergence failed at  56  side 2    Res =  0.4901E-01
 MRCHDU: Convergence failed at  57  side 2    Res =  0.9123E-04
 MRCHDU: Convergence failed at  88  side 2    Res =  0.4025E+01
 MRCHDU: Convergence failed at  89  side 2    Res =  0.1107E+01
 Side 1  free  transition at x/c =  0.9439   72
 Side 2  free  transition at x/c =  0.0615   23

   2   rms: 0.4007E+00   max: -.7247E+00   D at   86  2   RLX: 0.501
       a = -4.000      CL = -0.1378
      Cm = -0.0501     CD =  0.02667   =>   CDf =  0.00417    CDp =  0.02250

 MRCHDU: Convergence failed at  75  side 1    Res =  0.3327E+01
 MRCHDU: Convergence failed at  76  side 1    Res =  0.1090E+02
 MRCHDU: Convergence failed at  77  side 1    Res =  0.1089E+02
 MRCHDU: Convergence failed at  56  side 2    Res =  0.2167E+00
 MRCHDU: Convergence failed at  57  side 2    Res =  0.4248E+00
 MRCHDU: Convergence failed at  60  side 2    Res =  0.3684E+01
 MRCHDU: Convergence failed at  61  side 2    Res =  0.3421E+01
 MRCHDU: Convergence failed at  62  side 2    Res =  0.2937E+01
 MRCHDU: Convergence failed at  63  side 2    Res =  0.2622E+01
 MRCHDU: Convergence failed at  64  side 2    Res =  0.1044E+01
 Side 1  free  transition at x/c =  0.9787   75
 Side 2  free  transition at x/c =  0.0612   23

   3   rms: 0.4782E+00   max: -.2100E+01   D at   24  2   RLX: 0.238
       a = -4.000      CL = -0.0319
      Cm = -0.0959     CD =  0.02892   =>   CDf =  0.00487    CDp =  0.02406

 MRCHDU: Convergence failed at  23  side 2    Res =  0.8651E+01
 MRCHDU: Convergence failed at  24  side 2    Res =  0.3800E+01
 MRCHDU: Convergence failed at  25  side 2    Res =  0.1223E+02
 MRCHDU: Convergence failed at  26  side 2    Res =  0.2242E+02
 MRCHDU: Convergence failed at  27  side 2    Res =  0.1638E+02
 MRCHDU: Convergence failed at  28  side 2    Res =  0.6181E+01
 MRCHDU: Convergence failed at  29  side 2    Res =  0.4310E+01
 MRCHDU: Convergence failed at  30  side 2    Res =  0.5135E+01
 MRCHDU: Convergence failed at  31  side 2    Res =  0.6877E+01
 MRCHDU: Convergence failed at  32  side 2    Res =  0.9833E+01
 MRCHDU: Convergence failed at  33  side 2    Res =  0.1514E+02
 MRCHDU: Convergence failed at  34  side 2    Res =  0.2645E+02
 MRCHDU: Convergence failed at  35  side 2    Res =  0.8808E+02
 MRCHDU: Convergence failed at  36  side 2    Res =  0.5625E+02
 MRCHDU: Convergence failed at  37  side 2    Res =  0.2463E+02
 MRCHDU: Convergence failed at  38  side 2    Res =  0.1983E+03
 MRCHDU: Convergence failed at  39  side 2    Res =  0.1183E+03
 MRCHDU: Convergence failed at  40  side 2    Res =  0.1117E+03
 MRCHDU: Convergence failed at  41  side 2    Res =  0.1089E+03
 MRCHDU: Convergence failed at  42  side 2    Res =  0.1054E+03
 MRCHDU: Convergence failed at  43  side 2    Res =  0.1007E+03
 MRCHDU: Convergence failed at  44  side 2    Res =  0.8754E+02
 MRCHDU: Convergence failed at  45  side 2    Res =  0.5865E+02
 MRCHDU: Convergence failed at  46  side 2    Res =  0.4241E+02
 MRCHDU: Convergence failed at  47  side 2    Res =  0.3424E+02
 MRCHDU: Convergence failed at  48  side 2    Res =  0.2616E+03
 MRCHDU: Convergence failed at  49  side 2    Res =  0.1993E+02
 MRCHDU: Convergence failed at  50  side 2    Res =  0.6425E+02
 MRCHDU: Convergence failed at  51  side 2    Res =  0.1568E+02
 MRCHDU: Convergence failed at  52  side 2    Res =  0.9350E+02
 MRCHDU: Convergence failed at  53  side 2    Res =  0.1656E+03
 MRCHDU: Convergence failed at  54  side 2    Res =  0.5867E+03
 MRCHDU: Convergence failed at  55  side 2    Res =  0.4554E+02
 MRCHDU: Convergence failed at  56  side 2    Res =  0.4255E+02
 MRCHDU: Convergence failed at  57  side 2    Res =  0.3846E+02
 MRCHDU: Convergence failed at  58  side 2    Res =  0.3762E+02
 MRCHDU: Convergence failed at  59  side 2    Res =  0.4014E+02
 MRCHDU: Convergence failed at  60  side 2    Res =  0.5487E+02
 MRCHDU: Convergence failed at  61  side 2    Res =  0.3232E+02
 MRCHDU: Convergence failed at  62  side 2    Res =  0.7820E+02
 MRCHDU: Convergence failed at  63  side 2    Res =  0.8745E+02
 MRCHDU: Convergence failed at  64  side 2    Res =  0.8091E+02
 MRCHDU: Convergence failed at  65  side 2    Res =  0.1765E+02
 MRCHDU: Convergence failed at  66  side 2    Res =  0.7489E+02
 MRCHDU: Convergence failed at  67  side 2    Res =  0.9251E+02
 MRCHDU: Convergence failed at  68  side 2    Res =  0.2020E+02
 MRCHDU: Convergence failed at  69  side 2    Res =  0.1887E+02
 MRCHDU: Convergence failed at  70  side 2    Res =  0.1766E+02
 MRCHDU: Convergence failed at  71  side 2    Res =  0.1839E+02
 MRCHDU: Convergence failed at  72  side 2    Res =  0.1913E+02
 MRCHDU: Convergence failed at  73  side 2    Res =  0.1990E+02
 MRCHDU: Convergence failed at  74  side 2    Res =  0.2058E+02
 MRCHDU: Convergence failed at  75  side 2    Res =  0.2129E+02
 MRCHDU: Convergence failed at  76  side 2    Res =  0.2191E+02
 MRCHDU: Convergence failed at  77  side 2    Res =  0.2249E+02
 MRCHDU: Convergence failed at  78  side 2    Res =  0.2305E+02
 MRCHDU: Convergence failed at  79  side 2    Res =  0.2354E+02
 MRCHDU: Convergence failed at  80  side 2    Res =  0.2421E+02
 MRCHDU: Convergence failed at  81  side 2    Res =  0.2454E+02
 MRCHDU: Convergence failed at  82  side 2    Res =  0.2457E+02
 MRCHDU: Convergence failed at  83  side 2    Res =  0.2425E+02
 MRCHDU: Convergence failed at  84  side 2    Res =  0.2409E+02
 MRCHDU: Convergence failed at  85  side 2    Res =  0.2652E+02
 Side 1  free  transition at x/c =  0.9525   73
 Side 2  free  transition at x/c =  0.0575   22

   4   rms: 0.7956E+00   max: 0.1519E+01   D at   89  2   RLX: 0.698
       a = -4.000      CL = -0.2434
      Cm = -0.0032     CD =  0.01235   =>   CDf =  0.00335    CDp =  0.00900

 MRCHDU: Convergence failed at  88  side 2    Res =  0.4318E+01
 MRCHDU: Convergence failed at  89  side 2    Res =  0.2807E+01
 MRCHDU: Convergence failed at  90  side 2    Res =  0.3470E+01
 MRCHDU: Convergence failed at  91  side 2    Res =  0.1446E+01
 Side 1  free  transition at x/c =  0.9472   74
 Side 2  free  transition at x/c =  0.0605   21

   5   rms: 0.7996E+00   max: -.6927E+01   D at   31  2   RLX: 0.072
       a = -4.000      CL = -0.0130
      Cm = -0.0716     CD =  0.04180   =>   CDf =  0.00417    CDp =  0.03762

 MRCHDU: Convergence failed at  22  side 2    Res =  0.4312E+01
 MRCHDU: Convergence failed at  23  side 2    Res =  0.7835E+01
 MRCHDU: Convergence failed at  24  side 2    Res =  0.1806E+02
 MRCHDU: Convergence failed at  25  side 2    Res =  0.6593E+02
 MRCHDU: Convergence failed at  26  side 2    Res =  0.1886E+02
 MRCHDU: Convergence failed at  27  side 2    Res =  0.8554E+01
 MRCHDU: Convergence failed at  28  side 2    Res =  0.1263E+02
 MRCHDU: Convergence failed at  29  side 2    Res =  0.2423E+02
 MRCHDU: Convergence failed at  30  side 2    Res =  0.8722E+01
 MRCHDU: Convergence failed at  31  side 2    Res =  0.1065E+02
 MRCHDU: Convergence failed at  32  side 2    Res =  0.1247E+02
 MRCHDU: Convergence failed at  33  side 2    Res =  0.1081E+02
 MRCHDU: Convergence failed at  34  side 2    Res =  0.1859E+02
 MRCHDU: Convergence failed at  35  side 2    Res =  0.1472E+02
 MRCHDU: Convergence failed at  36  side 2    Res =  0.1252E+02
 MRCHDU: Convergence failed at  37  side 2    Res =  0.1109E+02
 MRCHDU: Convergence failed at  38  side 2    Res =  0.9991E+01
 MRCHDU: Convergence failed at  39  side 2    Res =  0.9239E+01
 MRCHDU: Convergence failed at  40  side 2    Res =  0.7256E+01
 MRCHDU: Convergence failed at  41  side 2    Res =  0.7711E+01
 MRCHDU: Convergence failed at  42  side 2    Res =  0.7893E+01
 MRCHDU: Convergence failed at  43  side 2    Res =  0.8029E+01
 MRCHDU: Convergence failed at  44  side 2    Res =  0.8516E+01
 MRCHDU: Convergence failed at  45  side 2    Res =  0.8994E+01
 MRCHDU: Convergence failed at  46  side 2    Res =  0.8974E+01
 MRCHDU: Convergence failed at  47  side 2    Res =  0.9437E+01
 MRCHDU: Convergence failed at  48  side 2    Res =  0.9897E+01
 MRCHDU: Convergence failed at  49  side 2    Res =  0.9632E+01
 MRCHDU: Convergence failed at  50  side 2    Res =  0.9977E+01
 MRCHDU: Convergence failed at  51  side 2    Res =  0.1036E+02
 MRCHDU: Convergence failed at  52  side 2    Res =  0.1069E+02
 MRCHDU: Convergence failed at  53  side 2    Res =  0.1097E+02
 MRCHDU: Convergence failed at  54  side 2    Res =  0.1127E+02
 MRCHDU: Convergence failed at  55  side 2    Res =  0.1161E+02
 MRCHDU: Convergence failed at  56  side 2    Res =  0.1196E+02
 MRCHDU: Convergence failed at  57  side 2    Res =  0.1097E+02
 MRCHDU: Convergence failed at  58  side 2    Res =  0.1125E+02
 MRCHDU: Convergence failed at  59  side 2    Res =  0.1146E+02
 MRCHDU: Convergence failed at  60  side 2    Res =  0.1165E+02
 MRCHDU: Convergence failed at  61  side 2    Res =  0.1171E+02
 MRCHDU: Convergence failed at  62  side 2    Res =  0.1178E+02
 MRCHDU: Convergence failed at  63  side 2    Res =  0.1015E+02
 MRCHDU: Convergence failed at  64  side 2    Res =  0.1026E+02
 MRCHDU: Convergence failed at  65  side 2    Res =  0.1036E+02
 MRCHDU: Convergence failed at  66  side 2    Res =  0.1034E+02
 MRCHDU: Convergence failed at  67  side 2    Res =  0.1024E+02
 MRCHDU: Convergence failed at  68  side 2    Res =  0.1010E+02
 MRCHDU: Convergence failed at  69  side 2    Res =  0.9913E+01
 MRCHDU: Convergence failed at  70  side 2    Res =  0.9503E+01
 MRCHDU: Convergence failed at  71  side 2    Res =  0.9297E+01
 MRCHDU: Convergence failed at  72  side 2    Res =  0.8957E+01
 MRCHDU: Convergence failed at  73  side 2    Res =  0.9123E+01
 MRCHDU: Convergence failed at  74  side 2    Res =  0.9679E+01
 MRCHDU: Convergence failed at  75  side 2    Res =  0.1001E+02
 MRCHDU: Convergence failed at  76  side 2    Res =  0.1216E+02
 MRCHDU: Convergence failed at  77  side 2    Res =  0.1535E+02
 MRCHDU: Convergence failed at  78  side 2    Res =  0.1210E+02
 MRCHDU: Convergence failed at  79  side 2    Res =  0.1155E+02
 MRCHDU: Convergence failed at  80  side 2    Res =  0.7855E+01
 MRCHDU: Convergence failed at  81  side 2    Res =  0.1103E+02
 MRCHDU: Convergence failed at  82  side 2    Res =  0.9331E+01
 MRCHDU: Convergence failed at  83  side 2    Res =  0.8023E+01
 MRCHDU: Convergence failed at  84  side 2    Res =  0.1065E+02
 Side 1  free  transition at x/c =  0.9468   74
 Side 2  free  transition at x/c =  0.0682   22

   6   rms: 0.8090E+00   max: 0.1906E+01   T at   82  2   RLX: 0.787
       a = -4.000      CL = -0.0802
      Cm = -0.0494     CD =  0.01387   =>   CDf =  0.00335    CDp =  0.01052

 Side 1  free  transition at x/c =  0.9422   73
 Side 2  free  transition at x/c =  0.0640   22
 idif Ue xi dudx           1  0.16542701      2.67004967E-03   61.956532    
 Uenew xinew           2  1.05247563E-02  1.69873238E-04

   7   rms: 0.5582E+00   max: 0.2852E+01   T at   22  2   RLX: 0.204
       a = -4.000      CL =  0.0432
      Cm = -0.0941     CD =  0.03822   =>   CDf =  0.00421    CDp =  0.03401

 MRCHDU: Convergence failed at  23  side 2    Res =  0.5600E+01
 MRCHDU: Convergence failed at  24  side 2    Res =  0.4589E+01
 MRCHDU: Convergence failed at  25  side 2    Res =  0.5866E+01
 MRCHDU: Convergence failed at  26  side 2    Res =  0.1200E+02
 MRCHDU: Convergence failed at  27  side 2    Res =  0.8263E+02
 MRCHDU: Convergence failed at  28  side 2    Res =  0.2023E+02
 MRCHDU: Convergence failed at  29  side 2    Res =  0.5947E+01
 MRCHDU: Convergence failed at  30  side 2    Res =  0.8572E+01
 MRCHDU: Convergence failed at  31  side 2    Res =  0.9507E+01
 MRCHDU: Convergence failed at  32  side 2    Res =  0.1251E+02
 MRCHDU: Convergence failed at  33  side 2    Res =  0.1626E+02
 MRCHDU: Convergence failed at  34  side 2    Res =  0.1240E+02
 MRCHDU: Convergence failed at  35  side 2    Res =  0.7419E+01
 MRCHDU: Convergence failed at  36  side 2    Res =  0.6386E+02
 MRCHDU: Convergence failed at  37  side 2    Res =  0.1281E+03
 MRCHDU: Convergence failed at  38  side 2    Res =  0.2174E+03
 MRCHDU: Convergence failed at  39  side 2    Res =  0.2279E+02
 MRCHDU: Convergence failed at  40  side 2    Res =  0.2297E+02
 MRCHDU: Convergence failed at  41  side 2    Res =  0.2392E+02
 MRCHDU: Convergence failed at  42  side 2    Res =  0.2494E+02
 MRCHDU: Convergence failed at  43  side 2    Res =  0.2476E+02
 MRCHDU: Convergence failed at  44  side 2    Res =  0.2587E+02
 MRCHDU: Convergence failed at  45  side 2    Res =  0.2665E+02
 MRCHDU: Convergence failed at  46  side 2    Res =  0.2810E+02
 MRCHDU: Convergence failed at  47  side 2    Res =  0.2964E+02
 MRCHDU: Convergence failed at  48  side 2    Res =  0.2760E+02
 MRCHDU: Convergence failed at  49  side 2    Res =  0.2914E+02
 MRCHDU: Convergence failed at  50  side 2    Res =  0.3069E+02
 MRCHDU: Convergence failed at  51  side 2    Res =  0.3215E+02
 MRCHDU: Convergence failed at  52  side 2    Res =  0.3362E+02
 MRCHDU: Convergence failed at  53  side 2    Res =  0.3518E+02
 MRCHDU: Convergence failed at  54  side 2    Res =  0.3648E+02
 MRCHDU: Convergence failed at  55  side 2    Res =  0.7238E+02
 MRCHDU: Convergence failed at  56  side 2    Res =  0.4573E+02
 MRCHDU: Convergence failed at  57  side 2    Res =  0.6847E+02
 MRCHDU: Convergence failed at  58  side 2    Res =  0.3714E+02
 MRCHDU: Convergence failed at  59  side 2    Res =  0.2569E+02
 MRCHDU: Convergence failed at  60  side 2    Res =  0.2290E+02
 MRCHDU: Convergence failed at  61  side 2    Res =  0.2398E+02
 MRCHDU: Convergence failed at  62  side 2    Res =  0.2510E+02
 MRCHDU: Convergence failed at  63  side 2    Res =  0.2622E+02
 MRCHDU: Convergence failed at  64  side 2    Res =  0.2738E+02
 MRCHDU: Convergence failed at  65  side 2    Res =  0.2857E+02
 MRCHDU: Convergence failed at  66  side 2    Res =  0.2975E+02
 MRCHDU: Convergence failed at  67  side 2    Res =  0.3092E+02
 MRCHDU: Convergence failed at  68  side 2    Res =  0.3214E+02
 MRCHDU: Convergence failed at  69  side 2    Res =  0.3356E+02
 MRCHDU: Convergence failed at  70  side 2    Res =  0.3570E+02
 MRCHDU: Convergence failed at  71  side 2    Res =  0.3811E+02
 MRCHDU: Convergence failed at  72  side 2    Res =  0.4168E+02
 MRCHDU: Convergence failed at  73  side 2    Res =  0.4611E+02
 MRCHDU: Convergence failed at  74  side 2    Res =  0.3889E+02
 MRCHDU: Convergence failed at  75  side 2    Res =  0.4019E+02
 MRCHDU: Convergence failed at  76  side 2    Res =  0.4150E+02
 MRCHDU: Convergence failed at  77  side 2    Res =  0.4280E+02
 MRCHDU: Convergence failed at  78  side 2    Res =  0.4399E+02
 MRCHDU: Convergence failed at  79  side 2    Res =  0.3956E+02
 MRCHDU: Convergence failed at  80  side 2    Res =  0.4647E+02
 MRCHDU: Convergence failed at  81  side 2    Res =  0.4766E+02
 MRCHDU: Convergence failed at  82  side 2    Res =  0.4878E+02
 MRCHDU: Convergence failed at  83  side 2    Res =  0.3774E+02
 MRCHDU: Convergence failed at  84  side 2    Res =  0.3691E+02
 MRCHDU: Convergence failed at  85  side 2    Res =  0.5250E+02
 Side 1  free  transition at x/c =  0.9302   71
 Side 2  free  transition at x/c =  0.0588   22

   8   rms: 0.7020E+00   max: -.2049E+01   T at    2  2   RLX: 0.244
       a = -4.000      CL = -0.6015
      Cm =  0.1183     CD =  0.01125   =>   CDf =  0.00335    CDp =  0.00790

 MRCHDU: Convergence failed at  40  side 2    Res =  0.1933E+00
 MRCHDU: Convergence failed at  41  side 2    Res =  0.1804E+00
 MRCHDU: Convergence failed at  42  side 2    Res =  0.1680E+00
 MRCHDU: Convergence failed at  43  side 2    Res =  0.1556E+00
 MRCHDU: Convergence failed at  44  side 2    Res =  0.1427E+00
 MRCHDU: Convergence failed at  45  side 2    Res =  0.1284E+00
 MRCHDU: Convergence failed at  46  side 2    Res =  0.1130E+00
 MRCHDU: Convergence failed at  47  side 2    Res =  0.9464E-01
 Side 1  free  transition at x/c =  0.9428   73
 Side 2  free  transition at x/c =  0.0688   22
 idif Ue xi dudx           1  0.19866602      3.29113007E-03   60.364075    
 Uenew xinew           2  4.77451831E-02  7.90953636E-04

   9   rms: 0.4805E+00   max: 0.3555E+01   T at   22  2   RLX: 0.351
       a = -4.000      CL = -0.1967
      Cm = -0.0269     CD =  0.03319   =>   CDf =  0.00473    CDp =  0.02845

 MRCHDU: Convergence failed at  23  side 2    Res =  0.1324E+02
 MRCHDU: Convergence failed at  24  side 2    Res =  0.1326E+02
 MRCHDU: Convergence failed at  25  side 2    Res =  0.7056E+01
 MRCHDU: Convergence failed at  26  side 2    Res =  0.1903E+02
 MRCHDU: Convergence failed at  27  side 2    Res =  0.4696E+01
 MRCHDU: Convergence failed at  48  side 2    Res =  0.1328E+00
 MRCHDU: Convergence failed at  49  side 2    Res =  0.3193E+00
 Side 1  free  transition at x/c =  0.9335   72
 Side 2  free  transition at x/c =  0.0525   22

  10   rms: 0.5335E+00   max: -.2855E+01   D at   50  2   RLX: 0.175
       a = -4.000      CL = -0.1431
      Cm = -0.0678     CD =  0.03229   =>   CDf =  0.00388    CDp =  0.02841

 Side 1  free  transition at x/c =  0.9324   72
 Side 2  free  transition at x/c =  0.0517   22

  11   rms: 0.5215E+00   max: -.2314E+01   D at   50  2   RLX: 0.216
       a = -4.000      CL = -0.0982
      Cm = -0.0639     CD =  0.03262   =>   CDf =  0.00429    CDp =  0.02833

 Side 1  free  transition at x/c =  0.9321   72
 Side 2  free  transition at x/c =  0.0525   22

  12   rms: 0.7786E+00   max: -.3672E+01   D at   40  2   RLX: 0.136
       a = -4.000      CL = -0.0698
      Cm = -0.0679     CD =  0.03057   =>   CDf =  0.00468    CDp =  0.02589

 MRCHDU: Convergence failed at  50  side 2    Res =  0.1016E-01
 Side 1  free  transition at x/c =  0.9329   72
 Side 2  free  transition at x/c =  0.0538   22

  13   rms: 0.6941E+00   max: -.3712E+01   D at   40  2   RLX: 0.135
       a = -4.000      CL = -0.0601
      Cm = -0.0678     CD =  0.03067   =>   CDf =  0.00512    CDp =  0.02555

 MRCHDU: Convergence failed at  50  side 2    Res =  0.3625E-01
 Side 1  free  transition at x/c =  0.9334   72
 Side 2  free  transition at x/c =  0.0551   22

  14   rms: 0.4031E+00   max: -.1857E+01   D at   40  2   RLX: 0.269
       a = -4.000      CL = -0.0433
      Cm = -0.0751     CD =  0.02861   =>   CDf =  0.00577    CDp =  0.02284

 MRCHDU: Convergence failed at  29  side 2    Res =  0.3995E+00
 MRCHDU: Convergence failed at  50  side 2    Res =  0.1670E+00
 MRCHDU: Convergence failed at  51  side 2    Res =  0.9209E-01
 Side 1  free  transition at x/c =  0.9306   72
 Side 2  free  transition at x/c =  0.0534   22

  15   rms: 0.3359E+00   max: -.1152E+01   D at   48  2   RLX: 0.434
       a = -4.000      CL = -0.0177
      Cm = -0.0967     CD =  0.02503   =>   CDf =  0.00596    CDp =  0.01907

 Side 1  free  transition at x/c =  0.9260   71
 Side 2  free  transition at x/c =  0.0506   22

  16   rms: 0.3140E+00   max: -.1143E+01   D at   85  2   RLX: 0.437
       a = -4.000      CL =  0.0376
      Cm = -0.1207     CD =  0.02120   =>   CDf =  0.00562    CDp =  0.01558

 Side 1  free  transition at x/c =  0.9198   71
 Side 2  free  transition at x/c =  0.0517   22

  17   rms: 0.5797E+00   max: -.2100E+01   D at   68  2   RLX: 0.238
       a = -4.000      CL =  0.1090
      Cm = -0.1441     CD =  0.01718   =>   CDf =  0.00586    CDp =  0.01132

 Side 1  free  transition at x/c =  0.9240   71
 Side 2  free  transition at x/c =  0.0581   22

  18   rms: 0.5810E+00   max: -.3040E+01   T at   22  2   RLX: 0.164
       a = -4.000      CL =  0.1365
      Cm = -0.1465     CD =  0.01756   =>   CDf =  0.00633    CDp =  0.01123

 MRCHDU: Convergence failed at  23  side 2    Res =  0.2788E+01
 MRCHDU: Convergence failed at  24  side 2    Res =  0.5448E+02
 MRCHDU: Convergence failed at  25  side 2    Res =  0.6783E+01
 MRCHDU: Convergence failed at  26  side 2    Res =  0.2620E+01
 MRCHDU: Convergence failed at  27  side 2    Res =  0.2878E+01
 MRCHDU: Convergence failed at  28  side 2    Res =  0.2632E+01
 MRCHDU: Convergence failed at  29  side 2    Res =  0.5270E+01
 MRCHDU: Convergence failed at  30  side 2    Res =  0.6344E+01
 MRCHDU: Convergence failed at  31  side 2    Res =  0.7166E+01
 MRCHDU: Convergence failed at  32  side 2    Res =  0.7680E+01
 MRCHDU: Convergence failed at  33  side 2    Res =  0.7518E+01
 MRCHDU: Convergence failed at  34  side 2    Res =  0.7562E+01
 MRCHDU: Convergence failed at  35  side 2    Res =  0.1308E+03
 MRCHDU: Convergence failed at  36  side 2    Res =  0.7881E+03
 MRCHDU: Convergence failed at  37  side 2    Res =  0.1400E+02
 MRCHDU: Convergence failed at  38  side 2    Res =  0.2192E+02
 MRCHDU: Convergence failed at  39  side 2    Res =  0.1689E+03
 MRCHDU: Convergence failed at  40  side 2    Res =  0.1183E+02
 MRCHDU: Convergence failed at  41  side 2    Res =  0.1256E+02
 MRCHDU: Convergence failed at  42  side 2    Res =  0.1317E+02
 MRCHDU: Convergence failed at  43  side 2    Res =  0.1777E+02
 MRCHDU: Convergence failed at  44  side 2    Res =  0.1878E+02
 MRCHDU: Convergence failed at  45  side 2    Res =  0.2737E+02
 MRCHDU: Convergence failed at  46  side 2    Res =  0.3564E+02
 MRCHDU: Convergence failed at  47  side 2    Res =  0.5092E+02
 MRCHDU: Convergence failed at  48  side 2    Res =  0.9787E+03
 MRCHDU: Convergence failed at  49  side 2    Res =  0.4306E+03
 MRCHDU: Convergence failed at  50  side 2    Res =  0.1023E+02
 MRCHDU: Convergence failed at  51  side 2    Res =  0.1863E+02
 MRCHDU: Convergence failed at  52  side 2    Res =  0.2561E+02
 MRCHDU: Convergence failed at  53  side 2    Res =  0.3546E+02
 MRCHDU: Convergence failed at  54  side 2    Res =  0.3037E+02
 MRCHDU: Convergence failed at  55  side 2    Res =  0.3261E+02
 MRCHDU: Convergence failed at  56  side 2    Res =  0.3614E+02
 MRCHDU: Convergence failed at  57  side 2    Res =  0.3985E+02
 MRCHDU: Convergence failed at  58  side 2    Res =  0.7980E+02
 MRCHDU: Convergence failed at  59  side 2    Res =  0.8189E+02
 MRCHDU: Convergence failed at  60  side 2    Res =  0.6991E+02
 MRCHDU: Convergence failed at  61  side 2    Res =  0.6596E+02
 MRCHDU: Convergence failed at  62  side 2    Res =  0.6690E+02
 MRCHDU: Convergence failed at  63  side 2    Res =  0.7094E+02
 MRCHDU: Convergence failed at  64  side 2    Res =  0.2030E+03
 MRCHDU: Convergence failed at  65  side 2    Res =  0.8554E+02
 MRCHDU: Convergence failed at  66  side 2    Res =  0.6762E+03
 MRCHDU: Convergence failed at  67  side 2    Res =  0.7890E+02
 MRCHDU: Convergence failed at  68  side 2    Res =  0.8190E+02
 MRCHDU: Convergence failed at  69  side 2    Res =  0.1071E+03
 MRCHDU: Convergence failed at  70  side 2    Res =  0.3535E+02
 MRCHDU: Convergence failed at  71  side 2    Res =  0.4051E+02
 MRCHDU: Convergence failed at  72  side 2    Res =  0.3703E+02
 MRCHDU: Convergence failed at  73  side 2    Res =  0.3406E+02
 MRCHDU: Convergence failed at  74  side 2    Res =  0.3144E+02
 MRCHDU: Convergence failed at  75  side 2    Res =  0.2891E+02
 MRCHDU: Convergence failed at  76  side 2    Res =  0.2598E+02
 MRCHDU: Convergence failed at  77  side 2    Res =  0.1833E+02
 MRCHDU: Convergence failed at  78  side 2    Res =  0.2180E+02
 MRCHDU: Convergence failed at  79  side 2    Res =  0.4449E+02
 MRCHDU: Convergence failed at  80  side 2    Res =  0.3768E+02
 MRCHDU: Convergence failed at  81  side 2    Res =  0.1701E+03
 MRCHDU: Convergence failed at  82  side 2    Res =  0.2447E+03
 MRCHDU: Convergence failed at  83  side 2    Res =  0.1276E+03
 MRCHDU: Convergence failed at  84  side 2    Res =  0.3496E+02
 Side 1  free  transition at x/c =  0.9282   72
 Side 2  free  transition at x/c =  0.0717   22

  19   rms: 0.7204E+00   max: 0.1796E+01   D at   62  2   RLX: 0.536
       a = -4.000      CL = -0.2690
      Cm =  0.0182     CD =  0.01218   =>   CDf =  0.00340    CDp =  0.00878

 MRCHDU: Convergence failed at  29  side 2    Res =  0.6349E-01
 MRCHDU: Convergence failed at  61  side 2    Res =  0.2552E-01
 MRCHDU: Convergence failed at  62  side 2    Res =  0.3713E-04
 Side 1  free  transition at x/c =  0.9510   74
 Side 2  free  transition at x/c =  0.0777   23

  20   rms: 0.4043E+00   max: -.1725E+01   D at   29  2   RLX: 0.290
       a = -4.000      CL = -0.0059
      Cm = -0.0671     CD =  0.03398   =>   CDf =  0.00452    CDp =  0.02946

 MRCHDU: Convergence failed at  29  side 2    Res =  0.2091E+00
 MRCHDU: Convergence failed at  30  side 2    Res =  0.4796E+00
 MRCHDU: Convergence failed at  61  side 2    Res =  0.6643E+00
 MRCHDU: Convergence failed at  62  side 2    Res =  0.1176E+01
 MRCHDU: Convergence failed at  63  side 2    Res =  0.6296E+00
 MRCHDU: Convergence failed at  64  side 2    Res =  0.6143E+00
 MRCHDU: Convergence failed at  65  side 2    Res =  0.5937E+00
 MRCHDU: Convergence failed at  66  side 2    Res =  0.5733E+00
 MRCHDU: Convergence failed at  67  side 2    Res =  0.5527E+00
 MRCHDU: Convergence failed at  68  side 2    Res =  0.5324E+00
 MRCHDU: Convergence failed at  69  side 2    Res =  0.5122E+00
 MRCHDU: Convergence failed at  70  side 2    Res =  0.4919E+00
 MRCHDU: Convergence failed at  71  side 2    Res =  0.4717E+00
 MRCHDU: Convergence failed at  72  side 2    Res =  0.4515E+00
 MRCHDU: Convergence failed at  73  side 2    Res =  0.4315E+00
 MRCHDU: Convergence failed at  74  side 2    Res =  0.4115E+00
 MRCHDU: Convergence failed at  75  side 2    Res =  0.3921E+00
 MRCHDU: Convergence failed at  76  side 2    Res =  0.3727E+00
 MRCHDU: Convergence failed at  77  side 2    Res =  0.3536E+00
 MRCHDU: Convergence failed at  78  side 2    Res =  0.3351E+00
 MRCHDU: Convergence failed at  79  side 2    Res =  0.3171E+00
 MRCHDU: Convergence failed at  80  side 2    Res =  0.2993E+00
 MRCHDU: Convergence failed at  81  side 2    Res =  0.2826E+00
 MRCHDU: Convergence failed at  82  side 2    Res =  0.2675E+00
 MRCHDU: Convergence failed at  83  side 2    Res =  0.2535E+00
 MRCHDU: Convergence failed at  84  side 2    Res =  0.2280E+00
 Side 1  free  transition at x/c =  0.9473   74
 Side 2  free  transition at x/c =  0.0732   22

  21   rms: 0.4369E+00   max: 0.3075E+01   T at   22  2   RLX: 0.188
       a = -4.000      CL =  0.1882
      Cm = -0.1433     CD =  0.03629   =>   CDf =  0.00376    CDp =  0.03253

 Side 1  free  transition at x/c =  0.9427   73
 Side 2  free  transition at x/c =  0.0627   22

  22   rms: 0.1122E+01   max: 0.8841E+01   D at   23  2   RLX: 0.170
       a = -4.000      CL =  0.2470
      Cm = -0.1415     CD =  0.06008   =>   CDf =  0.00375    CDp =  0.05633

 Side 1  free  transition at x/c =  0.9450   74
 Side 2  free  transition at x/c =  0.0731   22

  23   rms: 0.4139E+00   max: 0.3169E+01   T at   22  2   RLX: 0.234
       a = -4.000      CL =  0.2605
      Cm = -0.1476     CD =  0.05038   =>   CDf =  0.00378    CDp =  0.04659

 Side 1  free  transition at x/c =  0.9402   73
 Side 2  free  transition at x/c =  0.0659   22

  24   rms: 0.4797E+02   max: -.4233E+03   T at   22  2   RLX: 0.001
       a = -4.000      CL =  0.2560
      Cm = -0.1390     CD =  0.05858   =>   CDf =  0.00373    CDp =  0.05485

 Side 1  free  transition at x/c =  0.9468   74
 Side 2  free  transition at x/c =  0.0722   22

  25   rms: 0.3848E+00   max: -.2442E+01   T at   23  2   RLX: 0.205
       a = -4.000      CL =  0.2084
      Cm = -0.1272     CD =  0.05348   =>   CDf =  0.00377    CDp =  0.04971

 Side 1  free  transition at x/c =  0.9442   73
 Side 2  free  transition at x/c =  0.0685   22

  26   rms: 0.7096E+00   max: 0.8730E+01   T at   22  2   RLX: 0.158
       a = -4.000      CL =  0.1092
      Cm = -0.1100     CD =  0.05538   =>   CDf =  0.00374    CDp =  0.05164

 Side 1  free  transition at x/c =  0.9186   72
 Side 2  free  transition at x/c =  0.0575   21
 idif Ue xi dudx           1  0.17736791      2.90966034E-03   60.958286    
 Uenew xinew           2  2.49614380E-02  4.09483910E-04

  27   rms: 0.4145E+00   max: 0.2256E+01   T at   21  2   RLX: 0.457
       a = -4.000      CL = -0.0197
      Cm = -0.0998     CD =  0.04540   =>   CDf =  0.00364    CDp =  0.04176

 Side 1  free  transition at x/c =  0.9022   70
 Side 2  free  transition at x/c =  0.0511   22

  28   rms: 0.3725E+00   max: -.3795E+01   T at   22  2   RLX: 0.132
       a = -4.000      CL = -0.0051
      Cm = -0.0989     CD =  0.04993   =>   CDf =  0.00384    CDp =  0.04609

 Side 1  free  transition at x/c =  0.9041   71
 Side 2  free  transition at x/c =  0.0547   21
 idif Ue xi dudx           1  0.16691740      2.75826454E-03   60.515369    
 Uenew xinew           2  1.56182973E-02  2.58088112E-04

  29   rms: 0.7389E+00   max: 0.1051E+02   D at    2  1   RLX: 0.107
       a = -4.000      CL = -0.0257
      Cm = -0.0968     CD =  0.04982   =>   CDf =  0.00373    CDp =  0.04610

 Side 1  free  transition at x/c =  0.9020   70
 Side 2  free  transition at x/c =  0.0528   22

  30   rms: 0.1164E+01   max: 0.7545E+01   T at   22  2   RLX: 0.169
       a = -4.000      CL = -0.0393
      Cm = -0.1051     CD =  0.03935   =>   CDf =  0.00379    CDp =  0.03555

 Side 1  free  transition at x/c =  0.8976   69
 Side 2  free  transition at x/c =  0.0453   21

  31   rms: 0.5691E+00   max: 0.1591E+01   T at   21  2   RLX: 0.324
       a = -4.000      CL = -0.0785
      Cm = -0.1040     CD =  0.03114   =>   CDf =  0.00419    CDp =  0.02694

 Side 1  free  transition at x/c =  0.8899   69
 Side 2  free  transition at x/c =  0.0412   21
 idif Ue xi dudx           1  0.17649999      3.42440605E-03   51.541782    
 Uenew xinew           2  2.34342050E-02  4.54664230E-04

  32   rms: 0.1173E+01   max: -.3409E+01   D at   32  2   RLX: 0.147
       a = -4.000      CL = -0.0874
      Cm = -0.1022     CD =  0.02696   =>   CDf =  0.00478    CDp =  0.02218

 Side 1  free  transition at x/c =  0.8887   68
 Side 2  free  transition at x/c =  0.0393   22

  33   rms: 0.5154E+00   max: -.1574E+01   D at   32  2   RLX: 0.318
       a = -4.000      CL = -0.0808
      Cm = -0.1009     CD =  0.02332   =>   CDf =  0.00546    CDp =  0.01786

 Side 1  free  transition at x/c =  0.8911   68
 Side 2  free  transition at x/c =  0.0396   22

  34   rms: 0.2549E+00   max: -.9166E+00   T at   22  2   RLX: 0.545
       a = -4.000      CL = -0.0487
      Cm = -0.1011     CD =  0.02052   =>   CDf =  0.00644    CDp =  0.01409

 Side 1  free  transition at x/c =  0.8988   69
 Side 2  free  transition at x/c =  0.0431   21

  35   rms: 0.2305E+00   max: -.8182E+00   T at   21  2   RLX: 0.611
       a = -4.000      CL =  0.0054
      Cm = -0.1064     CD =  0.01997   =>   CDf =  0.00664    CDp =  0.01333

 MRCHDU: Convergence failed at  73  side 1    Res =  0.1077E+01
 MRCHDU: Convergence failed at  74  side 1    Res =  0.2809E+01
 MRCHDU: Convergence failed at  75  side 1    Res =  0.2405E+03
 MRCHDU: Convergence failed at  76  side 1    Res =  0.6250E+01
 MRCHDU: Convergence failed at  77  side 1    Res =  0.6030E+01
 Side 1  free  transition at x/c =  0.9236   71
 Side 2  free  transition at x/c =  0.0480   21

  36   rms: 0.1439E+00   max: 0.6752E+00   T at   77  1   RLX: 0.931
       a = -4.000      CL =  0.0008
      Cm = -0.1027     CD =  0.01766   =>   CDf =  0.00720    CDp =  0.01047

 Side 1  free  transition at x/c =  0.9165   71
 Side 2  free  transition at x/c =  0.0481   21

  37   rms: 0.1757E-01   max: 0.1494E+00   D at   72  1
       a = -4.000      CL =  0.0055
      Cm = -0.1031     CD =  0.01946   =>   CDf =  0.00765    CDp =  0.01181

 Side 1  free  transition at x/c =  0.9139   70
 Side 2  free  transition at x/c =  0.0485   21

  38   rms: 0.2457E-01   max: 0.1544E+00   T at   70  1
       a = -4.000      CL = -0.0088
      Cm = -0.1009     CD =  0.01991   =>   CDf =  0.00771    CDp =  0.01220

 Side 1  free  transition at x/c =  0.9068   70
 Side 2  free  transition at x/c =  0.0476   21

  39   rms: 0.1133E-01   max: -.7270E-01   D at   73  1
       a = -4.000      CL = -0.0040
      Cm = -0.1016     CD =  0.01974   =>   CDf =  0.00764    CDp =  0.01210

 Side 1  free  transition at x/c =  0.9092   70
 Side 2  free  transition at x/c =  0.0480   21

  40   rms: 0.1217E-02   max: -.7998E-02   D at   72  1
       a = -4.000      CL = -0.0033
      Cm = -0.1017     CD =  0.01973   =>   CDf =  0.00767    CDp =  0.01206

 Side 1  free  transition at x/c =  0.9095   70
 Side 2  free  transition at x/c =  0.0480   21

  41   rms: 0.1959E-04   max: 0.1878E-03   D at   22  2
       a = -4.000      CL = -0.0033
      Cm = -0.1017     CD =  0.01973   =>   CDf =  0.00767    CDp =  0.01206
 plradd ia,ip,cpol            1           0  1.19695382E-03

 Point added to stored polar  1
 Point written to save file  s4061_Re150k.base.pol                           
 Dump file unspecified or not available
 Calculating wake trajectory ...
 Calculating source influence matrix ...

 Solving BL system ...

 Side 1  free  transition at x/c =  0.9095   70
 Side 2  free  transition at x/c =  0.0480   21

   1   rms: 0.1261E+00   max: -.6236E+00   T at   21  2   RLX: 0.802
       a = -3.500      CL =  0.0420
      Cm = -0.1011     CD =  0.01808   =>   CDf =  0.00767    CDp =  0.01041

 MRCHDU: Convergence failed at  22  side 2    Res =  0.2939E+01
 MRCHDU: Convergence failed at  23  side 2    Res =  0.1669E+02
 MRCHDU: Convergence failed at  24  side 2    Res =  0.1601E+02
 MRCHDU: Convergence failed at  25  side 2    Res =  0.3779E+02
 MRCHDU: Convergence failed at  26  side 2    Res =  0.5177E+02
 MRCHDU: Convergence failed at  27  side 2    Res =  0.4850E+02
 MRCHDU: Convergence failed at  28  side 2    Res =  0.4899E+02
 MRCHDU: Convergence failed at  29  side 2    Res =  0.3417E+02
 MRCHDU: Convergence failed at  30  side 2    Res =  0.2832E+02
 MRCHDU: Convergence failed at  31  side 2    Res =  0.2445E+02
 MRCHDU: Convergence failed at  32  side 2    Res =  0.2240E+02
 MRCHDU: Convergence failed at  33  side 2    Res =  0.2009E+02
 MRCHDU: Convergence failed at  34  side 2    Res =  0.1672E+02
 MRCHDU: Convergence failed at  35  side 2    Res =  0.1830E+02
 MRCHDU: Convergence failed at  36  side 2    Res =  0.1951E+02
 MRCHDU: Convergence failed at  37  side 2    Res =  0.2052E+02
 MRCHDU: Convergence failed at  38  side 2    Res =  0.2151E+02
 MRCHDU: Convergence failed at  39  side 2    Res =  0.3668E+02
 MRCHDU: Convergence failed at  40  side 2    Res =  0.3864E+02
 MRCHDU: Convergence failed at  41  side 2    Res =  0.4064E+02
 MRCHDU: Convergence failed at  42  side 2    Res =  0.4263E+02
 MRCHDU: Convergence failed at  43  side 2    Res =  0.4457E+02
 MRCHDU: Convergence failed at  44  side 2    Res =  0.2864E+02
 MRCHDU: Convergence failed at  45  side 2    Res =  0.2789E+02
 MRCHDU: Convergence failed at  46  side 2    Res =  0.2725E+02
 MRCHDU: Convergence failed at  47  side 2    Res =  0.2672E+02
 MRCHDU: Convergence failed at  48  side 2    Res =  0.2599E+02
 MRCHDU: Convergence failed at  49  side 2    Res =  0.5660E+02
 MRCHDU: Convergence failed at  50  side 2    Res =  0.5870E+02
 MRCHDU: Convergence failed at  51  side 2    Res =  0.3609E+02
 MRCHDU: Convergence failed at  52  side 2    Res =  0.3733E+02
 MRCHDU: Convergence failed at  53  side 2    Res =  0.3853E+02
 MRCHDU: Convergence failed at  54  side 2    Res =  0.3948E+02
 MRCHDU: Convergence failed at  55  side 2    Res =  0.4066E+02
 MRCHDU: Convergence failed at  56  side 2    Res =  0.4193E+02
 MRCHDU: Convergence failed at  57  side 2    Res =  0.4315E+02
 MRCHDU: Convergence failed at  58  side 2    Res =  0.4436E+02
 MRCHDU: Convergence failed at  59  side 2    Res =  0.4570E+02
 MRCHDU: Convergence failed at  60  side 2    Res =  0.4692E+02
 MRCHDU: Convergence failed at  61  side 2    Res =  0.4823E+02
 MRCHDU: Convergence failed at  62  side 2    Res =  0.4950E+02
 MRCHDU: Convergence failed at  63  side 2    Res =  0.5069E+02
 MRCHDU: Convergence failed at  64  side 2    Res =  0.5197E+02
 MRCHDU: Convergence failed at  65  side 2    Res =  0.5321E+02
 MRCHDU: Convergence failed at  66  side 2    Res =  0.5456E+02
 MRCHDU: Convergence failed at  67  side 2    Res =  0.5589E+02
 MRCHDU: Convergence failed at  68  side 2    Res =  0.5729E+02
 MRCHDU: Convergence failed at  69  side 2    Res =  0.5863E+02
 MRCHDU: Convergence failed at  70  side 2    Res =  0.5991E+02
 MRCHDU: Convergence failed at  71  side 2    Res =  0.6119E+02
 MRCHDU: Convergence failed at  72  side 2    Res =  0.6259E+02
 MRCHDU: Convergence failed at  73  side 2    Res =  0.6399E+02
 MRCHDU: Convergence failed at  74  side 2    Res =  0.6553E+02
 MRCHDU: Convergence failed at  75  side 2    Res =  0.6704E+02
 MRCHDU: Convergence failed at  76  side 2    Res =  0.6943E+02
 MRCHDU: Convergence failed at  77  side 2    Res =  0.7150E+02
 MRCHDU: Convergence failed at  78  side 2    Res =  0.6963E+02
 MRCHDU: Convergence failed at  79  side 2    Res =  0.7176E+02
 MRCHDU: Convergence failed at  80  side 2    Res =  0.7120E+02
 MRCHDU: Convergence failed at  81  side 2    Res =  0.6916E+02
 MRCHDU: Convergence failed at  82  side 2    Res =  0.6795E+02
 MRCHDU: Convergence failed at  83  side 2    Res =  0.7410E+02
 MRCHDU: Convergence failed at  84  side 2    Res =  0.8460E+02
 MRCHDU: Convergence failed at  85  side 2    Res =  0.1547E+03
 Side 1  free  transition at x/c =  0.8979   69
 Side 2  free  transition at x/c =  0.0566   22

   2   rms: 0.7640E+00   max: 0.6914E+00   D at   87  2   RLX: 0.466
       a = -3.500      CL = -0.4359
      Cm =  0.0677     CD =  0.01117   =>   CDf =  0.00323    CDp =  0.00794

 Side 1  free  transition at x/c =  0.9179   72
 Side 2  free  transition at x/c =  0.0890   24

   3   rms: 0.3460E+00   max: -.1101E+01   D at   38  2   RLX: 0.454
       a = -3.500      CL = -0.0778
      Cm = -0.0507     CD =  0.02428   =>   CDf =  0.00569    CDp =  0.01859

 Side 1  free  transition at x/c =  0.9152   71
 Side 2  free  transition at x/c =  0.0888   24

   4   rms: 0.4680E+00   max: 0.3500E+01   T at   24  2   RLX: 0.246
       a = -3.500      CL = -0.0478
      Cm = -0.0670     CD =  0.02212   =>   CDf =  0.00567    CDp =  0.01645

 MRCHDU: Convergence failed at  24  side 2    Res =  0.5147E+01
 MRCHDU: Convergence failed at  25  side 2    Res =  0.8808E+01
 Side 1  free  transition at x/c =  0.9049   71
 Side 2  free  transition at x/c =  0.0734   23
 idif Ue xi dudx           1  0.16349854      2.53844261E-03   64.408997    
 Uenew xinew           2  2.46468629E-03  3.82661819E-05

   5   rms: 0.4446E+00   max: 0.1952E+01   T at   23  2   RLX: 0.264
       a = -3.500      CL = -0.0388
      Cm = -0.0771     CD =  0.02031   =>   CDf =  0.00570    CDp =  0.01461

 MRCHDU: Convergence failed at  24  side 2    Res =  0.3313E+01
 Side 1  free  transition at x/c =  0.9026   70
 Side 2  free  transition at x/c =  0.0680   23

   6   rms: 0.5289E+00   max: -.5100E+01   D at    2  2   RLX: 0.098
       a = -3.500      CL = -0.0284
      Cm = -0.0818     CD =  0.02013   =>   CDf =  0.00633    CDp =  0.01380

 Side 1  free  transition at x/c =  0.9030   71
 Side 2  free  transition at x/c =  0.0725   22

   7   rms: 0.1410E+02   max: -.1689E+03   T at   22  2   RLX: 0.003
       a = -3.500      CL = -0.0201
      Cm = -0.0803     CD =  0.02076   =>   CDf =  0.00668    CDp =  0.01408

 MRCHDU: Convergence failed at  24  side 2    Res =  0.1451E+02
 MRCHDU: Convergence failed at  25  side 2    Res =  0.1468E+02
 MRCHDU: Convergence failed at  26  side 2    Res =  0.3500E+01
 MRCHDU: Convergence failed at  27  side 2    Res =  0.5140E+01
 MRCHDU: Convergence failed at  28  side 2    Res =  0.6929E+01
 MRCHDU: Convergence failed at  29  side 2    Res =  0.6963E+01
 MRCHDU: Convergence failed at  30  side 2    Res =  0.3267E+01
 MRCHDU: Convergence failed at  31  side 2    Res =  0.1419E+02
 MRCHDU: Convergence failed at  32  side 2    Res =  0.1762E+02
 MRCHDU: Convergence failed at  33  side 2    Res =  0.1727E+02
 MRCHDU: Convergence failed at  34  side 2    Res =  0.1483E+02
 MRCHDU: Convergence failed at  35  side 2    Res =  0.9380E+01
 MRCHDU: Convergence failed at  36  side 2    Res =  0.1433E+02
 MRCHDU: Convergence failed at  37  side 2    Res =  0.3185E+02
 MRCHDU: Convergence failed at  38  side 2    Res =  0.6415E+02
 MRCHDU: Convergence failed at  40  side 2    Res =  0.9271E+01
 MRCHDU: Convergence failed at  41  side 2    Res =  0.2391E+03
 MRCHDU: Convergence failed at  42  side 2    Res =  0.5522E+03
 MRCHDU: Convergence failed at  43  side 2    Res =  0.1042E+03
 MRCHDU: Convergence failed at  44  side 2    Res =  0.3964E+02
 MRCHDU: Convergence failed at  45  side 2    Res =  0.2070E+02
 MRCHDU: Convergence failed at  46  side 2    Res =  0.1343E+02
 MRCHDU: Convergence failed at  47  side 2    Res =  0.8922E+01
 MRCHDU: Convergence failed at  48  side 2    Res =  0.5917E+01
 MRCHDU: Convergence failed at  49  side 2    Res =  0.5005E+01
 MRCHDU: Convergence failed at  50  side 2    Res =  0.3501E+01
 MRCHDU: Convergence failed at  52  side 2    Res =  0.4049E+02
 MRCHDU: Convergence failed at  53  side 2    Res =  0.4995E+01
 MRCHDU: Convergence failed at  54  side 2    Res =  0.5005E+01
 MRCHDU: Convergence failed at  55  side 2    Res =  0.5317E+01
 MRCHDU: Convergence failed at  56  side 2    Res =  0.5827E+01
 MRCHDU: Convergence failed at  57  side 2    Res =  0.6580E+01
 MRCHDU: Convergence failed at  58  side 2    Res =  0.7689E+01
 MRCHDU: Convergence failed at  59  side 2    Res =  0.9316E+01
 MRCHDU: Convergence failed at  60  side 2    Res =  0.1214E+02
 MRCHDU: Convergence failed at  61  side 2    Res =  0.1766E+02
 MRCHDU: Convergence failed at  62  side 2    Res =  0.3415E+02
 MRCHDU: Convergence failed at  63  side 2    Res =  0.3427E+03
 MRCHDU: Convergence failed at  64  side 2    Res =  0.3572E+02
 MRCHDU: Convergence failed at  65  side 2    Res =  0.1492E+02
 MRCHDU: Convergence failed at  66  side 2    Res =  0.8377E+01
 MRCHDU: Convergence failed at  67  side 2    Res =  0.5218E+01
 MRCHDU: Convergence failed at  68  side 2    Res =  0.9593E+01
 MRCHDU: Convergence failed at  69  side 2    Res =  0.2720E+01
 MRCHDU: Convergence failed at  70  side 2    Res =  0.2673E+01
 MRCHDU: Convergence failed at  71  side 2    Res =  0.5724E+01
 MRCHDU: Convergence failed at  72  side 2    Res =  0.4587E+01
 MRCHDU: Convergence failed at  73  side 2    Res =  0.5087E+01
 MRCHDU: Convergence failed at  74  side 2    Res =  0.5691E+01
 MRCHDU: Convergence failed at  75  side 2    Res =  0.6453E+01
 MRCHDU: Convergence failed at  76  side 2    Res =  0.7332E+01
 MRCHDU: Convergence failed at  77  side 2    Res =  0.8384E+01
 MRCHDU: Convergence failed at  78  side 2    Res =  0.9738E+01
 MRCHDU: Convergence failed at  79  side 2    Res =  0.1145E+02
 MRCHDU: Convergence failed at  80  side 2    Res =  0.1362E+02
 MRCHDU: Convergence failed at  81  side 2    Res =  0.1708E+02
 MRCHDU: Convergence failed at  82  side 2    Res =  0.2585E+02
 MRCHDU: Convergence failed at  83  side 2    Res =  0.5792E+02
 MRCHDU: Convergence failed at  84  side 2    Res =  0.3206E+02
 Side 1  free  transition at x/c =  0.9036   71
 Side 2  free  transition at x/c =  0.0884   24

   8   rms: 0.6251E+00   max: 0.2650E+01   T at   24  2   RLX: 0.566
       a = -3.500      CL = -0.2352
      Cm = -0.0100     CD =  0.01243   =>   CDf =  0.00546    CDp =  0.00697

 MRCHDU: Convergence failed at  24  side 2    Res =  0.1403E+02
 MRCHDU: Convergence failed at  25  side 2    Res =  0.1920E+02
 MRCHDU: Convergence failed at  26  side 2    Res =  0.5042E+01
 Side 1  free  transition at x/c =  0.9018   71
 Side 2  free  transition at x/c =  0.0638   22

   9   rms: 0.2024E+00   max: -.1829E+00   U at   84  2   RLX: 0.695
       a = -3.500      CL = -0.0255
      Cm = -0.0758     CD =  0.01813   =>   CDf =  0.00937    CDp =  0.00875

 Side 1  free  transition at x/c =  0.8998   70
 Side 2  free  transition at x/c =  0.0651   22

  10   rms: 0.7716E-01   max: -.7655E+00   D at   24  2   RLX: 0.653
       a = -3.500      CL =  0.0272
      Cm = -0.0922     CD =  0.01733   =>   CDf =  0.00837    CDp =  0.00896

 Side 1  free  transition at x/c =  0.8971   70
 Side 2  free  transition at x/c =  0.0659   22

  11   rms: 0.2912E-01   max: -.4447E+00   D at   24  2
       a = -3.500      CL =  0.0531
      Cm = -0.1012     CD =  0.01716   =>   CDf =  0.00790    CDp =  0.00926

 Side 1  free  transition at x/c =  0.8965   70
 Side 2  free  transition at x/c =  0.0647   22

  12   rms: 0.5778E-02   max: -.1237E+00   D at   24  2
       a = -3.500      CL =  0.0533
      Cm = -0.1013     CD =  0.01724   =>   CDf =  0.00774    CDp =  0.00951

 Side 1  free  transition at x/c =  0.8965   70
 Side 2  free  transition at x/c =  0.0643   22

  13   rms: 0.5133E-03   max: -.1031E-01   D at   24  2
       a = -3.500      CL =  0.0533
      Cm = -0.1013     CD =  0.01724   =>   CDf =  0.00775    CDp =  0.00949

 Side 1  free  transition at x/c =  0.8965   70
 Side 2  free  transition at x/c =  0.0643   22

  14   rms: 0.4497E-05   max: -.7111E-04   D at   24  2
       a = -3.500      CL =  0.0533
      Cm = -0.1013     CD =  0.01724   =>   CDf =  0.00775    CDp =  0.00949
 plradd ia,ip,cpol            2           0  1.19695382E-03

 Point added to stored polar  1
 Point written to save file  s4061_Re150k.base.pol                           
 Dump file unspecified or not available
 Calculating wake trajectory ...
 Calculating source influence matrix ...

 Solving BL system ...

 Side 1  free  transition at x/c =  0.8965   70
 Side 2  free  transition at x/c =  0.0643   22

   1   rms: 0.1737E+00   max: -.2144E+01   T at   22  2   RLX: 0.233
       a = -3.000      CL =  0.0636
      Cm = -0.1009     CD =  0.01693   =>   CDf =  0.00775    CDp =  0.00918

 Side 1  free  transition at x/c =  0.8919   70
 Side 2  free  transition at x/c =  0.0735   23

   2   rms: 0.8868E+00   max: -.4838E+01   T at   23  2   RLX: 0.103
       a = -3.000      CL =  0.0661
      Cm = -0.1004     CD =  0.01607   =>   CDf =  0.00789    CDp =  0.00818

 MRCHDU: Convergence failed at  70  side 1    Res =  0.1357E-04
 Side 1  free  transition at x/c =  0.8913   70
 Side 2  free  transition at x/c =  0.0845   23

   3   rms: 0.2385E+00   max: -.3582E+01   T at   23  2   RLX: 0.140
       a = -3.000      CL =  0.0703
      Cm = -0.1009     CD =  0.01711   =>   CDf =  0.00772    CDp =  0.00939

 MRCHDU: Convergence failed at  25  side 2    Res =  0.2411E+01
 MRCHDU: Convergence failed at  26  side 2    Res =  0.4712E+01
 MRCHDU: Convergence failed at  27  side 2    Res =  0.3421E+01
 MRCHDU: Convergence failed at  28  side 2    Res =  0.5832E+01
 MRCHDU: Convergence failed at  29  side 2    Res =  0.9502E+01
 MRCHDU: Convergence failed at  30  side 2    Res =  0.1309E+02
 MRCHDU: Convergence failed at  31  side 2    Res =  0.1585E+02
 MRCHDU: Convergence failed at  32  side 2    Res =  0.1741E+02
 MRCHDU: Convergence failed at  33  side 2    Res =  0.1577E+02
 MRCHDU: Convergence failed at  34  side 2    Res =  0.1545E+02
 MRCHDU: Convergence failed at  35  side 2    Res =  0.1209E+02
 MRCHDU: Convergence failed at  36  side 2    Res =  0.1015E+02
 MRCHDU: Convergence failed at  37  side 2    Res =  0.9523E+01
 MRCHDU: Convergence failed at  38  side 2    Res =  0.7709E+01
 MRCHDU: Convergence failed at  39  side 2    Res =  0.2193E+03
 MRCHDU: Convergence failed at  40  side 2    Res =  0.4329E+03
 MRCHDU: Convergence failed at  41  side 2    Res =  0.1203E+02
 MRCHDU: Convergence failed at  42  side 2    Res =  0.8090E+02
 MRCHDU: Convergence failed at  43  side 2    Res =  0.1200E+02
 MRCHDU: Convergence failed at  44  side 2    Res =  0.1234E+02
 MRCHDU: Convergence failed at  45  side 2    Res =  0.1215E+02
 MRCHDU: Convergence failed at  46  side 2    Res =  0.1244E+02
 MRCHDU: Convergence failed at  47  side 2    Res =  0.1276E+02
 MRCHDU: Convergence failed at  48  side 2    Res =  0.1304E+02
 MRCHDU: Convergence failed at  49  side 2    Res =  0.1293E+02
 MRCHDU: Convergence failed at  50  side 2    Res =  0.1321E+02
 MRCHDU: Convergence failed at  51  side 2    Res =  0.1348E+02
 MRCHDU: Convergence failed at  52  side 2    Res =  0.1375E+02
 MRCHDU: Convergence failed at  53  side 2    Res =  0.1745E+02
 MRCHDU: Convergence failed at  54  side 2    Res =  0.1799E+02
 MRCHDU: Convergence failed at  55  side 2    Res =  0.1854E+02
 MRCHDU: Convergence failed at  56  side 2    Res =  0.1909E+02
 MRCHDU: Convergence failed at  57  side 2    Res =  0.1963E+02
 MRCHDU: Convergence failed at  58  side 2    Res =  0.2230E+02
 MRCHDU: Convergence failed at  59  side 2    Res =  0.2232E+02
 MRCHDU: Convergence failed at  60  side 2    Res =  0.2231E+02
 MRCHDU: Convergence failed at  61  side 2    Res =  0.2237E+02
 MRCHDU: Convergence failed at  62  side 2    Res =  0.2859E+02
 MRCHDU: Convergence failed at  63  side 2    Res =  0.8905E+02
 MRCHDU: Convergence failed at  64  side 2    Res =  0.9708E+02
 MRCHDU: Convergence failed at  65  side 2    Res =  0.1693E+03
 MRCHDU: Convergence failed at  66  side 2    Res =  0.3007E+03
 MRCHDU: Convergence failed at  67  side 2    Res =  0.3165E+02
 MRCHDU: Convergence failed at  68  side 2    Res =  0.3268E+02
 MRCHDU: Convergence failed at  69  side 2    Res =  0.3410E+02
 MRCHDU: Convergence failed at  70  side 2    Res =  0.3552E+02
 MRCHDU: Convergence failed at  71  side 2    Res =  0.3679E+02
 MRCHDU: Convergence failed at  72  side 2    Res =  0.3808E+02
 MRCHDU: Convergence failed at  73  side 2    Res =  0.3919E+02
 MRCHDU: Convergence failed at  74  side 2    Res =  0.4065E+02
 MRCHDU: Convergence failed at  75  side 2    Res =  0.4203E+02
 MRCHDU: Convergence failed at  76  side 2    Res =  0.4278E+02
 MRCHDU: Convergence failed at  77  side 2    Res =  0.4327E+02
 MRCHDU: Convergence failed at  78  side 2    Res =  0.4386E+02
 MRCHDU: Convergence failed at  79  side 2    Res =  0.4494E+02
 MRCHDU: Convergence failed at  80  side 2    Res =  0.4461E+02
 MRCHDU: Convergence failed at  81  side 2    Res =  0.4324E+02
 MRCHDU: Convergence failed at  82  side 2    Res =  0.4192E+02
 MRCHDU: Convergence failed at  83  side 2    Res =  0.3973E+02
 MRCHDU: Convergence failed at  84  side 2    Res =  0.3884E+02
 Side 1  free  transition at x/c =  0.8902   70
 Side 2  free  transition at x/c =  0.0992   24

   4   rms: 0.6544E+00   max: -.7655E+01   T at   24  2   RLX: 0.065
       a = -3.000      CL = -0.5403
      Cm =  0.1161     CD =  0.01075   =>   CDf =  0.00337    CDp =  0.00738

 MRCHDU: Convergence failed at  36  side 2    Res =  0.9340E-01
 Side 1  free  transition at x/c =  0.8907   70
 Side 2  free  transition at x/c =  0.1144   25

   5   rms: 0.4743E+00   max: -.3986E+01   T at   25  2   RLX: 0.125
       a = -3.000      CL = -0.2444
      Cm =  0.0202     CD =  0.02704   =>   CDf =  0.00532    CDp =  0.02172

 MRCHDU: Convergence failed at  36  side 2    Res =  0.1474E+00
 MRCHDU: Convergence failed at  37  side 2    Res =  0.4254E+00
 Side 1  free  transition at x/c =  0.8924   70
 Side 2  free  transition at x/c =  0.1347   27

   6   rms: 0.4485E+00   max: -.2837E+01   D at   47  2   RLX: 0.176
       a = -3.000      CL = -0.1408
      Cm = -0.0104     CD =  0.02509   =>   CDf =  0.00485    CDp =  0.02024

 MRCHDU: Convergence failed at  47  side 2    Res =  0.1336E+00
 MRCHDU: Convergence failed at  48  side 2    Res =  0.7730E+00
 MRCHDU: Convergence failed at  49  side 2    Res =  0.8097E+00
 MRCHDU: Convergence failed at  50  side 2    Res =  0.5100E+00
 MRCHDU: Convergence failed at  51  side 2    Res =  0.4877E+00
 MRCHDU: Convergence failed at  52  side 2    Res =  0.4641E+00
 MRCHDU: Convergence failed at  53  side 2    Res =  0.4348E+00
 MRCHDU: Convergence failed at  54  side 2    Res =  0.4047E+00
 MRCHDU: Convergence failed at  55  side 2    Res =  0.3740E+00
 MRCHDU: Convergence failed at  56  side 2    Res =  0.3429E+00
 MRCHDU: Convergence failed at  57  side 2    Res =  0.3116E+00
 MRCHDU: Convergence failed at  58  side 2    Res =  0.2800E+00
 MRCHDU: Convergence failed at  59  side 2    Res =  0.2484E+00
 MRCHDU: Convergence failed at  60  side 2    Res =  0.2167E+00
 MRCHDU: Convergence failed at  61  side 2    Res =  0.1850E+00
 MRCHDU: Convergence failed at  62  side 2    Res =  0.1533E+00
 MRCHDU: Convergence failed at  63  side 2    Res =  0.1214E+00
 MRCHDU: Convergence failed at  64  side 2    Res =  0.8866E-01
 Side 1  free  transition at x/c =  0.8929   70
 Side 2  free  transition at x/c =  0.1441   27

   7   rms: 0.5973E+00   max: -.7376E+01   C at   27  2   RLX: 0.068
       a = -3.000      CL = -0.0071
      Cm = -0.0563     CD =  0.02107   =>   CDf =  0.00476    CDp =  0.01631

 MRCHDU: Convergence failed at  64  side 2    Res =  0.4365E+00
 MRCHDU: Convergence failed at  65  side 2    Res =  0.5444E+00
 MRCHDU: Convergence failed at  66  side 2    Res =  0.7440E-01
 MRCHDU: Convergence failed at  68  side 2    Res =  0.7123E-04
 Side 1  free  transition at x/c =  0.8904   70
 Side 2  free  transition at x/c =  0.1313   27

   8   rms: 0.1821E+01   max: -.2211E+02   T at   27  2   RLX: 0.023
       a = -3.000      CL =  0.0535
      Cm = -0.0780     CD =  0.02285   =>   CDf =  0.00461    CDp =  0.01823

 MRCHDU: Convergence failed at  66  side 2    Res =  0.1192E+00
 MRCHDU: Convergence failed at  67  side 2    Res =  0.3987E+00
 MRCHDU: Convergence failed at  68  side 2    Res =  0.9159E+00
 MRCHDU: Convergence failed at  69  side 2    Res =  0.5783E+00
 MRCHDU: Convergence failed at  70  side 2    Res =  0.5681E+00
 MRCHDU: Convergence failed at  71  side 2    Res =  0.5535E+00
 MRCHDU: Convergence failed at  72  side 2    Res =  0.5386E+00
 MRCHDU: Convergence failed at  73  side 2    Res =  0.5233E+00
 MRCHDU: Convergence failed at  74  side 2    Res =  0.5078E+00
 MRCHDU: Convergence failed at  75  side 2    Res =  0.4920E+00
 MRCHDU: Convergence failed at  76  side 2    Res =  0.4761E+00
 MRCHDU: Convergence failed at  77  side 2    Res =  0.4602E+00
 MRCHDU: Convergence failed at  78  side 2    Res =  0.4444E+00
 MRCHDU: Convergence failed at  79  side 2    Res =  0.4287E+00
 MRCHDU: Convergence failed at  80  side 2    Res =  0.4135E+00
 MRCHDU: Convergence failed at  81  side 2    Res =  0.3996E+00
 MRCHDU: Convergence failed at  82  side 2    Res =  0.3889E+00
 MRCHDU: Convergence failed at  83  side 2    Res =  0.3819E+00
 MRCHDU: Convergence failed at  84  side 2    Res =  0.3847E+00
 Side 1  free  transition at x/c =  0.8920   70
 Side 2  free  transition at x/c =  0.1440   27

   9   rms: 0.7895E+00   max: -.7046E+01   C at   27  2   RLX: 0.071
       a = -3.000      CL =  0.1491
      Cm = -0.1444     CD =  0.03185   =>   CDf =  0.00411    CDp =  0.02773

 Side 1  free  transition at x/c =  0.8881   70
 Side 2  free  transition at x/c =  0.1348   27

  10   rms: 0.1063E+01   max: 0.7291E+01   T at   27  2   RLX: 0.133
       a = -3.000      CL =  0.1210
      Cm = -0.1516     CD =  0.03036   =>   CDf =  0.00409    CDp =  0.02626

 MRCHDU: Convergence failed at  27  side 2    Res =  0.2461E+01
 Side 1  free  transition at x/c =  0.8817   69
 Side 2  free  transition at x/c =  0.1076   25
 idif Ue xi dudx           1  0.19318630      3.01051140E-03   64.170593    
 Uenew xinew           2  3.27484980E-02  5.10334969E-04

  11   rms: 0.1325E+01   max: 0.1439E+02   T at   25  2   RLX: 0.080
       a = -3.000      CL =  0.0970
      Cm = -0.1527     CD =  0.03184   =>   CDf =  0.00403    CDp =  0.02781

 MRCHDU: Convergence failed at  26  side 2    Res =  0.4320E+01
 MRCHDU: Convergence failed at  27  side 2    Res =  0.4009E+01
 MRCHDU: Convergence failed at  56  side 2    Res =  0.1863E+02
 MRCHDU: Convergence failed at  57  side 2    Res =  0.6461E+01
 MRCHDU: Convergence failed at  58  side 2    Res =  0.4755E+01
 MRCHDU: Convergence failed at  59  side 2    Res =  0.4287E+01
 MRCHDU: Convergence failed at  60  side 2    Res =  0.4232E+01
 MRCHDU: Convergence failed at  61  side 2    Res =  0.4394E+01
 MRCHDU: Convergence failed at  62  side 2    Res =  0.4833E+01
 MRCHDU: Convergence failed at  63  side 2    Res =  0.5451E+01
 MRCHDU: Convergence failed at  64  side 2    Res =  0.6388E+01
 MRCHDU: Convergence failed at  65  side 2    Res =  0.8060E+01
 MRCHDU: Convergence failed at  66  side 2    Res =  0.1198E+02
 MRCHDU: Convergence failed at  67  side 2    Res =  0.2152E+02
 MRCHDU: Convergence failed at  68  side 2    Res =  0.3536E+02
 MRCHDU: Convergence failed at  69  side 2    Res =  0.8139E+02
 MRCHDU: Convergence failed at  70  side 2    Res =  0.2256E+03
 MRCHDU: Convergence failed at  71  side 2    Res =  0.4281E+02
 MRCHDU: Convergence failed at  72  side 2    Res =  0.2272E+02
 MRCHDU: Convergence failed at  73  side 2    Res =  0.1510E+02
 MRCHDU: Convergence failed at  74  side 2    Res =  0.1117E+02
 MRCHDU: Convergence failed at  75  side 2    Res =  0.8821E+01
 MRCHDU: Convergence failed at  76  side 2    Res =  0.7071E+01
 MRCHDU: Convergence failed at  77  side 2    Res =  0.5919E+01
 MRCHDU: Convergence failed at  78  side 2    Res =  0.5146E+01
 MRCHDU: Convergence failed at  79  side 2    Res =  0.4530E+01
 MRCHDU: Convergence failed at  80  side 2    Res =  0.3963E+01
 MRCHDU: Convergence failed at  81  side 2    Res =  0.3588E+01
 MRCHDU: Convergence failed at  82  side 2    Res =  0.3201E+01
 MRCHDU: Convergence failed at  83  side 2    Res =  0.2998E+01
 MRCHDU: Convergence failed at  84  side 2    Res =  0.2863E+01
 MRCHDU: Convergence failed at  85  side 2    Res =  0.2931E+01
 Side 1  free  transition at x/c =  0.8675   67
 Side 2  free  transition at x/c =  0.0769   24

  12   rms: 0.1101E+01   max: 0.8946E+01   T at   24  2   RLX: 0.145
       a = -3.000      CL = -0.0527
      Cm = -0.1023     CD =  0.02576   =>   CDf =  0.00379    CDp =  0.02197

 MRCHDU: Convergence failed at  24  side 2    Res =  0.5896E+01
 MRCHDU: Convergence failed at  25  side 2    Res =  0.1112E+03
 MRCHDU: Convergence failed at  26  side 2    Res =  0.4164E+01
 MRCHDU: Convergence failed at  27  side 2    Res =  0.9707E+01
 MRCHDU: Convergence failed at  28  side 2    Res =  0.3724E+01
 MRCHDU: Convergence failed at  29  side 2    Res =  0.8453E+02
 MRCHDU: Convergence failed at  48  side 2    Res =  0.9303E+00
 MRCHDU: Convergence failed at  49  side 2    Res =  0.1289E+01
 MRCHDU: Convergence failed at  50  side 2    Res =  0.1594E+01
 MRCHDU: Convergence failed at  51  side 2    Res =  0.1969E+01
 MRCHDU: Convergence failed at  52  side 2    Res =  0.2342E+01
 MRCHDU: Convergence failed at  53  side 2    Res =  0.2739E+01
 MRCHDU: Convergence failed at  54  side 2    Res =  0.3098E+01
 MRCHDU: Convergence failed at  55  side 2    Res =  0.3331E+01
 MRCHDU: Convergence failed at  56  side 2    Res =  0.3510E+01
 MRCHDU: Convergence failed at  57  side 2    Res =  0.3581E+01
 MRCHDU: Convergence failed at  58  side 2    Res =  0.3615E+01
 MRCHDU: Convergence failed at  59  side 2    Res =  0.3612E+01
 MRCHDU: Convergence failed at  60  side 2    Res =  0.3584E+01
 MRCHDU: Convergence failed at  61  side 2    Res =  0.3460E+01
 MRCHDU: Convergence failed at  62  side 2    Res =  0.3389E+01
 MRCHDU: Convergence failed at  63  side 2    Res =  0.3302E+01
 MRCHDU: Convergence failed at  64  side 2    Res =  0.3208E+01
 MRCHDU: Convergence failed at  65  side 2    Res =  0.3106E+01
 MRCHDU: Convergence failed at  66  side 2    Res =  0.3004E+01
 MRCHDU: Convergence failed at  67  side 2    Res =  0.2901E+01
 MRCHDU: Convergence failed at  68  side 2    Res =  0.2820E+01
 MRCHDU: Convergence failed at  69  side 2    Res =  0.2723E+01
 MRCHDU: Convergence failed at  70  side 2    Res =  0.2629E+01
 MRCHDU: Convergence failed at  71  side 2    Res =  0.2360E+01
 MRCHDU: Convergence failed at  72  side 2    Res =  0.2282E+01
 MRCHDU: Convergence failed at  73  side 2    Res =  0.2207E+01
 MRCHDU: Convergence failed at  74  side 2    Res =  0.2138E+01
 MRCHDU: Convergence failed at  75  side 2    Res =  0.2070E+01
 MRCHDU: Convergence failed at  76  side 2    Res =  0.2008E+01
 MRCHDU: Convergence failed at  77  side 2    Res =  0.1947E+01
 MRCHDU: Convergence failed at  78  side 2    Res =  0.1890E+01
 MRCHDU: Convergence failed at  79  side 2    Res =  0.1836E+01
 MRCHDU: Convergence failed at  80  side 2    Res =  0.1785E+01
 MRCHDU: Convergence failed at  81  side 2    Res =  0.1736E+01
 MRCHDU: Convergence failed at  82  side 2    Res =  0.1693E+01
 MRCHDU: Convergence failed at  83  side 2    Res =  0.1582E+01
 MRCHDU: Convergence failed at  84  side 2    Res =  0.1619E+01
 MRCHDU: Convergence failed at  85  side 2    Res =  0.1672E+01
 Side 1  free  transition at x/c =  0.8541   66
 Side 2  free  transition at x/c =  0.0579   22

  13   rms: 0.9255E+00   max: -.3313E+01   D at   44  2   RLX: 0.151
       a = -3.000      CL = -0.2114
      Cm = -0.0584     CD =  0.02294   =>   CDf =  0.00358    CDp =  0.01936

 Side 1  free  transition at x/c =  0.8528   66
 Side 2  free  transition at x/c =  0.0552   22

  14   rms: 0.6632E+00   max: -.3066E+01   T at   22  2   RLX: 0.163
       a = -3.000      CL = -0.1263
      Cm = -0.0691     CD =  0.02076   =>   CDf =  0.00612    CDp =  0.01465

 Side 1  free  transition at x/c =  0.8685   67
 Side 2  free  transition at x/c =  0.0682   23

  15   rms: 0.5329E+00   max: -.3664E+01   T at   23  2   RLX: 0.136
       a = -3.000      CL = -0.0834
      Cm = -0.0762     CD =  0.01744   =>   CDf =  0.00675    CDp =  0.01069

 Side 1  free  transition at x/c =  0.8714   68
 Side 2  free  transition at x/c =  0.0852   24

  16   rms: 0.5335E+00   max: -.4011E+01   T at   24  2   RLX: 0.125
       a = -3.000      CL = -0.0618
      Cm = -0.0792     CD =  0.01613   =>   CDf =  0.00746    CDp =  0.00867

 MRCHDU: Convergence failed at  31  side 2    Res =  0.1141E+01
 MRCHDU: Convergence failed at  32  side 2    Res =  0.1347E+01
 MRCHDU: Convergence failed at  33  side 2    Res =  0.1705E+01
 MRCHDU: Convergence failed at  34  side 2    Res =  0.1774E+01
 MRCHDU: Convergence failed at  35  side 2    Res =  0.4772E+01
 MRCHDU: Convergence failed at  36  side 2    Res =  0.3774E+02
 MRCHDU: Convergence failed at  37  side 2    Res =  0.2645E+01
 MRCHDU: Convergence failed at  38  side 2    Res =  0.3009E+01
 MRCHDU: Convergence failed at  39  side 2    Res =  0.5395E+02
 MRCHDU: Convergence failed at  40  side 2    Res =  0.7100E+01
 MRCHDU: Convergence failed at  41  side 2    Res =  0.1536E+02
 MRCHDU: Convergence failed at  42  side 2    Res =  0.1004E+03
 MRCHDU: Convergence failed at  43  side 2    Res =  0.1573E+02
 MRCHDU: Convergence failed at  44  side 2    Res =  0.8212E+01
 MRCHDU: Convergence failed at  45  side 2    Res =  0.6027E+01
 MRCHDU: Convergence failed at  46  side 2    Res =  0.4537E+01
 MRCHDU: Convergence failed at  47  side 2    Res =  0.3777E+01
 MRCHDU: Convergence failed at  48  side 2    Res =  0.4132E+01
 MRCHDU: Convergence failed at  49  side 2    Res =  0.4641E+01
 MRCHDU: Convergence failed at  50  side 2    Res =  0.5523E+01
 MRCHDU: Convergence failed at  51  side 2    Res =  0.6949E+01
 MRCHDU: Convergence failed at  52  side 2    Res =  0.1033E+02
 MRCHDU: Convergence failed at  53  side 2    Res =  0.1957E+02
 MRCHDU: Convergence failed at  54  side 2    Res =  0.1126E+03
 MRCHDU: Convergence failed at  55  side 2    Res =  0.3463E+02
 MRCHDU: Convergence failed at  56  side 2    Res =  0.1532E+02
 MRCHDU: Convergence failed at  57  side 2    Res =  0.1047E+02
 MRCHDU: Convergence failed at  58  side 2    Res =  0.8147E+01
 MRCHDU: Convergence failed at  59  side 2    Res =  0.6820E+01
 MRCHDU: Convergence failed at  60  side 2    Res =  0.5979E+01
 MRCHDU: Convergence failed at  61  side 2    Res =  0.5296E+01
 MRCHDU: Convergence failed at  62  side 2    Res =  0.4869E+01
 MRCHDU: Convergence failed at  63  side 2    Res =  0.4533E+01
 MRCHDU: Convergence failed at  64  side 2    Res =  0.4300E+01
 MRCHDU: Convergence failed at  65  side 2    Res =  0.4089E+01
 MRCHDU: Convergence failed at  66  side 2    Res =  0.3915E+01
 MRCHDU: Convergence failed at  67  side 2    Res =  0.3780E+01
 MRCHDU: Convergence failed at  68  side 2    Res =  0.3670E+01
 MRCHDU: Convergence failed at  69  side 2    Res =  0.3580E+01
 MRCHDU: Convergence failed at  70  side 2    Res =  0.3487E+01
 MRCHDU: Convergence failed at  71  side 2    Res =  0.3417E+01
 MRCHDU: Convergence failed at  72  side 2    Res =  0.3359E+01
 MRCHDU: Convergence failed at  73  side 2    Res =  0.3312E+01
 MRCHDU: Convergence failed at  74  side 2    Res =  0.3277E+01
 MRCHDU: Convergence failed at  75  side 2    Res =  0.3252E+01
 MRCHDU: Convergence failed at  76  side 2    Res =  0.3239E+01
 MRCHDU: Convergence failed at  77  side 2    Res =  0.3242E+01
 MRCHDU: Convergence failed at  78  side 2    Res =  0.3255E+01
 MRCHDU: Convergence failed at  79  side 2    Res =  0.3284E+01
 MRCHDU: Convergence failed at  80  side 2    Res =  0.3321E+01
 MRCHDU: Convergence failed at  81  side 2    Res =  0.3394E+01
 MRCHDU: Convergence failed at  82  side 2    Res =  0.3532E+01
 MRCHDU: Convergence failed at  83  side 2    Res =  0.3767E+01
 MRCHDU: Convergence failed at  84  side 2    Res =  0.4122E+01
 MRCHDU: Convergence failed at  85  side 2    Res =  0.4732E+01
 Side 1  free  transition at x/c =  0.8723   68
 Side 2  free  transition at x/c =  0.1041   26

  17   rms: 0.5407E+00   max: -.2758E+01   C at   26  2   RLX: 0.181
       a = -3.000      CL = -0.6549
      Cm =  0.1432     CD =  0.01082   =>   CDf =  0.01375    CDp = -0.00292

 Side 1  free  transition at x/c =  0.8736   69
 Side 2  free  transition at x/c =  0.1211   26

  18   rms: 0.4305E+00   max: -.2164E+01   C at   26  2   RLX: 0.231
       a = -3.000      CL = -0.4618
      Cm =  0.0797     CD =  0.01257   =>   CDf =  0.01172    CDp =  0.00085

 Side 1  free  transition at x/c =  0.8750   69
 Side 2  free  transition at x/c =  0.1301   27

  19   rms: 0.3266E+00   max: 0.3459E+00   D at   86  2   RLX: 0.555
       a = -3.000      CL = -0.1346
      Cm = -0.0258     CD =  0.01353   =>   CDf =  0.01068    CDp =  0.00285

 Side 1  free  transition at x/c =  0.8782   69
 Side 2  free  transition at x/c =  0.1624   29

  20   rms: 0.1842E+00   max: 0.6297E+00   C at   29  2
       a = -3.000      CL =  0.1049
      Cm = -0.1004     CD =  0.01549   =>   CDf =  0.00866    CDp =  0.00682

 Side 1  free  transition at x/c =  0.8821   69
 Side 2  free  transition at x/c =  0.1562   28

  21   rms: 0.8420E-02   max: -.8114E-01   D at   30  2
       a = -3.000      CL =  0.1077
      Cm = -0.1008     CD =  0.01609   =>   CDf =  0.00752    CDp =  0.00857

 Side 1  free  transition at x/c =  0.8829   69
 Side 2  free  transition at x/c =  0.1543   28

  22   rms: 0.3602E-03   max: -.2621E-02   T at   28  2
       a = -3.000      CL =  0.1078
      Cm = -0.1008     CD =  0.01609   =>   CDf =  0.00752    CDp =  0.00857

 Side 1  free  transition at x/c =  0.8829   69
 Side 2  free  transition at x/c =  0.1544   28

  23   rms: 0.1428E-05   max: 0.1022E-04   T at   69  1
       a = -3.000      CL =  0.1078
      Cm = -0.1008     CD =  0.01609   =>   CDf =  0.00752    CDp =  0.00857
 plradd ia,ip,cpol            3           0  2.31867447E-03

 Point added to stored polar  1
 Point written to save file  s4061_Re150k.base.pol                           
 Dump file unspecified or not available
 Calculating wake trajectory ...
 Calculating source influence matrix ...

 Solving BL system ...

 Side 1  free  transition at x/c =  0.8829   69
 Side 2  free  transition at x/c =  0.1544   28

   1   rms: 0.1609E+00   max: -.2026E+01   T at   28  2   RLX: 0.247
       a = -2.500      CL =  0.1188
      Cm = -0.1005     CD =  0.01614   =>   CDf =  0.00752    CDp =  0.00862

 Side 1  free  transition at x/c =  0.8774   69
 Side 2  free  transition at x/c =  0.1739   29

   2   rms: 0.1605E+00   max: -.2091E+01   T at   29  2   RLX: 0.239
       a = -2.500      CL =  0.1296
      Cm = -0.1002     CD =  0.01638   =>   CDf =  0.00763    CDp =  0.00875

 MRCHDU: Convergence failed at  31  side 2    Res =  0.8719E+01
 MRCHDU: Convergence failed at  32  side 2    Res =  0.4615E+01
 MRCHDU: Convergence failed at  33  side 2    Res =  0.1680E+02
 MRCHDU: Convergence failed at  34  side 2    Res =  0.3004E+03
 MRCHDU: Convergence failed at  35  side 2    Res =  0.3942E+02
 MRCHDU: Convergence failed at  36  side 2    Res =  0.3117E+02
 MRCHDU: Convergence failed at  37  side 2    Res =  0.3070E+02
 MRCHDU: Convergence failed at  38  side 2    Res =  0.3393E+02
 MRCHDU: Convergence failed at  39  side 2    Res =  0.2883E+02
 MRCHDU: Convergence failed at  40  side 2    Res =  0.3421E+02
 MRCHDU: Convergence failed at  41  side 2    Res =  0.4676E+02
 MRCHDU: Convergence failed at  42  side 2    Res =  0.7709E+02
 MRCHDU: Convergence failed at  43  side 2    Res =  0.2125E+03
 MRCHDU: Convergence failed at  44  side 2    Res =  0.4426E+03
 MRCHDU: Convergence failed at  45  side 2    Res =  0.1224E+03
 MRCHDU: Convergence failed at  46  side 2    Res =  0.7035E+02
 MRCHDU: Convergence failed at  47  side 2    Res =  0.5165E+02
 MRCHDU: Convergence failed at  48  side 2    Res =  0.4146E+02
 MRCHDU: Convergence failed at  49  side 2    Res =  0.3723E+02
 MRCHDU: Convergence failed at  50  side 2    Res =  0.3146E+02
 MRCHDU: Convergence failed at  51  side 2    Res =  0.2822E+02
 MRCHDU: Convergence failed at  52  side 2    Res =  0.2573E+02
 MRCHDU: Convergence failed at  53  side 2    Res =  0.2375E+02
 MRCHDU: Convergence failed at  54  side 2    Res =  0.2202E+02
 MRCHDU: Convergence failed at  55  side 2    Res =  0.2060E+02
 MRCHDU: Convergence failed at  56  side 2    Res =  0.1954E+02
 MRCHDU: Convergence failed at  57  side 2    Res =  0.1865E+02
 MRCHDU: Convergence failed at  58  side 2    Res =  0.1784E+02
 MRCHDU: Convergence failed at  59  side 2    Res =  0.1717E+02
 MRCHDU: Convergence failed at  60  side 2    Res =  0.1659E+02
 MRCHDU: Convergence failed at  61  side 2    Res =  0.1604E+02
 MRCHDU: Convergence failed at  62  side 2    Res =  0.1561E+02
 MRCHDU: Convergence failed at  63  side 2    Res =  0.1520E+02
 MRCHDU: Convergence failed at  64  side 2    Res =  0.1486E+02
[...]
 MRCHDU: Convergence failed at  81  side 1    Res =  0.1432E+01
 MRCHDU: Convergence failed at  82  side 1    Res =  0.1128E+01
 MRCHDU: Convergence failed at  83  side 1    Res =  0.9514E+00
 MRCHDU: Convergence failed at  84  side 1    Res =  0.1043E+01
 MRCHDU: Convergence failed at  85  side 1    Res =  0.1129E+01
 MRCHDU: Convergence failed at  86  side 1    Res =  0.2130E+01
 MRCHDU: Convergence failed at  87  side 1    Res =  0.3120E+01
 MRCHDU: Convergence failed at  88  side 1    Res =  0.4175E+01
 MRCHDU: Convergence failed at  89  side 1    Res =  0.6317E+01
 MRCHDU: Convergence failed at  90  side 1    Res =  0.2642E+00
 Side 1  free  transition at x/c =  0.0302   25
 Side 2 forced transition at x/c =  1.0000   68

   2   rms: 0.1478E+00   max: 0.1038E+01   D at   91  1
       a = 13.250      CL =  1.4273
      Cm = -0.0364     CD =  0.05798   =>   CDf =  0.00662    CDp =  0.05135

 Side 1  free  transition at x/c =  0.0305   25
 Side 2 forced transition at x/c =  1.0000   68

   3   rms: 0.9864E-01   max: 0.6976E+00   D at   91  1
       a = 13.250      CL =  1.3656
      Cm = -0.0338     CD =  0.05808   =>   CDf =  0.00694    CDp =  0.05114

 Side 1  free  transition at x/c =  0.0321   25
 Side 2 forced transition at x/c =  1.0000   68

   4   rms: 0.2396E-01   max: -.1386E+00   D at   91  1
       a = 13.250      CL =  1.3793
      Cm = -0.0343     CD =  0.05720   =>   CDf =  0.00712    CDp =  0.05007

 Side 1  free  transition at x/c =  0.0318   25
 Side 2 forced transition at x/c =  1.0000   68

   5   rms: 0.2545E-02   max: -.1243E-01   D at   85  2
       a = 13.250      CL =  1.3804
      Cm = -0.0343     CD =  0.05742   =>   CDf =  0.00702    CDp =  0.05040

 Side 1  free  transition at x/c =  0.0318   25
 Side 2 forced transition at x/c =  1.0000   68

   6   rms: 0.1828E-03   max: -.6900E-03   D at   82  2
       a = 13.250      CL =  1.3805
      Cm = -0.0344     CD =  0.05744   =>   CDf =  0.00702    CDp =  0.05042

 Side 1  free  transition at x/c =  0.0318   25
 Side 2 forced transition at x/c =  1.0000   68

   7   rms: 0.8226E-05   max: 0.4534E-04   C at   68  2
       a = 13.250      CL =  1.3805
      Cm = -0.0344     CD =  0.05744   =>   CDf =  0.00702    CDp =  0.05042
 plradd ia,ip,cpol           43           0  1.31754670E-04

 Point added to stored polar  1
 Point written to save file  s4061_Re150k.base.pol                           
 Dump file unspecified or not available
 Calculating wake trajectory ...
 Calculating source influence matrix ...

 Solving BL system ...

 Side 1  free  transition at x/c =  0.0318   25
 Side 2 forced transition at x/c =  1.0000   68

   1   rms: 0.3337E-01   max: 0.1192E+00   T at   25  1   RLX: 0.825
       a = 13.500      CL =  1.3808
      Cm = -0.0337     CD =  0.06015   =>   CDf =  0.00702    CDp =  0.05312

 Side 1  free  transition at x/c =  0.0312   25
 Side 2 forced transition at x/c =  1.0000   68

   2   rms: 0.6704E-02   max: 0.3264E-01   D at   75  1
       a = 13.500      CL =  1.3775
      Cm = -0.0336     CD =  0.06066   =>   CDf =  0.00675    CDp =  0.05391

 Side 1  free  transition at x/c =  0.0312   25
 Side 2 forced transition at x/c =  1.0000   68

   3   rms: 0.3098E-03   max: 0.4276E-02   D at   82  2
       a = 13.500      CL =  1.3773
      Cm = -0.0336     CD =  0.06057   =>   CDf =  0.00672    CDp =  0.05384

 Side 1  free  transition at x/c =  0.0312   25
 Side 2 forced transition at x/c =  1.0000   68

   4   rms: 0.1402E-04   max: -.5226E-04   C at   68  2
       a = 13.500      CL =  1.3773
      Cm = -0.0336     CD =  0.06056   =>   CDf =  0.00672    CDp =  0.05384
 plradd ia,ip,cpol           44           0  1.31754670E-04

 Point added to stored polar  1
 Point written to save file  s4061_Re150k.base.pol                           
 Dump file unspecified or not available
 Calculating wake trajectory ...
 Calculating source influence matrix ...

 Solving BL system ...

 Side 1  free  transition at x/c =  0.0312   25
 Side 2 forced transition at x/c =  1.0000   68

   1   rms: 0.3459E-01   max: 0.9822E-01   D at   66  1   RLX: 0.784
       a = 13.750      CL =  1.3779
      Cm = -0.0332     CD =  0.06348   =>   CDf =  0.00673    CDp =  0.05676

 Side 1  free  transition at x/c =  0.0308   25
 Side 2 forced transition at x/c =  1.0000   68

   2   rms: 0.9061E-02   max: 0.3565E-01   D at   74  1
       a = 13.750      CL =  1.3742
      Cm = -0.0331     CD =  0.06423   =>   CDf =  0.00648    CDp =  0.05775

 Side 1  free  transition at x/c =  0.0307   25
 Side 2 forced transition at x/c =  1.0000   68

   3   rms: 0.6811E-03   max: 0.4071E-02   D at   73  1
       a = 13.750      CL =  1.3737
      Cm = -0.0330     CD =  0.06410   =>   CDf =  0.00644    CDp =  0.05767

 Side 1  free  transition at x/c =  0.0308   25
 Side 2 forced transition at x/c =  1.0000   68

   4   rms: 0.3651E-04   max: 0.1186E-03   T at   25  1
       a = 13.750      CL =  1.3737
      Cm = -0.0330     CD =  0.06409   =>   CDf =  0.00644    CDp =  0.05766
 plradd ia,ip,cpol           45           0  1.31754670E-04

 Point added to stored polar  1
 Point written to save file  s4061_Re150k.base.pol                           
 Dump file unspecified or not available
 Calculating wake trajectory ...
 Calculating source influence matrix ...

 Solving BL system ...

 Side 1  free  transition at x/c =  0.0308   25
 Side 2 forced transition at x/c =  1.0000   68

   1   rms: 0.3523E-01   max: 0.1097E+00   D at   66  1   RLX: 0.742
       a = 14.000      CL =  1.3710
      Cm = -0.0329     CD =  0.06720   =>   CDf =  0.00644    CDp =  0.06076

 Side 1  free  transition at x/c =  0.0303   25
 Side 2 forced transition at x/c =  1.0000   68

   2   rms: 0.1058E-01   max: 0.4286E-01   D at   72  1
       a = 14.000      CL =  1.3671
      Cm = -0.0329     CD =  0.06817   =>   CDf =  0.00622    CDp =  0.06195

 Side 1  free  transition at x/c =  0.0302   25
 Side 2 forced transition at x/c =  1.0000   68

   3   rms: 0.1028E-02   max: 0.5929E-02   D at   83  2
       a = 14.000      CL =  1.3663
      Cm = -0.0328     CD =  0.06800   =>   CDf =  0.00615    CDp =  0.06185

 Side 1  free  transition at x/c =  0.0302   25
 Side 2 forced transition at x/c =  1.0000   68

   4   rms: 0.6228E-04   max: -.2550E-03   D at   72  1
       a = 14.000      CL =  1.3664
      Cm = -0.0328     CD =  0.06798   =>   CDf =  0.00615    CDp =  0.06183
 plradd ia,ip,cpol           46           0  1.31754670E-04

 Point added to stored polar  1
 Point written to save file  s4061_Re150k.base.pol                           
 Dump file unspecified or not available
 Calculating wake trajectory ...
 Calculating source influence matrix ...

 Solving BL system ...

 Side 1  free  transition at x/c =  0.0302   25
 Side 2 forced transition at x/c =  1.0000   68

   1   rms: 0.3663E-01   max: 0.1160E+00   D at   64  1   RLX: 0.704
       a = 14.250      CL =  1.3630
      Cm = -0.0329     CD =  0.07138   =>   CDf =  0.00616    CDp =  0.06523

 Side 1  free  transition at x/c =  0.0300   25
 Side 2 forced transition at x/c =  1.0000   68

   2   rms: 0.1363E-01   max: 0.4906E-01   D at   70  1
       a = 14.250      CL =  1.3579
      Cm = -0.0330     CD =  0.07269   =>   CDf =  0.00595    CDp =  0.06674

 Side 1  free  transition at x/c =  0.0299   25
 Side 2 forced transition at x/c =  1.0000   68

   3   rms: 0.1538E-02   max: 0.7315E-02   D at   84  2
       a = 14.250      CL =  1.3568
      Cm = -0.0330     CD =  0.07241   =>   CDf =  0.00587    CDp =  0.06654

 Side 1  free  transition at x/c =  0.0300   25
 Side 2 forced transition at x/c =  1.0000   68

   4   rms: 0.1084E-03   max: -.4151E-03   D at   71  1
       a = 14.250      CL =  1.3569
      Cm = -0.0330     CD =  0.07238   =>   CDf =  0.00587    CDp =  0.06651

 Side 1  free  transition at x/c =  0.0300   25
 Side 2 forced transition at x/c =  1.0000   68

   5   rms: 0.9427E-05   max: 0.5416E-04   C at   68  2
       a = 14.250      CL =  1.3568
      Cm = -0.0330     CD =  0.07238   =>   CDf =  0.00587    CDp =  0.06651
 plradd ia,ip,cpol           47           0  1.31754670E-04

 Point added to stored polar  1
 Point written to save file  s4061_Re150k.base.pol                           
 Dump file unspecified or not available
 Calculating wake trajectory ...
 Calculating source influence matrix ...

 Solving BL system ...

 Side 1  free  transition at x/c =  0.0300   25
 Side 2 forced transition at x/c =  1.0000   68

   1   rms: 0.3836E-01   max: 0.1258E+00   D at   62  1   RLX: 0.666
       a = 14.500      CL =  1.3518
      Cm = -0.0333     CD =  0.07598   =>   CDf =  0.00588    CDp =  0.07011

 Side 1  free  transition at x/c =  0.0298   25
 Side 2 forced transition at x/c =  1.0000   68

   2   rms: 0.1554E-01   max: 0.5969E-01   D at   69  1
       a = 14.500      CL =  1.3456
      Cm = -0.0336     CD =  0.07765   =>   CDf =  0.00568    CDp =  0.07197

 Side 1  free  transition at x/c =  0.0299   25
 Side 2 forced transition at x/c =  1.0000   68

   3   rms: 0.1845E-02   max: 0.1031E-01   D at   68  1
       a = 14.500      CL =  1.3443
      Cm = -0.0336     CD =  0.07732   =>   CDf =  0.00559    CDp =  0.07173

 Side 1  free  transition at x/c =  0.0299   25
 Side 2 forced transition at x/c =  1.0000   68

   4   rms: 0.1539E-03   max: -.6011E-03   D at   69  1
       a = 14.500      CL =  1.3445
      Cm = -0.0336     CD =  0.07728   =>   CDf =  0.00559    CDp =  0.07169

 Side 1  free  transition at x/c =  0.0299   25
 Side 2 forced transition at x/c =  1.0000   68

   5   rms: 0.1234E-04   max: 0.3934E-04   C at   68  2
       a = 14.500      CL =  1.3444
      Cm = -0.0336     CD =  0.07729   =>   CDf =  0.00559    CDp =  0.07169
 plradd ia,ip,cpol           48           0  1.31754670E-04

 Point added to stored polar  1
 Point written to save file  s4061_Re150k.base.pol                           
 Dump file unspecified or not available
 Calculating wake trajectory ...
 Calculating source influence matrix ...

 Solving BL system ...

 Side 1  free  transition at x/c =  0.0299   25
 Side 2 forced transition at x/c =  1.0000   68

   1   rms: 0.4006E-01   max: 0.1360E+00   D at   61  1   RLX: 0.630
       a = 14.750      CL =  1.3380
      Cm = -0.0343     CD =  0.08117   =>   CDf =  0.00560    CDp =  0.07557

 Side 1  free  transition at x/c =  0.0298   25
 Side 2 forced transition at x/c =  1.0000   68

   2   rms: 0.1724E-01   max: 0.6715E-01   D at   67  1
       a = 14.750      CL =  1.3304
      Cm = -0.0349     CD =  0.08316   =>   CDf =  0.00540    CDp =  0.07775

 Side 1  free  transition at x/c =  0.0298   25
 Side 2 forced transition at x/c =  1.0000   68

   3   rms: 0.1907E-02   max: 0.1189E-01   D at   84  2
       a = 14.750      CL =  1.3292
      Cm = -0.0348     CD =  0.08271   =>   CDf =  0.00531    CDp =  0.07740

 Side 1  free  transition at x/c =  0.0299   25
 Side 2 forced transition at x/c =  1.0000   68

   4   rms: 0.1507E-03   max: -.5739E-03   D at   67  1
       a = 14.750      CL =  1.3293
      Cm = -0.0348     CD =  0.08267   =>   CDf =  0.00532    CDp =  0.07735

 Side 1  free  transition at x/c =  0.0299   25
 Side 2 forced transition at x/c =  1.0000   68

   5   rms: 0.1287E-04   max: 0.6023E-04   C at   68  2
       a = 14.750      CL =  1.3293
      Cm = -0.0348     CD =  0.08268   =>   CDf =  0.00532    CDp =  0.07736
 plradd ia,ip,cpol           49           0  1.31754670E-04

 Point added to stored polar  1
 Point written to save file  s4061_Re150k.base.pol                           
 Dump file unspecified or not available
 Calculating wake trajectory ...
 Calculating source influence matrix ...

 Solving BL system ...

 Side 1  free  transition at x/c =  0.0299   25
 Side 2 forced transition at x/c =  1.0000   68

   1   rms: 0.4215E-01   max: 0.1470E+00   D at   59  1   RLX: 0.595
       a = 15.000      CL =  1.3214
      Cm = -0.0358     CD =  0.08679   =>   CDf =  0.00532    CDp =  0.08147

 Side 1  free  transition at x/c =  0.0299   25
 Side 2 forced transition at x/c =  1.0000   68

   2   rms: 0.1949E-01   max: 0.7532E-01   D at   65  1
       a = 15.000      CL =  1.3128
      Cm = -0.0368     CD =  0.08926   =>   CDf =  0.00515    CDp =  0.08412

 Side 1  free  transition at x/c =  0.0299   25
 Side 2 forced transition at x/c =  1.0000   68

   3   rms: 0.2282E-02   max: 0.1349E-01   D at   85  2
       a = 15.000      CL =  1.3114
      Cm = -0.0367     CD =  0.08869   =>   CDf =  0.00504    CDp =  0.08365

 Side 1  free  transition at x/c =  0.0299   25
 Side 2 forced transition at x/c =  1.0000   68

   4   rms: 0.1753E-03   max: -.6609E-03   D at   65  1
       a = 15.000      CL =  1.3115
      Cm = -0.0367     CD =  0.08864   =>   CDf =  0.00505    CDp =  0.08359

 Side 1  free  transition at x/c =  0.0299   25
 Side 2 forced transition at x/c =  1.0000   68

   5   rms: 0.1230E-04   max: -.3949E-04   D at   85  2
       a = 15.000      CL =  1.3115
      Cm = -0.0367     CD =  0.08865   =>   CDf =  0.00505    CDp =  0.08360
 plradd ia,ip,cpol           50           0  1.31754670E-04

 Point added to stored polar  1
 Point written to save file  s4061_Re150k.base.pol                           
 Dump file unspecified or not available
 Calculating wake trajectory ...
 Calculating source influence matrix ...

 Solving BL system ...

 Side 1  free  transition at x/c =  0.0299   25
 Side 2 forced transition at x/c =  1.0000   68

   1   rms: 0.4401E-01   max: 0.1570E+00   D at   57  1   RLX: 0.563
       a = 15.250      CL =  1.3028
      Cm = -0.0381     CD =  0.09303   =>   CDf =  0.00506    CDp =  0.08798

 Side 1  free  transition at x/c =  0.0300   25
 Side 2 forced transition at x/c =  1.0000   68

   2   rms: 0.2156E-01   max: 0.8175E-01   D at   63  1
       a = 15.250      CL =  1.2935
      Cm = -0.0394     CD =  0.09601   =>   CDf =  0.00490    CDp =  0.09112

 Side 1  free  transition at x/c =  0.0301   25
 Side 2 forced transition at x/c =  1.0000   68

   3   rms: 0.2668E-02   max: 0.1902E-01   D at   85  2
       a = 15.250      CL =  1.2919
      Cm = -0.0394     CD =  0.09524   =>   CDf =  0.00479    CDp =  0.09045

 Side 1  free  transition at x/c =  0.0301   25
 Side 2 forced transition at x/c =  1.0000   68

   4   rms: 0.2011E-03   max: 0.1243E-02   D at   85  2
       a = 15.250      CL =  1.2920
      Cm = -0.0394     CD =  0.09518   =>   CDf =  0.00480    CDp =  0.09038

 Side 1  free  transition at x/c =  0.0301   25
 Side 2 forced transition at x/c =  1.0000   68

   5   rms: 0.1372E-04   max: -.7285E-04   D at   85  2
       a = 15.250      CL =  1.2920
      Cm = -0.0394     CD =  0.09519   =>   CDf =  0.00480    CDp =  0.09039
 plradd ia,ip,cpol           51           0  1.31754670E-04

 Point added to stored polar  1
 Point written to save file  s4061_Re150k.base.pol                           
 Dump file unspecified or not available
 Calculating wake trajectory ...
 Calculating source influence matrix ...

 Solving BL system ...

 Side 1  free  transition at x/c =  0.0301   25
 Side 2 forced transition at x/c =  1.0000   68

   1   rms: 0.4700E-01   max: 0.1701E+00   D at   56  1   RLX: 0.533
       a = 15.500      CL =  1.2826
      Cm = -0.0412     CD =  0.09994   =>   CDf =  0.00480    CDp =  0.09514

 Side 1  free  transition at x/c =  0.0301   25
 Side 2 forced transition at x/c =  1.0000   68

   2   rms: 0.2411E-01   max: 0.8962E-01   D at   60  1
       a = 15.500      CL =  1.2722
      Cm = -0.0430     CD =  0.10350   =>   CDf =  0.00466    CDp =  0.09884

 Side 1  free  transition at x/c =  0.0302   25
 Side 2 forced transition at x/c =  1.0000   68

   3   rms: 0.2922E-02   max: 0.1588E-01   D at   86  2
       a = 15.500      CL =  1.2706
      Cm = -0.0429     CD =  0.10252   =>   CDf =  0.00455    CDp =  0.09797

 Side 1  free  transition at x/c =  0.0302   25
 Side 2 forced transition at x/c =  1.0000   68

   4   rms: 0.2299E-03   max: -.8375E-03   D at   60  1
       a = 15.500      CL =  1.2707
      Cm = -0.0429     CD =  0.10244   =>   CDf =  0.00456    CDp =  0.09788

 Side 1  free  transition at x/c =  0.0302   25
 Side 2 forced transition at x/c =  1.0000   68

   5   rms: 0.1726E-04   max: -.9314E-04   D at   85  2
       a = 15.500      CL =  1.2707
      Cm = -0.0429     CD =  0.10245   =>   CDf =  0.00456    CDp =  0.09790
 plradd ia,ip,cpol           52           0  1.31754670E-04

 Point added to stored polar  1
 Point written to save file  s4061_Re150k.base.pol                           
 Dump file unspecified or not available
 Calculating wake trajectory ...
 Calculating source influence matrix ...

 Solving BL system ...

 Side 1  free  transition at x/c =  0.0302   25
 Side 2 forced transition at x/c =  1.0000   68

   1   rms: 0.4988E-01   max: 0.1829E+00   D at   53  1   RLX: 0.506
       a = 15.750      CL =  1.2612
      Cm = -0.0451     CD =  0.10752   =>   CDf =  0.00456    CDp =  0.10296

 Side 1  free  transition at x/c =  0.0303   25
 Side 2 forced transition at x/c =  1.0000   68

   2   rms: 0.2694E-01   max: 0.1021E+00   D at   58  1
       a = 15.750      CL =  1.2499
      Cm = -0.0475     CD =  0.11182   =>   CDf =  0.00443    CDp =  0.10739

 Side 1  free  transition at x/c =  0.0304   25
 Side 2 forced transition at x/c =  1.0000   68

   3   rms: 0.3533E-02   max: 0.1963E-01   D at   86  2
       a = 15.750      CL =  1.2481
      Cm = -0.0473     CD =  0.11053   =>   CDf =  0.00432    CDp =  0.10621

 Side 1  free  transition at x/c =  0.0305   25
 Side 2 forced transition at x/c =  1.0000   68

   4   rms: 0.2923E-03   max: -.1006E-02   D at   57  1
       a = 15.750      CL =  1.2483
      Cm = -0.0473     CD =  0.11045   =>   CDf =  0.00434    CDp =  0.10612

 Side 1  free  transition at x/c =  0.0305   25
 Side 2 forced transition at x/c =  1.0000   68

   5   rms: 0.2600E-04   max: -.1133E-03   D at   86  2
       a = 15.750      CL =  1.2482
      Cm = -0.0473     CD =  0.11047   =>   CDf =  0.00433    CDp =  0.10614
 plradd ia,ip,cpol           53           0  1.31754670E-04

 Point added to stored polar  1
 Point written to save file  s4061_Re150k.base.pol                           
 Dump file unspecified or not available
 Calculating wake trajectory ...
 Calculating source influence matrix ...

 Solving BL system ...

 Side 1  free  transition at x/c =  0.0305   25
 Side 2 forced transition at x/c =  1.0000   68

   1   rms: 0.5410E-01   max: 0.2003E+00   D at   51  1   RLX: 0.481
       a = 16.000      CL =  1.2388
      Cm = -0.0500     CD =  0.11602   =>   CDf =  0.00434    CDp =  0.11168

 Side 1  free  transition at x/c =  0.0306   25
 Side 2 forced transition at x/c =  1.0000   68

   2   rms: 0.3016E-01   max: 0.1130E+00   D at   55  1
       a = 16.000      CL =  1.2265
      Cm = -0.0529     CD =  0.12114   =>   CDf =  0.00422    CDp =  0.11692

 Side 1  free  transition at x/c =  0.0307   25
 Side 2 forced transition at x/c =  1.0000   68

   3   rms: 0.4277E-02   max: 0.2640E-01   D at   86  2
       a = 16.000      CL =  1.2245
      Cm = -0.0527     CD =  0.11943   =>   CDf =  0.00411    CDp =  0.11532

 Side 1  free  transition at x/c =  0.0307   25
 Side 2 forced transition at x/c =  1.0000   68

   4   rms: 0.3709E-03   max: 0.3270E-02   D at   86  2
       a = 16.000      CL =  1.2247
      Cm = -0.0526     CD =  0.11930   =>   CDf =  0.00413    CDp =  0.11517

 Side 1  free  transition at x/c =  0.0307   25
 Side 2 forced transition at x/c =  1.0000   68

   5   rms: 0.3945E-04   max: -.1992E-03   D at   85  2
       a = 16.000      CL =  1.2247
      Cm = -0.0527     CD =  0.11932   =>   CDf =  0.00413    CDp =  0.11520
 plradd ia,ip,cpol           54           0  1.31754670E-04

 Point added to stored polar  1
 Point written to save file  s4061_Re150k.base.pol                           
 Dump file unspecified or not available

.OPERva   c>  
 Polar accumulation disabled

.OPERv   c>  
 XFOIL   c>  
 XFOIL   c>  