  
       XFOIL         Version 6.99
  
 Calculated polar for: S4180-098-84                                    
  
 1 1 Reynolds number fixed          Mach number fixed         
  
 xtrf =   1.000 (top)        1.000 (bottom)  
 Mach =   0.000     Re =     0.400 e 6     Ncrit =   9.000
  
   alpha    CL        CD       CDp       CM     Top_Xtr  Bot_Xtr
  ------ -------- --------- --------- -------- -------- --------
  -4.000   0.0103   0.01486   0.00876  -0.0885   0.7872   0.0284
  -3.500   0.0659   0.01321   0.00673  -0.0880   0.7641   0.0298
  -3.000   0.1218   0.01193   0.00516  -0.0874   0.7401   0.0311
  -2.500   0.1778   0.01085   0.00394  -0.0871   0.7164   0.0339
  -2.000   0.2344   0.01026   0.00324  -0.0868   0.6919   0.0407
  -1.500   0.2914   0.00969   0.00269  -0.0866   0.6680   0.0790
  -1.000   0.3479   0.00947   0.00247  -0.0865   0.6441   0.1216
  -0.500   0.4045   0.00909   0.00234  -0.0866   0.6208   0.2239
   0.000   0.4586   0.00794   0.00244  -0.0866   0.5985   0.6618
   0.500   0.5073   0.00738   0.00238  -0.0839   0.5781   1.0000
   1.000   0.5642   0.00761   0.00239  -0.0838   0.5569   1.0000
   1.500   0.6208   0.00786   0.00245  -0.0837   0.5370   1.0000
   2.000   0.6770   0.00815   0.00255  -0.0836   0.5182   1.0000
   2.500   0.7330   0.00846   0.00271  -0.0834   0.5000   1.0000
   3.000   0.7890   0.00875   0.00290  -0.0832   0.4816   1.0000
   3.500   0.8446   0.00905   0.00312  -0.0830   0.4631   1.0000
   4.000   0.8998   0.00938   0.00338  -0.0828   0.4448   1.0000
   4.500   0.9545   0.00974   0.00366  -0.0825   0.4267   1.0000
   5.000   1.0087   0.01013   0.00399  -0.0822   0.4081   1.0000
   5.500   1.0629   0.01049   0.00435  -0.0819   0.3875   1.0000
   6.000   1.1162   0.01091   0.00474  -0.0815   0.3648   1.0000
   6.500   1.1688   0.01138   0.00520  -0.0810   0.3418   1.0000
   7.000   1.2203   0.01194   0.00572  -0.0805   0.3146   1.0000
   7.500   1.2706   0.01261   0.00633  -0.0798   0.2829   1.0000
   8.000   1.3180   0.01353   0.00712  -0.0788   0.2437   1.0000
   8.500   1.3628   0.01468   0.00811  -0.0776   0.2019   1.0000
   9.000   1.4045   0.01604   0.00931  -0.0760   0.1636   1.0000
   9.500   1.4433   0.01752   0.01068  -0.0741   0.1335   1.0000
  10.000   1.4792   0.01908   0.01219  -0.0719   0.1115   1.0000
  10.000   1.4792   0.01908   0.01219  -0.0719   0.1115   1.0000
  10.250   1.4938   0.02003   0.01309  -0.0704   0.1028   1.0000
  10.500   1.5110   0.02071   0.01382  -0.0691   0.0963   1.0000
  10.750   1.5208   0.02180   0.01488  -0.0670   0.0903   1.0000
  11.000   1.5338   0.02246   0.01565  -0.0651   0.0865   1.0000
  11.250   1.5421   0.02341   0.01662  -0.0628   0.0826   1.0000
  11.500   1.5435   0.02484   0.01806  -0.0600   0.0788   1.0000
  11.750   1.5537   0.02583   0.01916  -0.0584   0.0762   1.0000
  12.000   1.5623   0.02700   0.02042  -0.0568   0.0735   1.0000
  12.250   1.5678   0.02850   0.02197  -0.0553   0.0710   1.0000
  12.500   1.5678   0.03053   0.02404  -0.0537   0.0685   1.0000
  12.750   1.5698   0.03255   0.02615  -0.0524   0.0666   1.0000
  13.000   1.5779   0.03415   0.02787  -0.0516   0.0647   1.0000
  13.250   1.5843   0.03599   0.02980  -0.0510   0.0626   1.0000
  13.500   1.5885   0.03811   0.03199  -0.0505   0.0606   1.0000
  13.750   1.5874   0.04085   0.03477  -0.0501   0.0585   1.0000
  14.000   1.5823   0.04408   0.03806  -0.0496   0.0567   1.0000
  14.250   1.5889   0.04619   0.04032  -0.0496   0.0554   1.0000
  14.500   1.5925   0.04866   0.04291  -0.0497   0.0538   1.0000
  14.750   1.5941   0.05144   0.04578  -0.0499   0.0523   1.0000
  15.000   1.5942   0.05444   0.04887  -0.0502   0.0509   1.0000
  15.250   1.5916   0.05786   0.05235  -0.0507   0.0496   1.0000
  15.500   1.5850   0.06182   0.05635  -0.0512   0.0480   1.0000
  15.750   1.5843   0.06522   0.05988  -0.0519   0.0469   1.0000
  16.000   1.5850   0.06856   0.06335  -0.0528   0.0459   1.0000
