  
       XFOIL         Version 6.99
  
 Calculated polar for: S4233-136-84                                    
  
 1 1 Reynolds number fixed          Mach number fixed         
  
 xtrf =   1.000 (top)        1.000 (bottom)  
 Mach =   0.000     Re =     0.300 e 6     Ncrit =   9.000
  
   alpha    CL        CD       CDp       CM     Top_Xtr  Bot_Xtr
  ------ -------- --------- --------- -------- -------- --------
-4.000  -0.0663   0.01294   0.00538  -0.0775   0.7850   0.0381
-3.500  -0.0194   0.01100   0.00438  -0.0768   0.7736   0.2590
-3.000   0.0312   0.01012   0.00407  -0.0764   0.7615   0.4404
-2.500   0.0834   0.00976   0.00403  -0.0756   0.7493   0.5662
-2.000   0.1368   0.00968   0.00404  -0.0749   0.7376   0.6415
-1.500   0.1915   0.00965   0.00396  -0.0743   0.7265   0.6848
-1.000   0.2463   0.00964   0.00390  -0.0739   0.7149   0.7231
-0.500   0.3005   0.00962   0.00389  -0.0733   0.7027   0.7571
0.000   0.3544   0.00961   0.00389  -0.0727   0.6909   0.7890
0.500   0.4076   0.00961   0.00389  -0.0719   0.6795   0.8219
1.000   0.4597   0.00960   0.00389  -0.0708   0.6679   0.8570
1.500   0.5095   0.00957   0.00394  -0.0692   0.6551   0.8975
2.000   0.5654   0.00957   0.00398  -0.0689   0.6423   0.9437
2.500   0.6459   0.00963   0.00401  -0.0742   0.6285   0.9816
3.000   0.7153   0.00975   0.00407  -0.0778   0.6143   1.0000
3.500   0.7648   0.00996   0.00422  -0.0770   0.6001   1.0000
4.000   0.8170   0.01019   0.00441  -0.0766   0.5852   1.0000
4.500   0.8695   0.01044   0.00466  -0.0763   0.5695   1.0000
5.000   0.9218   0.01070   0.00493  -0.0759   0.5525   1.0000
5.500   0.9736   0.01099   0.00523  -0.0754   0.5343   1.0000
6.000   1.0246   0.01133   0.00558  -0.0748   0.5147   1.0000
6.500   1.0736   0.01167   0.00599  -0.0739   0.4907   1.0000
7.000   1.1210   0.01210   0.00645  -0.0727   0.4641   1.0000
7.500   1.1650   0.01263   0.00698  -0.0710   0.4313   1.0000
8.000   1.2036   0.01338   0.00765  -0.0685   0.3886   1.0000
8.500   1.2374   0.01435   0.00852  -0.0653   0.3435   1.0000
9.000   1.2602   0.01567   0.00966  -0.0606   0.2915   1.0000
10.000   1.2726   0.01997   0.01343  -0.0481   0.1736   1.0000
10.250   1.2733   0.02148   0.01479  -0.0455   0.1451   1.0000
10.500   1.2743   0.02308   0.01628  -0.0431   0.1209   1.0000
10.750   1.2724   0.02499   0.01804  -0.0407   0.0944   1.0000
11.000   1.2696   0.02709   0.02000  -0.0385   0.0702   1.0000
11.250   1.2608   0.02980   0.02252  -0.0361   0.0445   1.0000
11.500   1.2541   0.03252   0.02517  -0.0341   0.0319   1.0000
11.750   1.2506   0.03510   0.02776  -0.0326   0.0273   1.0000
12.000   1.2533   0.03721   0.02997  -0.0316   0.0250   1.0000
12.250   1.2542   0.03955   0.03237  -0.0306   0.0229   1.0000
12.500   1.2498   0.04248   0.03536  -0.0297   0.0214   1.0000
12.750   1.2515   0.04495   0.03795  -0.0291   0.0204   1.0000
13.000   1.2526   0.04755   0.04065  -0.0286   0.0198   1.0000
13.250   1.2532   0.05027   0.04346  -0.0283   0.0190   1.0000
13.500   1.2531   0.05316   0.04643  -0.0281   0.0185   1.0000
13.750   1.2526   0.05618   0.04952  -0.0280   0.0181   1.0000
14.000   1.2503   0.05944   0.05285  -0.0280   0.0177   1.0000
14.250   1.2452   0.06304   0.05650  -0.0279   0.0171   1.0000
14.500   1.2484   0.06578   0.05933  -0.0279   0.0169   1.0000
14.750   1.2518   0.06852   0.06217  -0.0279   0.0167   1.0000
15.000   1.2556   0.07120   0.06494  -0.0279   0.0165   1.0000
15.250   1.2598   0.07387   0.06773  -0.0279   0.0162   1.0000
15.500   1.2643   0.07658   0.07053  -0.0280   0.0158   1.0000
15.750   1.2687   0.07931   0.07336  -0.0281   0.0155   1.0000
16.000   1.2728   0.08213   0.07628  -0.0284   0.0152   1.0000
