
 ===================================================
  XFOIL Version 6.99
  Copyright (C) 2000   Mark Drela, Harold Youngren

  This software comes with ABSOLUTELY NO WARRANTY,
    subject to the GNU General Public License.

  Caveat computor
 ===================================================

 File  xfoil.def  not found

   QUIT    Exit program

  .OPER    Direct operating point(s)
  .MDES    Complex mapping design routine
  .QDES    Surface speed design routine
  .GDES    Geometry design routine

   SAVE f  Write airfoil to labeled coordinate file
   PSAV f  Write airfoil to plain coordinate file
   ISAV f  Write airfoil to ISES coordinate file
   MSAV f  Write airfoil to MSES coordinate file
   REVE    Reverse written-airfoil node ordering

   LOAD f  Read buffer airfoil from coordinate file
   NACA i  Set NACA 4,5-digit airfoil and buffer airfoil
   INTE    Set buffer airfoil by interpolating two airfoils
   NORM    Buffer airfoil normalization toggle
   XYCM rr Change CM reference location, currently  0.25000 0.00000

   BEND    Display structural properties of current airfoil

   PCOP    Set current-airfoil panel nodes directly from buffer airfoil points
   PANE    Set current-airfoil panel nodes ( 160 ) based on curvature
  .PPAR    Show/change paneling

  .PLOP    Plotting options

   WDEF f  Write  current-settings file
   RDEF f  Reread current-settings file
   NAME s  Specify new airfoil name
   NINC    Increment name version number

   Z       Zoom    | (available in all menus)
   U       Unzoom  | 

 XFOIL   c>  
 Labeled airfoil file.  Name:  S5010                                           

 Number of input coordinate points:  61
 Counterclockwise ordering
 Max thickness =     0.098277  at x =   0.276
 Max camber    =     0.022100  at x =   0.276

  LE  x,y  =   0.00001  -0.00015  |   Chord =   0.99999
  TE  x,y  =   1.00000   0.00000  |

 Current airfoil nodes set from buffer airfoil nodes (  61 )

 WARNING: Poor input coordinate distribution
          Excessive panel angle   51.5  at i =  32
          Repaneling with PANE and/or PPAR suggested
           (doing GDES,CADD before repaneling _may_
            improve excessively coarse LE spacing

 XFOIL   c>  
 XFOIL   c>  
 Sharp trailing edge

 Paneling parameters used...
   Number of panel nodes       160
   Panel bunching parameter    1.000
   TE/LE panel density ratio   0.150
   Refined-area/LE panel density ratio    0.200
   Top    side refined area x/c limits  1.000 1.000
   Bottom side refined area x/c limits  1.000 1.000

 XFOIL   c>  
.OPERi   c>  
 Xtr/c     =  1.0000    top    side
 Xtr/c     =  1.0000    bottom side
 Ncrit     =    9.00   ( 0.070 % turb. level )
 Vacc      =  0.0100

 Klag  =  5.6000     Uxwt  =    1.00
 A     =  6.7000     B     =  0.7500       KCt = 0.01485
 CtiniK=  1.8000     CtiniX=  3.3000

..VPAR   c>  
..VPAR   c>  
.OPERi   c>  
 M  =    0.0000
 Re =    600000

.OPERv   c>  
.OPERv   c>  
.OPERv   c>  
 Polar  1 newly created for accumulation
 Airfoil archived with polar: S5010                                           

Enter  polar save filename  OR  <return> for no file   s>  
 New polar save file available

Enter  polar dump filename  OR  <return> for no file   s>  
 Polar dump file will NOT be written

 Polar accumulation enabled

.OPERva   c>   Calculating unit vorticity distributions ...
 Calculating wake trajectory ...
 Calculating source influence matrix ...

 Solving BL system ...

 Initializing BL ...
    side            1  ...
 MRCHUE: Inverse mode at  44     Hk =   4.107
 MRCHUE: Inverse mode at  45     Hk =   4.774
 MRCHUE: Inverse mode at  46     Hk =   5.428
 MRCHUE: Inverse mode at  47     Hk =   6.071
 MRCHUE: Inverse mode at  48     Hk =   6.708
 MRCHUE: Inverse mode at  49     Hk =   7.338
 MRCHUE: Inverse mode at  50     Hk =   7.964
 MRCHUE: Inverse mode at  51     Hk =   8.587
 MRCHUE: Inverse mode at  52     Hk =   6.167
 MRCHUE: Inverse mode at  53     Hk =   4.229
 MRCHUE: Inverse mode at  54     Hk =   2.929
    side            2  ...
 MRCHUE: Inverse mode at  14     Hk =   4.412
 MRCHUE: Inverse mode at  15     Hk =   5.865
 MRCHUE: Convergence failed at  15  side 2    Res =  0.2536E+00
 MRCHUE: Inverse mode at  16     Hk =   6.155
 MRCHUE: Inverse mode at  17     Hk =   8.013
 MRCHUE: Inverse mode at  18     Hk =   4.492
 MRCHUE: Inverse mode at  19     Hk =   2.500

 MRCHDU: Convergence failed at  18  side 2    Res =  0.3309E+01
 MRCHDU: Convergence failed at  19  side 2    Res =  0.3387E+02
 MRCHDU: Convergence failed at  20  side 2    Res =  0.6271E+01
 MRCHDU: Convergence failed at  21  side 2    Res =  0.1084E+02
 MRCHDU: Convergence failed at  22  side 2    Res =  0.3888E+02
 MRCHDU: Convergence failed at  23  side 2    Res =  0.8851E+03
 MRCHDU: Convergence failed at  24  side 2    Res =  0.4109E+02
 MRCHDU: Convergence failed at  25  side 2    Res =  0.1879E+02
 MRCHDU: Convergence failed at  26  side 2    Res =  0.2132E+02
 MRCHDU: Convergence failed at  27  side 2    Res =  0.3680E+02
 MRCHDU: Convergence failed at  28  side 2    Res =  0.2273E+02
 MRCHDU: Convergence failed at  29  side 2    Res =  0.2434E+02
 MRCHDU: Convergence failed at  30  side 2    Res =  0.2799E+02
 MRCHDU: Convergence failed at  31  side 2    Res =  0.3100E+02
 MRCHDU: Convergence failed at  32  side 2    Res =  0.5719E+02
 MRCHDU: Convergence failed at  33  side 2    Res =  0.2398E+02
 MRCHDU: Convergence failed at  34  side 2    Res =  0.1601E+02
 MRCHDU: Convergence failed at  35  side 2    Res =  0.3032E+02
 MRCHDU: Convergence failed at  36  side 2    Res =  0.2363E+02
 MRCHDU: Convergence failed at  37  side 2    Res =  0.2253E+02
 MRCHDU: Convergence failed at  38  side 2    Res =  0.2359E+02
 MRCHDU: Convergence failed at  39  side 2    Res =  0.2724E+02
 MRCHDU: Convergence failed at  40  side 2    Res =  0.2371E+02
 MRCHDU: Convergence failed at  41  side 2    Res =  0.2476E+02
 MRCHDU: Convergence failed at  42  side 2    Res =  0.2576E+02
 MRCHDU: Convergence failed at  43  side 2    Res =  0.2687E+02
 MRCHDU: Convergence failed at  44  side 2    Res =  0.2797E+02
 MRCHDU: Convergence failed at  45  side 2    Res =  0.2910E+02
 MRCHDU: Convergence failed at  46  side 2    Res =  0.3015E+02
 MRCHDU: Convergence failed at  47  side 2    Res =  0.3124E+02
 MRCHDU: Convergence failed at  48  side 2    Res =  0.3230E+02
 MRCHDU: Convergence failed at  49  side 2    Res =  0.3344E+02
 MRCHDU: Convergence failed at  50  side 2    Res =  0.3460E+02
 MRCHDU: Convergence failed at  51  side 2    Res =  0.3060E+02
 MRCHDU: Convergence failed at  52  side 2    Res =  0.3171E+02
 MRCHDU: Convergence failed at  53  side 2    Res =  0.3284E+02
 MRCHDU: Convergence failed at  54  side 2    Res =  0.3399E+02
 MRCHDU: Convergence failed at  55  side 2    Res =  0.3518E+02
 MRCHDU: Convergence failed at  56  side 2    Res =  0.3640E+02
 MRCHDU: Convergence failed at  57  side 2    Res =  0.3769E+02
 MRCHDU: Convergence failed at  58  side 2    Res =  0.3896E+02
 MRCHDU: Convergence failed at  59  side 2    Res =  0.4041E+02
 MRCHDU: Convergence failed at  60  side 2    Res =  0.4004E+02
 MRCHDU: Convergence failed at  61  side 2    Res =  0.4149E+02
 MRCHDU: Convergence failed at  62  side 2    Res =  0.4307E+02
 MRCHDU: Convergence failed at  63  side 2    Res =  0.4471E+02
 MRCHDU: Convergence failed at  64  side 2    Res =  0.4644E+02
 MRCHDU: Convergence failed at  65  side 2    Res =  0.4799E+02
 MRCHDU: Convergence failed at  66  side 2    Res =  0.4999E+02
 MRCHDU: Convergence failed at  67  side 2    Res =  0.5293E+02
 MRCHDU: Convergence failed at  68  side 2    Res =  0.5648E+02
 MRCHDU: Convergence failed at  69  side 2    Res =  0.5922E+02
 MRCHDU: Convergence failed at  70  side 2    Res =  0.6213E+02
 MRCHDU: Convergence failed at  71  side 2    Res =  0.6513E+02
 MRCHDU: Convergence failed at  72  side 2    Res =  0.6909E+02
 MRCHDU: Convergence failed at  73  side 2    Res =  0.7272E+02
 MRCHDU: Convergence failed at  74  side 2    Res =  0.7681E+02
 MRCHDU: Convergence failed at  75  side 2    Res =  0.8146E+02
 MRCHDU: Convergence failed at  76  side 2    Res =  0.8667E+02
 MRCHDU: Convergence failed at  77  side 2    Res =  0.9382E+02
 MRCHDU: Convergence failed at  78  side 2    Res =  0.1009E+03
 MRCHDU: Convergence failed at  79  side 2    Res =  0.1099E+03
 MRCHDU: Convergence failed at  80  side 2    Res =  0.1216E+03
 MRCHDU: Convergence failed at  81  side 2    Res =  0.1426E+03
 MRCHDU: Convergence failed at  82  side 2    Res =  0.8558E+02
 MRCHDU: Convergence failed at  83  side 2    Res =  0.3890E+03
 MRCHDU: Convergence failed at  84  side 2    Res =  0.6641E+02
 MRCHDU: Convergence failed at  85  side 2    Res =  0.9289E+02
 MRCHDU: Convergence failed at  86  side 2    Res =  0.2672E+03
 Side 1  free  transition at x/c =  0.6567   52
 Side 2  free  transition at x/c =  0.0285   18

   1   rms: 0.1380E+01   max: 0.1546E+01   D at   88  2   RLX: 0.410
       a = -4.000      CL = -1.5443
      Cm =  0.3499     CD =  0.00479   =>   CDf =  0.00225    CDp =  0.00254

 Side 1  free  transition at x/c =  0.6667   52
 Side 2  free  transition at x/c =  0.0246   18

   2   rms: 0.5384E+00   max: -.7403E+00   D at   87  2   RLX: 0.375
       a = -4.000      CL = -0.8730
      Cm =  0.1429     CD =  0.02413   =>   CDf =  0.00565    CDp =  0.01848

 MRCHDU: Convergence failed at  54  side 1    Res =  0.8795E+01
 MRCHDU: Convergence failed at  18  side 2    Res =  0.6706E+01
 MRCHDU: Convergence failed at  19  side 2    Res =  0.4170E+01
 MRCHDU: Convergence failed at  20  side 2    Res =  0.4820E+01
 MRCHDU: Convergence failed at  21  side 2    Res =  0.1932E+02
 MRCHDU: Convergence failed at  22  side 2    Res =  0.9090E+02
 MRCHDU: Convergence failed at  23  side 2    Res =  0.7764E+02
 MRCHDU: Convergence failed at  24  side 2    Res =  0.1484E+02
 MRCHDU: Convergence failed at  25  side 2    Res =  0.2911E+02
 MRCHDU: Convergence failed at  26  side 2    Res =  0.1004E+02
 MRCHDU: Convergence failed at  27  side 2    Res =  0.1092E+02
 MRCHDU: Convergence failed at  28  side 2    Res =  0.1146E+02
 MRCHDU: Convergence failed at  29  side 2    Res =  0.7402E+01
 MRCHDU: Convergence failed at  30  side 2    Res =  0.3833E+02
 MRCHDU: Convergence failed at  31  side 2    Res =  0.5647E+01
 MRCHDU: Convergence failed at  32  side 2    Res =  0.3171E+02
 MRCHDU: Convergence failed at  33  side 2    Res =  0.3087E+02
 MRCHDU: Convergence failed at  34  side 2    Res =  0.8620E+03
 MRCHDU: Convergence failed at  35  side 2    Res =  0.2216E+02
 MRCHDU: Convergence failed at  36  side 2    Res =  0.9765E+01
 MRCHDU: Convergence failed at  37  side 2    Res =  0.2665E+02
 MRCHDU: Convergence failed at  38  side 2    Res =  0.2829E+02
 MRCHDU: Convergence failed at  39  side 2    Res =  0.3671E+02
 MRCHDU: Convergence failed at  40  side 2    Res =  0.1583E+03
 MRCHDU: Convergence failed at  41  side 2    Res =  0.2044E+02
 MRCHDU: Convergence failed at  42  side 2    Res =  0.2576E+02
 MRCHDU: Convergence failed at  43  side 2    Res =  0.4307E+02
 MRCHDU: Convergence failed at  44  side 2    Res =  0.1220E+03
 MRCHDU: Convergence failed at  45  side 2    Res =  0.8837E+02
 MRCHDU: Convergence failed at  46  side 2    Res =  0.3639E+02
 MRCHDU: Convergence failed at  47  side 2    Res =  0.9506E+02
 MRCHDU: Convergence failed at  48  side 2    Res =  0.1040E+03
 MRCHDU: Convergence failed at  49  side 2    Res =  0.1093E+02
 MRCHDU: Convergence failed at  50  side 2    Res =  0.1027E+02
 MRCHDU: Convergence failed at  51  side 2    Res =  0.1139E+02
 MRCHDU: Convergence failed at  52  side 2    Res =  0.1292E+02
 MRCHDU: Convergence failed at  53  side 2    Res =  0.1451E+02
 MRCHDU: Convergence failed at  54  side 2    Res =  0.1668E+02
 MRCHDU: Convergence failed at  55  side 2    Res =  0.1974E+02
 MRCHDU: Convergence failed at  56  side 2    Res =  0.2304E+02
 MRCHDU: Convergence failed at  57  side 2    Res =  0.2888E+02
 MRCHDU: Convergence failed at  58  side 2    Res =  0.4596E+02
 MRCHDU: Convergence failed at  59  side 2    Res =  0.5939E+02
 MRCHDU: Convergence failed at  60  side 2    Res =  0.3844E+03
 MRCHDU: Convergence failed at  61  side 2    Res =  0.1326E+03
 MRCHDU: Convergence failed at  62  side 2    Res =  0.5916E+02
 MRCHDU: Convergence failed at  63  side 2    Res =  0.8543E+02
 MRCHDU: Convergence failed at  64  side 2    Res =  0.3333E+03
 MRCHDU: Convergence failed at  65  side 2    Res =  0.6678E+03
 MRCHDU: Convergence failed at  66  side 2    Res =  0.1730E+03
 MRCHDU: Convergence failed at  67  side 2    Res =  0.8331E+02
 MRCHDU: Convergence failed at  68  side 2    Res =  0.6302E+02
 MRCHDU: Convergence failed at  69  side 2    Res =  0.4502E+02
 MRCHDU: Convergence failed at  70  side 2    Res =  0.3237E+02
 MRCHDU: Convergence failed at  71  side 2    Res =  0.2943E+02
 MRCHDU: Convergence failed at  72  side 2    Res =  0.2533E+02
 MRCHDU: Convergence failed at  73  side 2    Res =  0.2220E+02
 MRCHDU: Convergence failed at  74  side 2    Res =  0.4686E+02
 MRCHDU: Convergence failed at  75  side 2    Res =  0.5445E+02
 MRCHDU: Convergence failed at  76  side 2    Res =  0.6444E+02
 MRCHDU: Convergence failed at  77  side 2    Res =  0.6789E+02
 MRCHDU: Convergence failed at  78  side 2    Res =  0.7393E+02
 MRCHDU: Convergence failed at  79  side 2    Res =  0.9338E+02
 MRCHDU: Convergence failed at  80  side 2    Res =  0.4859E+02
 MRCHDU: Convergence failed at  81  side 2    Res =  0.3704E+02
 MRCHDU: Convergence failed at  82  side 2    Res =  0.3037E+03
 MRCHDU: Convergence failed at  83  side 2    Res =  0.1280E+03
 MRCHDU: Convergence failed at  84  side 2    Res =  0.3533E+02
 MRCHDU: Convergence failed at  85  side 2    Res =  0.1591E+03
 MRCHDU: Convergence failed at  86  side 2    Res =  0.1510E+03
 Side 1  free  transition at x/c =  0.6834   54
 Side 2  free  transition at x/c =  0.0223   17

   3   rms: 0.1680E+01   max: 0.4817E+01   D at   66  2   RLX: 0.311
       a = -4.000      CL = -1.6451
      Cm =  0.4013     CD =  0.00471   =>   CDf =  0.00213    CDp =  0.00258

 MRCHDU: Convergence failed at  88  side 2    Res =  0.4180E+01
 MRCHDU: Convergence failed at  89  side 2    Res =  0.4161E+01
 MRCHDU: Convergence failed at  90  side 2    Res =  0.4588E+01
 MRCHDU: Convergence failed at  91  side 2    Res =  0.2133E+01
 Side 1  free  transition at x/c =  0.6886   55
 Side 2  free  transition at x/c =  0.0234   17

   4   rms: 0.5171E+00   max: -.1409E+01   C at  103  2   RLX: 0.342
       a = -4.000      CL = -0.6237
      Cm =  0.1146     CD =  0.05090   =>   CDf =  0.00281    CDp =  0.04810

 Side 1  free  transition at x/c =  0.7109   56
 Side 2  free  transition at x/c =  0.0242   17

   5   rms: 0.4393E+00   max: -.1277E+01   C at  107  2   RLX: 0.391
       a = -4.000      CL = -0.4208
      Cm =  0.0544     CD =  0.05111   =>   CDf =  0.00287    CDp =  0.04823

 Side 1  free  transition at x/c =  0.7229   57
 Side 2  free  transition at x/c =  0.0245   17

   6   rms: 0.5437E+00   max: -.1498E+01   D at  102  2   RLX: 0.334
       a = -4.000      CL = -0.3276
      Cm =  0.0111     CD =  0.04891   =>   CDf =  0.00276    CDp =  0.04616

 Side 1  free  transition at x/c =  0.7245   57
 Side 2  free  transition at x/c =  0.0236   17
 idif Ue xi dudx           1  0.23933442      4.58049774E-03   52.250744    
 Uenew xinew           2  6.07741475E-02  1.16312504E-03

   7   rms: 0.1929E+01   max: -.7131E+01   D at   19  2   RLX: 0.070
       a = -4.000      CL = -0.2500
      Cm = -0.0283     CD =  0.06131   =>   CDf =  0.00264    CDp =  0.05867

 Side 1  free  transition at x/c =  0.7296   57
 Side 2  free  transition at x/c =  0.0229   18

   8   rms: 0.2635E+01   max: -.1125E+02   D at   22  2   RLX: 0.044
       a = -4.000      CL = -0.2320
      Cm = -0.0505     CD =  0.05564   =>   CDf =  0.00271    CDp =  0.05293

 Side 1  free  transition at x/c =  0.7325   57
 Side 2  free  transition at x/c =  0.0218   17

   9   rms: 0.2041E+01   max: 0.9585E+01   D at   24  2   RLX: 0.108
       a = -4.000      CL = -0.1706
      Cm = -0.0384     CD =  0.07380   =>   CDf =  0.00289    CDp =  0.07091

 Side 1  free  transition at x/c =  0.7242   57
 Side 2  free  transition at x/c =  0.0234   17
 idif Ue xi dudx           1  0.19205685      3.82721424E-03   50.181892    
 Uenew xinew           2  2.05666237E-02  4.09841537E-04

  10   rms: 0.8375E+00   max: -.4456E+01   D at   24  2   RLX: 0.112
       a = -4.000      CL = -0.1130
      Cm = -0.0609     CD =  0.05434   =>   CDf =  0.00273    CDp =  0.05161

 Side 1  free  transition at x/c =  0.7233   56
 Side 2  free  transition at x/c =  0.0230   18

  11   rms: 0.6938E+00   max: -.2146E+01   D at   93  2   RLX: 0.233
       a = -4.000      CL = -0.1914
      Cm = -0.0574     CD =  0.03808   =>   CDf =  0.00298    CDp =  0.03510

 Side 1  free  transition at x/c =  0.7209   56
 Side 2  free  transition at x/c =  0.0216   17

  12   rms: 0.1986E+01   max: 0.7247E+01   T at   17  2   RLX: 0.071
       a = -4.000      CL = -0.2156
      Cm = -0.0709     CD =  0.03102   =>   CDf =  0.00291    CDp =  0.02811

 Side 1  free  transition at x/c =  0.7219   56
 Side 2  free  transition at x/c =  0.0200   17

  13   rms: 0.2962E+01   max: -.1330E+02   D at   88  2   RLX: 0.038
       a = -4.000      CL = -0.2285
      Cm = -0.0782     CD =  0.02453   =>   CDf =  0.00299    CDp =  0.02153

 MRCHDU: Convergence failed at  88  side 2    Res =  0.1093E-02
 Side 1  free  transition at x/c =  0.7222   56
 Side 2  free  transition at x/c =  0.0191   17

  14   rms: 0.2913E+01   max: -.1745E+02   D at   88  2   RLX: 0.029
       a = -4.000      CL = -0.2552
      Cm = -0.0764     CD =  0.02111   =>   CDf =  0.00310    CDp =  0.01801

 MRCHDU: Convergence failed at  88  side 2    Res =  0.2452E+00
 Side 1  free  transition at x/c =  0.7224   56
 Side 2  free  transition at x/c =  0.0186   17

  15   rms: 0.1880E+01   max: -.9287E+01   D at   89  2   RLX: 0.054
       a = -4.000      CL = -0.2829
      Cm = -0.0757     CD =  0.02154   =>   CDf =  0.00318    CDp =  0.01836

 MRCHDU: Convergence failed at  89  side 2    Res =  0.1745E-01
 Side 1  free  transition at x/c =  0.7218   56
 Side 2  free  transition at x/c =  0.0180   17

  16   rms: 0.2120E+01   max: -.1289E+02   D at   89  2   RLX: 0.039
       a = -4.000      CL = -0.3062
      Cm = -0.0730     CD =  0.01871   =>   CDf =  0.00333    CDp =  0.01538

 MRCHDU: Convergence failed at  89  side 2    Res =  0.2497E+00
 Side 1  free  transition at x/c =  0.7216   56
 Side 2  free  transition at x/c =  0.0177   17
 idif Ue xi dudx           1  0.22067574      4.61685658E-03   47.797832    
 Uenew xinew           2  2.55438909E-02  5.34415245E-04

  17   rms: 0.2352E+01   max: -.1074E+02   D at   90  2   RLX: 0.047
       a = -4.000      CL = -0.3329
      Cm = -0.0724     CD =  0.01909   =>   CDf =  0.00328    CDp =  0.01581

 MRCHDU: Convergence failed at  91  side 2    Res =  0.1163E-01
 Side 1  free  transition at x/c =  0.7210   55
 Side 2  free  transition at x/c =  0.0172   18

  18   rms: 0.1765E+01   max: -.1208E+02   D at   91  2   RLX: 0.041
       a = -4.000      CL = -0.3515
      Cm = -0.0711     CD =  0.01734   =>   CDf =  0.00390    CDp =  0.01344

 MRCHDU: Convergence failed at  91  side 2    Res =  0.2474E+00
 MRCHDU: Convergence failed at  92  side 2    Res =  0.1766E+02
 MRCHDU: Convergence failed at  93  side 2    Res =  0.2243E+03
 MRCHDU: Convergence failed at  94  side 2    Res =  0.1701E+01
 MRCHDU: Convergence failed at  95  side 2    Res =  0.6209E+00
 MRCHDU: Convergence failed at  96  side 2    Res =  0.2313E+00
 Side 1  free  transition at x/c =  0.7206   55
 Side 2  free  transition at x/c =  0.0170   18

  19   rms: 0.9702E+00   max: -.5569E+01   D at   97  2   RLX: 0.090
       a = -4.000      CL = -0.3849
      Cm = -0.0665     CD =  0.01722   =>   CDf =  0.00413    CDp =  0.01309

 MRCHDU: Convergence failed at  97  side 2    Res =  0.2647E+00
 Side 1  free  transition at x/c =  0.7190   55
 Side 2  free  transition at x/c =  0.0163   18

  20   rms: 0.2483E+01   max: 0.1037E+02   D at   26  2   RLX: 0.145
       a = -4.000      CL = -0.4249
      Cm = -0.0493     CD =  0.03417   =>   CDf =  0.00403    CDp =  0.03014

 Side 1  free  transition at x/c =  0.7130   55
 Side 2  free  transition at x/c =  0.0163   18

  21   rms: 0.3535E+00   max: -.1637E+01   D at   79  2   RLX: 0.305
       a = -4.000      CL = -0.4270
      Cm = -0.0335     CD =  0.01471   =>   CDf =  0.00572    CDp =  0.00899

 Side 1  free  transition at x/c =  0.7113   55
 Side 2  free  transition at x/c =  0.0170   17

  22   rms: 0.3102E+00   max: -.1370E+01   D at   84  2   RLX: 0.365
       a = -4.000      CL = -0.4651
      Cm = -0.0090     CD =  0.01661   =>   CDf =  0.00586    CDp =  0.01075

 Side 1  free  transition at x/c =  0.7098   55
 Side 2  free  transition at x/c =  0.0168   17

  23   rms: 0.2380E+00   max: -.1105E+01   D at   94  2   RLX: 0.452
       a = -4.000      CL = -0.4482
      Cm =  0.0027     CD =  0.01492   =>   CDf =  0.00602    CDp =  0.00890

 Side 1  free  transition at x/c =  0.7090   55
 Side 2  free  transition at x/c =  0.0176   17

  24   rms: 0.1442E+00   max: -.7672E+00   D at   95  2   RLX: 0.652
       a = -4.000      CL = -0.4026
      Cm =  0.0056     CD =  0.01375   =>   CDf =  0.00630    CDp =  0.00745

 Side 1  free  transition at x/c =  0.7077   55
 Side 2  free  transition at x/c =  0.0189   17

  25   rms: 0.8010E-01   max: 0.4837E+00   D at   17  2
       a = -4.000      CL = -0.3472
      Cm =  0.0007     CD =  0.01364   =>   CDf =  0.00646    CDp =  0.00718

 Side 1  free  transition at x/c =  0.7060   55
 Side 2  free  transition at x/c =  0.0200   17

  26   rms: 0.6400E-02   max: -.3485E-01   D at   96  2
       a = -4.000      CL = -0.3410
      Cm = -0.0007     CD =  0.01348   =>   CDf =  0.00647    CDp =  0.00701

 Side 1  free  transition at x/c =  0.7060   55
 Side 2  free  transition at x/c =  0.0202   17

  27   rms: 0.4839E-03   max: 0.3684E-02   D at   17  2
       a = -4.000      CL = -0.3409
      Cm = -0.0007     CD =  0.01349   =>   CDf =  0.00647    CDp =  0.00702

 Side 1  free  transition at x/c =  0.7060   55
 Side 2  free  transition at x/c =  0.0202   17

  28   rms: 0.3719E-05   max: 0.1009E-04   D at   27  2
       a = -4.000      CL = -0.3409
      Cm = -0.0007     CD =  0.01349   =>   CDf =  0.00647    CDp =  0.00703
 plradd ia,ip,cpol            1           0  7.40561925E-04

 Point added to stored polar  1
 Point written to save file  s5010_Re600k.base.pol                           
 Dump file unspecified or not available
 Calculating wake trajectory ...
 Calculating source influence matrix ...

 Solving BL system ...

 Side 1  free  transition at x/c =  0.7060   55
 Side 2  free  transition at x/c =  0.0202   17

   1   rms: 0.9735E-01   max: -.5460E+00   T at   17  2   RLX: 0.916
       a = -3.500      CL = -0.2914
      Cm = -0.0000     CD =  0.01242   =>   CDf =  0.00657    CDp =  0.00584

 Side 1  free  transition at x/c =  0.6907   55
 Side 2  free  transition at x/c =  0.0228   17

   2   rms: 0.1392E-01   max: -.1412E+00   D at   55  1
       a = -3.500      CL = -0.2870
      Cm =  0.0001     CD =  0.01234   =>   CDf =  0.00671    CDp =  0.00563

 Side 1  free  transition at x/c =  0.6900   55
 Side 2  free  transition at x/c =  0.0228   17

   3   rms: 0.9327E-03   max: 0.7307E-02   C at   55  1
       a = -3.500      CL = -0.2871
      Cm =  0.0001     CD =  0.01234   =>   CDf =  0.00668    CDp =  0.00566

 Side 1  free  transition at x/c =  0.6899   55
 Side 2  free  transition at x/c =  0.0228   17

   4   rms: 0.3338E-05   max: -.3882E-04   D at   57  1
       a = -3.500      CL = -0.2871
      Cm =  0.0001     CD =  0.01234   =>   CDf =  0.00668    CDp =  0.00566
 plradd ia,ip,cpol            2           0  7.40561925E-04

 Point added to stored polar  1
 Point written to save file  s5010_Re600k.base.pol                           
 Dump file unspecified or not available
 Calculating wake trajectory ...
 Calculating source influence matrix ...

 Solving BL system ...

 Side 1  free  transition at x/c =  0.6899   55
 Side 2  free  transition at x/c =  0.0228   17

   1   rms: 0.2133E+00   max: -.7986E+00   D at   19  2   RLX: 0.626
       a = -3.000      CL = -0.2569
      Cm =  0.0012     CD =  0.01030   =>   CDf =  0.00668    CDp =  0.00362

 Side 1  free  transition at x/c =  0.6805   54
 Side 2  free  transition at x/c =  0.0255   17

   2   rms: 0.4254E-01   max: 0.4695E+00   D at   17  2
       a = -3.000      CL = -0.2344
      Cm =  0.0010     CD =  0.01094   =>   CDf =  0.00683    CDp =  0.00412

 Side 1  free  transition at x/c =  0.6729   54
 Side 2  free  transition at x/c =  0.0259   17

   3   rms: 0.9538E-02   max: 0.7526E-01   D at   18  2
       a = -3.000      CL = -0.2348
      Cm =  0.0011     CD =  0.01091   =>   CDf =  0.00684    CDp =  0.00407

 Side 1  free  transition at x/c =  0.6741   54
 Side 2  free  transition at x/c =  0.0259   17

   4   rms: 0.1613E-03   max: -.2487E-02   D at   56  1
       a = -3.000      CL = -0.2348
      Cm =  0.0010     CD =  0.01092   =>   CDf =  0.00681    CDp =  0.00410

 Side 1  free  transition at x/c =  0.6740   54
 Side 2  free  transition at x/c =  0.0259   17

   5   rms: 0.5225E-06   max: -.4507E-05   D at   54  1
       a = -3.000      CL = -0.2348
      Cm =  0.0010     CD =  0.01092   =>   CDf =  0.00681    CDp =  0.00410
 plradd ia,ip,cpol            3           0  1.73783069E-03

 Point added to stored polar  1
 Point written to save file  s5010_Re600k.base.pol                           
 Dump file unspecified or not available
 Calculating wake trajectory ...
 Calculating source influence matrix ...

 Solving BL system ...

 Side 1  free  transition at x/c =  0.6740   54
 Side 2  free  transition at x/c =  0.0259   17

   1   rms: 0.9673E-01   max: -.5669E+00   T at   17  2   RLX: 0.882
       a = -2.500      CL = -0.1869
      Cm =  0.0015     CD =  0.01032   =>   CDf =  0.00690    CDp =  0.00342

 Side 1  free  transition at x/c =  0.6606   54
 Side 2  free  transition at x/c =  0.0286   16

   2   rms: 0.7047E-01   max: -.4109E+00   D at   16  2
       a = -2.500      CL = -0.1803
      Cm =  0.0017     CD =  0.01016   =>   CDf =  0.00686    CDp =  0.00330

 Side 1  free  transition at x/c =  0.6579   54
 Side 2  free  transition at x/c =  0.0289   16

   3   rms: 0.4715E-02   max: 0.5083E-01   D at   16  2
       a = -2.500      CL = -0.1802
      Cm =  0.0016     CD =  0.01024   =>   CDf =  0.00696    CDp =  0.00328

 Side 1  free  transition at x/c =  0.6581   54
 Side 2  free  transition at x/c =  0.0289   16

   4   rms: 0.5417E-04   max: 0.5534E-03   D at   16  2
       a = -2.500      CL = -0.1802
      Cm =  0.0016     CD =  0.01024   =>   CDf =  0.00695    CDp =  0.00329
 plradd ia,ip,cpol            4           0  1.73783069E-03

 Point added to stored polar  1
 Point written to save file  s5010_Re600k.base.pol                           
 Dump file unspecified or not available
 Calculating wake trajectory ...
 Calculating source influence matrix ...

 Solving BL system ...

 Side 1  free  transition at x/c =  0.6581   54
 Side 2  free  transition at x/c =  0.0289   16

   1   rms: 0.9823E-01   max: -.3155E+00   T at   16  2
       a = -2.000      CL = -0.1254
      Cm =  0.0022     CD =  0.00965   =>   CDf =  0.00695    CDp =  0.00269

 Side 1  free  transition at x/c =  0.6430   53
 Side 2  free  transition at x/c =  0.0318   17

   2   rms: 0.2104E-01   max: -.2170E+00   D at   53  1
       a = -2.000      CL = -0.1251
      Cm =  0.0022     CD =  0.00961   =>   CDf =  0.00710    CDp =  0.00251

 Side 1  free  transition at x/c =  0.6425   53
 Side 2  free  transition at x/c =  0.0324   17

   3   rms: 0.1441E-02   max: 0.1826E-01   C at   53  1
       a = -2.000      CL = -0.1251
      Cm =  0.0022     CD =  0.00963   =>   CDf =  0.00711    CDp =  0.00253

 Side 1  free  transition at x/c =  0.6421   53
 Side 2  free  transition at x/c =  0.0323   17

   4   rms: 0.1635E-04   max: -.2264E-03   D at   55  1
       a = -2.000      CL = -0.1251
      Cm =  0.0022     CD =  0.00963   =>   CDf =  0.00711    CDp =  0.00252
 plradd ia,ip,cpol            5           0  3.20250378E-03

 Point added to stored polar  1
 Point written to save file  s5010_Re600k.base.pol                           
 Dump file unspecified or not available
 Calculating wake trajectory ...
 Calculating source influence matrix ...

 Solving BL system ...

 Side 1  free  transition at x/c =  0.6421   53
 Side 2  free  transition at x/c =  0.0323   17

   1   rms: 0.1160E+00   max: -.4942E+00   T at   17  2
       a = -1.500      CL = -0.0704
      Cm =  0.0028     CD =  0.00902   =>   CDf =  0.00718    CDp =  0.00184

 Side 1  free  transition at x/c =  0.6274   53
 Side 2  free  transition at x/c =  0.0509   17

   2   rms: 0.6219E-01   max: -.1453E+01   C at   17  2   RLX: 0.344
       a = -1.500      CL = -0.0709
      Cm =  0.0027     CD =  0.00919   =>   CDf =  0.00714    CDp =  0.00205

 Side 1  free  transition at x/c =  0.6271   53
 Side 2  free  transition at x/c =  0.0523   18

   3   rms: 0.4481E-01   max: -.6192E+00   C at   18  2   RLX: 0.808
       a = -1.500      CL = -0.0701
      Cm =  0.0027     CD =  0.00905   =>   CDf =  0.00713    CDp =  0.00192

 Side 1  free  transition at x/c =  0.6264   53
 Side 2  free  transition at x/c =  0.0929   21

   4   rms: 0.1300E-01   max: -.2012E+00   D at   20  2
       a = -1.500      CL = -0.0704
      Cm =  0.0027     CD =  0.00896   =>   CDf =  0.00697    CDp =  0.00199

 Side 1  free  transition at x/c =  0.6261   53
 Side 2  free  transition at x/c =  0.0769   19

   5   rms: 0.9821E-02   max: 0.2272E+00   C at   19  2
       a = -1.500      CL = -0.0701
      Cm =  0.0027     CD =  0.00903   =>   CDf =  0.00703    CDp =  0.00201

 Side 1  free  transition at x/c =  0.6261   53
 Side 2  free  transition at x/c =  0.0711   19

   6   rms: 0.3262E-03   max: -.5475E-02   C at   19  2
       a = -1.500      CL = -0.0701
      Cm =  0.0027     CD =  0.00904   =>   CDf =  0.00705    CDp =  0.00199

 Side 1  free  transition at x/c =  0.6261   53
 Side 2  free  transition at x/c =  0.0712   19

   7   rms: 0.7210E-06   max: 0.9159E-05   C at   19  2
       a = -1.500      CL = -0.0701
      Cm =  0.0027     CD =  0.00904   =>   CDf =  0.00705    CDp =  0.00200
 plradd ia,ip,cpol            6           0  5.20587154E-03

 Point added to stored polar  1
 Point written to save file  s5010_Re600k.base.pol                           
 Dump file unspecified or not available
 Calculating wake trajectory ...
 Calculating source influence matrix ...

 Solving BL system ...

 Side 1  free  transition at x/c =  0.6261   53
 Side 2  free  transition at x/c =  0.0712   19

   1   rms: 0.6965E+00   max: -.1585E+02   C at   19  2   RLX: 0.032
       a = -1.000      CL = -0.0685
      Cm =  0.0027     CD =  0.00899   =>   CDf =  0.00705    CDp =  0.00194

 Side 1  free  transition at x/c =  0.6256   53
 Side 2  free  transition at x/c =  0.0789   20

   2   rms: 0.5259E+00   max: -.8784E+01   C at   20  2   RLX: 0.057
       a = -1.000      CL = -0.0656
      Cm =  0.0028     CD =  0.00890   =>   CDf =  0.00703    CDp =  0.00187

 Side 1  free  transition at x/c =  0.6249   53
 Side 2  free  transition at x/c =  0.0925   21

   3   rms: 0.3876E+00   max: -.6045E+01   C at   21  2   RLX: 0.083
       a = -1.000      CL = -0.0612
      Cm =  0.0029     CD =  0.00882   =>   CDf =  0.00698    CDp =  0.00183

 Side 1  free  transition at x/c =  0.6239   52
 Side 2  free  transition at x/c =  0.1085   22

   4   rms: 0.3929E+00   max: -.7412E+01   C at   22  2   RLX: 0.067
       a = -1.000      CL = -0.0577
      Cm =  0.0030     CD =  0.00875   =>   CDf =  0.00692    CDp =  0.00182

 Side 1  free  transition at x/c =  0.6229   52
 Side 2  free  transition at x/c =  0.1202   22

   5   rms: 0.5792E+00   max: -.1364E+02   C at   22  2   RLX: 0.037
       a = -1.000      CL = -0.0560
      Cm =  0.0030     CD =  0.00873   =>   CDf =  0.00687    CDp =  0.00186

 Side 1  free  transition at x/c =  0.6224   52
 Side 2  free  transition at x/c =  0.1250   23

   6   rms: 0.4353E+00   max: -.9471E+01   C at   23  2   RLX: 0.053
       a = -1.000      CL = -0.0537
      Cm =  0.0030     CD =  0.00867   =>   CDf =  0.00685    CDp =  0.00182

 Side 1  free  transition at x/c =  0.6217   52
 Side 2  free  transition at x/c =  0.1343   23

   7   rms: 0.6622E+00   max: -.1537E+02   C at   23  2   RLX: 0.033
       a = -1.000      CL = -0.0524
      Cm =  0.0031     CD =  0.00865   =>   CDf =  0.00681    CDp =  0.00184

 Side 1  free  transition at x/c =  0.6213   52
 Side 2  free  transition at x/c =  0.1390   24

   8   rms: 0.4806E+00   max: -.1065E+02   C at   24  2   RLX: 0.047
       a = -1.000      CL = -0.0506
      Cm =  0.0031     CD =  0.00860   =>   CDf =  0.00680    CDp =  0.00180

 Side 1  free  transition at x/c =  0.6207   52
 Side 2  free  transition at x/c =  0.1485   24

   9   rms: 0.7631E+00   max: -.1743E+02   C at   24  2   RLX: 0.029
       a = -1.000      CL = -0.0496
      Cm =  0.0031     CD =  0.00857   =>   CDf =  0.00676    CDp =  0.00182

 Side 1  free  transition at x/c =  0.6204   52
 Side 2  free  transition at x/c =  0.1541   25

  10   rms: 0.5720E+00   max: -.1298E+02   C at   25  2   RLX: 0.039
       a = -1.000      CL = -0.0482
      Cm =  0.0031     CD =  0.00853   =>   CDf =  0.00674    CDp =  0.00179

 Side 1  free  transition at x/c =  0.6199   52
 Side 2  free  transition at x/c =  0.1637   25

  11   rms: 0.8642E+00   max: -.1937E+02   C at   25  2   RLX: 0.026
       a = -1.000      CL = -0.0474
      Cm =  0.0032     CD =  0.00850   =>   CDf =  0.00670    CDp =  0.00180

 Side 1  free  transition at x/c =  0.6196   52
 Side 2  free  transition at x/c =  0.1704   26

  12   rms: 0.6325E+00   max: -.1442E+02   C at   26  2   RLX: 0.035
       a = -1.000      CL = -0.0464
      Cm =  0.0032     CD =  0.00846   =>   CDf =  0.00668    CDp =  0.00178

 Side 1  free  transition at x/c =  0.6193   52
 Side 2  free  transition at x/c =  0.1803   27

  13   rms: 0.5901E+00   max: -.1311E+02   C at   27  2   RLX: 0.038
       a = -1.000      CL = -0.0454
      Cm =  0.0032     CD =  0.00840   =>   CDf =  0.00664    CDp =  0.00176

 Side 1  free  transition at x/c =  0.6189   52
 Side 2  free  transition at x/c =  0.1910   27

  14   rms: 0.6842E+00   max: -.1523E+02   C at   27  2   RLX: 0.033
       a = -1.000      CL = -0.0444
      Cm =  0.0032     CD =  0.00837   =>   CDf =  0.00661    CDp =  0.00177

 Side 1  free  transition at x/c =  0.6186   52
 Side 2  free  transition at x/c =  0.2012   28

  15   rms: 0.5692E+00   max: -.1278E+02   C at   28  2   RLX: 0.039
       a = -1.000      CL = -0.0435
      Cm =  0.0032     CD =  0.00832   =>   CDf =  0.00657    CDp =  0.00175

 Side 1  free  transition at x/c =  0.6182   52
 Side 2  free  transition at x/c =  0.2130   29

  16   rms: 0.5094E+00   max: -.1136E+02   C at   29  2   RLX: 0.044
       a = -1.000      CL = -0.0426
      Cm =  0.0032     CD =  0.00827   =>   CDf =  0.00653    CDp =  0.00174

 Side 1  free  transition at x/c =  0.6178   52
 Side 2  free  transition at x/c =  0.2234   30

  17   rms: 0.4271E+00   max: -.9145E+01   C at   30  2   RLX: 0.055
       a = -1.000      CL = -0.0413
      Cm =  0.0032     CD =  0.00821   =>   CDf =  0.00650    CDp =  0.00172

 Side 1  free  transition at x/c =  0.6173   52
 Side 2  free  transition at x/c =  0.2342   30

  18   rms: 0.4476E+00   max: -.9786E+01   C at   30  2   RLX: 0.051
       a = -1.000      CL = -0.0400
      Cm =  0.0032     CD =  0.00819   =>   CDf =  0.00646    CDp =  0.00173

 Side 1  free  transition at x/c =  0.6169   52
 Side 2  free  transition at x/c =  0.2454   31

  19   rms: 0.4031E+00   max: -.8834E+01   C at   31  2   RLX: 0.057
       a = -1.000      CL = -0.0389
      Cm =  0.0032     CD =  0.00814   =>   CDf =  0.00642    CDp =  0.00172

 Side 1  free  transition at x/c =  0.6165   52
 Side 2  free  transition at x/c =  0.2574   32

  20   rms: 0.3605E+00   max: -.7835E+01   C at   32  2   RLX: 0.064
       a = -1.000      CL = -0.0377
      Cm =  0.0032     CD =  0.00808   =>   CDf =  0.00638    CDp =  0.00170

 Side 1  free  transition at x/c =  0.6160   52
 Side 2  free  transition at x/c =  0.2685   33

  21   rms: 0.3088E+00   max: -.6586E+01   C at   33  2   RLX: 0.076
       a = -1.000      CL = -0.0363
      Cm =  0.0032     CD =  0.00803   =>   CDf =  0.00634    CDp =  0.00168

 Side 1  free  transition at x/c =  0.6155   52
 Side 2  free  transition at x/c =  0.2796   33

  22   rms: 0.2916E+00   max: -.6198E+01   C at   33  2   RLX: 0.081
       a = -1.000      CL = -0.0348
      Cm =  0.0032     CD =  0.00800   =>   CDf =  0.00631    CDp =  0.00169

 Side 1  free  transition at x/c =  0.6151   52
 Side 2  free  transition at x/c =  0.2927   34

  23   rms: 0.2589E+00   max: -.5493E+01   C at   34  2   RLX: 0.091
       a = -1.000      CL = -0.0335
      Cm =  0.0032     CD =  0.00795   =>   CDf =  0.00627    CDp =  0.00168

 Side 1  free  transition at x/c =  0.6146   52
 Side 2  free  transition at x/c =  0.3067   35

  24   rms: 0.2195E+00   max: -.4634E+01   C at   35  2   RLX: 0.108
       a = -1.000      CL = -0.0322
      Cm =  0.0032     CD =  0.00789   =>   CDf =  0.00622    CDp =  0.00167

 Side 1  free  transition at x/c =  0.6140   52
 Side 2  free  transition at x/c =  0.3216   36

  25   rms: 0.1702E+00   max: -.3554E+01   C at   36  2   RLX: 0.141
       a = -1.000      CL = -0.0305
      Cm =  0.0032     CD =  0.00783   =>   CDf =  0.00617    CDp =  0.00166

 Side 1  free  transition at x/c =  0.6134   52
 Side 2  free  transition at x/c =  0.3384   37

  26   rms: 0.1219E+00   max: -.2505E+01   C at   37  2   RLX: 0.200
       a = -1.000      CL = -0.0285
      Cm =  0.0032     CD =  0.00777   =>   CDf =  0.00612    CDp =  0.00165

 Side 1  free  transition at x/c =  0.6127   52
 Side 2  free  transition at x/c =  0.3598   39

  27   rms: 0.1021E+00   max: -.2113E+01   C at   39  2   RLX: 0.237
       a = -1.000      CL = -0.0269
      Cm =  0.0033     CD =  0.00768   =>   CDf =  0.00605    CDp =  0.00163

 Side 1  free  transition at x/c =  0.6120   52
 Side 2  free  transition at x/c =  0.3744   40

  28   rms: 0.7102E-01   max: -.1458E+01   C at   40  2   RLX: 0.343
       a = -1.000      CL = -0.0247
      Cm =  0.0033     CD =  0.00762   =>   CDf =  0.00601    CDp =  0.00162

 Side 1  free  transition at x/c =  0.6113   52
 Side 2  free  transition at x/c =  0.3896   41

  29   rms: 0.4356E-01   max: -.8871E+00   C at   41  2   RLX: 0.564
       a = -1.000      CL = -0.0223
      Cm =  0.0033     CD =  0.00757   =>   CDf =  0.00596    CDp =  0.00161

 Side 1  free  transition at x/c =  0.6106   52
 Side 2  free  transition at x/c =  0.4067   42

  30   rms: 0.1852E-01   max: -.3726E+00   C at   42  2
       a = -1.000      CL = -0.0205
      Cm =  0.0033     CD =  0.00752   =>   CDf =  0.00591    CDp =  0.00161

 Side 1  free  transition at x/c =  0.6100   51
 Side 2  free  transition at x/c =  0.4188   43

  31   rms: 0.9138E-03   max: 0.1389E-01   C at   43  2
       a = -1.000      CL = -0.0205
      Cm =  0.0033     CD =  0.00751   =>   CDf =  0.00587    CDp =  0.00164

 Side 1  free  transition at x/c =  0.6100   51
 Side 2  free  transition at x/c =  0.4187   43

  32   rms: 0.1547E-04   max: -.3188E-03   C at   43  2
       a = -1.000      CL = -0.0205
      Cm =  0.0033     CD =  0.00751   =>   CDf =  0.00587    CDp =  0.00164
 plradd ia,ip,cpol            7           0  5.20587154E-03

 Point added to stored polar  1
 Point written to save file  s5010_Re600k.base.pol                           
 Dump file unspecified or not available
 Calculating wake trajectory ...
 Calculating source influence matrix ...

 Solving BL system ...

 Side 1  free  transition at x/c =  0.6100   51
 Side 2  free  transition at x/c =  0.4187   43

   1   rms: 0.5703E+00   max: -.1161E+02   C at   43  2   RLX: 0.043
       a = -0.500      CL = -0.0184
      Cm =  0.0033     CD =  0.00745   =>   CDf =  0.00587    CDp =  0.00158

 Side 1  free  transition at x/c =  0.6092   51
 Side 2  free  transition at x/c =  0.4334   44

   2   rms: 0.5544E+00   max: -.1123E+02   C at   44  2   RLX: 0.045
       a = -0.500      CL = -0.0163
      Cm =  0.0034     CD =  0.00739   =>   CDf =  0.00582    CDp =  0.00157

 Side 1  free  transition at x/c =  0.6085   51
 Side 2  free  transition at x/c =  0.4489   45

   3   rms: 0.5052E+00   max: -.1017E+02   C at   45  2   RLX: 0.049
       a = -0.500      CL = -0.0140
      Cm =  0.0034     CD =  0.00733   =>   CDf =  0.00576    CDp =  0.00157

 Side 1  free  transition at x/c =  0.6077   51
 Side 2  free  transition at x/c =  0.4656   46

   4   rms: 0.4118E+00   max: -.8193E+01   C at   46  2   RLX: 0.061
       a = -0.500      CL = -0.0113
      Cm =  0.0034     CD =  0.00726   =>   CDf =  0.00570    CDp =  0.00156

 Side 1  free  transition at x/c =  0.6067   51
 Side 2  free  transition at x/c =  0.4847   47

   5   rms: 0.2726E+00   max: -.5263E+01   C at   47  2   RLX: 0.095
       a = -0.500      CL = -0.0073
      Cm =  0.0035     CD =  0.00720   =>   CDf =  0.00564    CDp =  0.00156

 Side 1  free  transition at x/c =  0.6053   51
 Side 2  free  transition at x/c =  0.5160   50

   6   rms: 0.3234E+00   max: -.6266E+01   C at   50  2   RLX: 0.080
       a = -0.500      CL = -0.0051
      Cm =  0.0038     CD =  0.00706   =>   CDf =  0.00554    CDp =  0.00152

 Side 1  free  transition at x/c =  0.6042   51
 Side 2  free  transition at x/c =  0.5289   50

   7   rms: 0.2816E+00   max: -.5438E+01   C at   50  2   RLX: 0.092
       a = -0.500      CL = -0.0017
      Cm =  0.0037     CD =  0.00703   =>   CDf =  0.00553    CDp =  0.00149

 Side 1  free  transition at x/c =  0.6031   52
 Side 2  free  transition at x/c =  0.5451   51

   8   rms: 0.4579E+00   max: -.6497E+01   T at    2  1   RLX: 0.077
       a = -0.500      CL =  0.0006
      Cm =  0.0038     CD =  0.00696   =>   CDf =  0.00545    CDp =  0.00151

 Side 1  free  transition at x/c =  0.6023   52
 Side 2  free  transition at x/c =  0.5562   51

   9   rms: 0.2518E+00   max: -.4864E+01   C at   51  2   RLX: 0.103
       a = -0.500      CL =  0.0036
      Cm =  0.0038     CD =  0.00692   =>   CDf =  0.00541    CDp =  0.00151

 Side 1  free  transition at x/c =  0.6013   52
 Side 2  free  transition at x/c =  0.5720   52

  10   rms: 0.2212E+00   max: -.4238E+01   C at   52  2   RLX: 0.118
       a = -0.500      CL =  0.0066
      Cm =  0.0039     CD =  0.00686   =>   CDf =  0.00535    CDp =  0.00150

 Side 1  free  transition at x/c =  0.6003   52
 Side 2  free  transition at x/c =  0.5908   54

  11   rms: 0.2083E+00   max: -.4026E+01   C at   54  2   RLX: 0.124
       a = -0.500      CL =  0.0090
      Cm =  0.0040     CD =  0.00677   =>   CDf =  0.00529    CDp =  0.00148

 Side 1  free  transition at x/c =  0.5994   52
 Side 2  free  transition at x/c =  0.6044   55

  12   rms: 0.1748E+00   max: -.3366E+01   C at   55  2   RLX: 0.149
       a = -0.500      CL =  0.0119
      Cm =  0.0041     CD =  0.00672   =>   CDf =  0.00525    CDp =  0.00147

 Side 1  free  transition at x/c =  0.5985   52
 Side 2  free  transition at x/c =  0.6183   56

  13   rms: 0.1524E+00   max: -.2922E+01   C at   56  2   RLX: 0.171
       a = -0.500      CL =  0.0147
      Cm =  0.0041     CD =  0.00667   =>   CDf =  0.00522    CDp =  0.00146

 Side 1  free  transition at x/c =  0.5976   52
 Side 2  free  transition at x/c =  0.6325   56

  14   rms: 0.1373E+00   max: -.2598E+01   C at   56  2   RLX: 0.192
       a = -0.500      CL =  0.0173
      Cm =  0.0042     CD =  0.00664   =>   CDf =  0.00517    CDp =  0.00148

 Side 1  free  transition at x/c =  0.5969   52
 Side 2  free  transition at x/c =  0.6502   58

  15   rms: 0.1180E+00   max: -.2278E+01   C at   58  2   RLX: 0.220
       a = -0.500      CL =  0.0192
      Cm =  0.0044     CD =  0.00656   =>   CDf =  0.00511    CDp =  0.00145

 Side 1  free  transition at x/c =  0.5962   52
 Side 2  free  transition at x/c =  0.6644   59

  16   rms: 0.9171E-01   max: -.1767E+01   C at   59  2   RLX: 0.283
       a = -0.500      CL =  0.0214
      Cm =  0.0045     CD =  0.00651   =>   CDf =  0.00506    CDp =  0.00145

 Side 1  free  transition at x/c =  0.5955   51
 Side 2  free  transition at x/c =  0.6788   60

  17   rms: 0.7051E-01   max: -.1358E+01   C at   60  2   RLX: 0.368
       a = -0.500      CL =  0.0233
      Cm =  0.0046     CD =  0.00645   =>   CDf =  0.00502    CDp =  0.00143

 Side 1  free  transition at x/c =  0.5947   51
 Side 2  free  transition at x/c =  0.6934   61

  18   rms: 0.5111E-01   max: -.9864E+00   C at   61  2   RLX: 0.507
       a = -0.500      CL =  0.0249
      Cm =  0.0048     CD =  0.00640   =>   CDf =  0.00497    CDp =  0.00143

 Side 1  free  transition at x/c =  0.5940   51
 Side 2  free  transition at x/c =  0.7080   62

  19   rms: 0.3124E-01   max: -.6043E+00   C at   62  2   RLX: 0.827
       a = -0.500      CL =  0.0259
      Cm =  0.0051     CD =  0.00634   =>   CDf =  0.00491    CDp =  0.00143

 Side 1  free  transition at x/c =  0.5935   51
 Side 2  free  transition at x/c =  0.7228   63

  20   rms: 0.1155E-01   max: -.2247E+00   C at   63  2
       a = -0.500      CL =  0.0261
      Cm =  0.0052     CD =  0.00633   =>   CDf =  0.00485    CDp =  0.00148

 Side 1  free  transition at x/c =  0.5934   51
 Side 2  free  transition at x/c =  0.7301   63

  21   rms: 0.9798E-03   max: -.1881E-01   C at   63  2
       a = -0.500      CL =  0.0261
      Cm =  0.0052     CD =  0.00633   =>   CDf =  0.00482    CDp =  0.00151

 Side 1  free  transition at x/c =  0.5934   51
 Side 2  free  transition at x/c =  0.7307   63

  22   rms: 0.7017E-05   max: -.1307E-03   C at   63  2
       a = -0.500      CL =  0.0261
      Cm =  0.0052     CD =  0.00633   =>   CDf =  0.00482    CDp =  0.00151
 plradd ia,ip,cpol            8           0  7.87797384E-03

 Point added to stored polar  1
 Point written to save file  s5010_Re600k.base.pol                           
 Dump file unspecified or not available
 Calculating wake trajectory ...
 Calculating source influence matrix ...

 Solving BL system ...

 Side 1  free  transition at x/c =  0.5934   51
 Side 2  free  transition at x/c =  0.7308   63

   1   rms: 0.4058E+00   max: -.7576E+01   C at   63  2   RLX: 0.066
       a =  0.000      CL =  0.0290
      Cm =  0.0054     CD =  0.00626   =>   CDf =  0.00482    CDp =  0.00144

 Side 1  free  transition at x/c =  0.5922   51
 Side 2  free  transition at x/c =  0.7501   64

   2   rms: 0.3156E+00   max: -.5760E+01   C at   64  2   RLX: 0.087
       a =  0.000      CL =  0.0328
      Cm =  0.0056     CD =  0.00620   =>   CDf =  0.00475    CDp =  0.00145

 Side 1  free  transition at x/c =  0.5907   51
 Side 2  free  transition at x/c =  0.7809   67

   3   rms: 0.3505E+00   max: -.6604E+01   C at   67  2   RLX: 0.076
       a =  0.000      CL =  0.0348
      Cm =  0.0061     CD =  0.00607   =>   CDf =  0.00464    CDp =  0.00143

 Side 1  free  transition at x/c =  0.5895   51
 Side 2  free  transition at x/c =  0.7960   68

   4   rms: 0.2978E+00   max: -.5585E+01   C at   68  2   RLX: 0.090
       a =  0.000      CL =  0.0380
      Cm =  0.0062     CD =  0.00602   =>   CDf =  0.00459    CDp =  0.00143

 Side 1  free  transition at x/c =  0.5883   51
 Side 2  free  transition at x/c =  0.8113   69

   5   rms: 0.2682E+00   max: -.5027E+01   C at   69  2   RLX: 0.099
       a =  0.000      CL =  0.0412
      Cm =  0.0063     CD =  0.00597   =>   CDf =  0.00454    CDp =  0.00142

 Side 1  free  transition at x/c =  0.5871   51
 Side 2  free  transition at x/c =  0.8264   70

   6   rms: 0.2613E+00   max: -.4912E+01   C at   70  2   RLX: 0.102
       a =  0.000      CL =  0.0442
      Cm =  0.0065     CD =  0.00592   =>   CDf =  0.00449    CDp =  0.00143

 Side 1  free  transition at x/c =  0.5860   51
 Side 2  free  transition at x/c =  0.8415   71

   7   rms: 0.2522E+00   max: -.4734E+01   C at   71  2   RLX: 0.106
       a =  0.000      CL =  0.0471
      Cm =  0.0066     CD =  0.00588   =>   CDf =  0.00444    CDp =  0.00144

 Side 1  free  transition at x/c =  0.5851   51
 Side 2  free  transition at x/c =  0.8572   72

   8   rms: 0.2352E+00   max: -.4377E+01   C at   72  2   RLX: 0.114
       a =  0.000      CL =  0.0501
      Cm =  0.0067     CD =  0.00584   =>   CDf =  0.00438    CDp =  0.00145

 Side 1  free  transition at x/c =  0.5841   51
 Side 2  free  transition at x/c =  0.8739   73

   9   rms: 0.2024E+00   max: -.3679E+01   C at   73  2   RLX: 0.136
       a =  0.000      CL =  0.0538
      Cm =  0.0068     CD =  0.00581   =>   CDf =  0.00433    CDp =  0.00148

 Side 1  free  transition at x/c =  0.5832   51
 Side 2  free  transition at x/c =  0.8932   74

  10   rms: 0.1428E+00   max: -.2445E+01   C at   74  2   RLX: 0.204
       a =  0.000      CL =  0.0598
      Cm =  0.0066     CD =  0.00580   =>   CDf =  0.00429    CDp =  0.00151

 Side 1  free  transition at x/c =  0.5819   51
 Side 2  free  transition at x/c =  0.9212   76

  11   rms: 0.9204E-01   max: -.1101E+01   C at   76  2   RLX: 0.454
       a =  0.000      CL =  0.0785
      Cm =  0.0049     CD =  0.00582   =>   CDf =  0.00424    CDp =  0.00157

 Side 1  free  transition at x/c =  0.5793   50
 Side 2  free  transition at x/c =  0.9420   78

  12   rms: 0.3938E-01   max: -.3134E+00   C at   78  2
       a =  0.000      CL =  0.1016
      Cm =  0.0023     CD =  0.00586   =>   CDf =  0.00431    CDp =  0.00155

 Side 1  free  transition at x/c =  0.5741   51
 Side 2  free  transition at x/c =  0.9610   78

  13   rms: 0.9474E-02   max: -.8413E-01   D at   79  2
       a =  0.000      CL =  0.0990
      Cm =  0.0028     CD =  0.00588   =>   CDf =  0.00427    CDp =  0.00160

 Side 1  free  transition at x/c =  0.5749   51
 Side 2  free  transition at x/c =  0.9644   78

  14   rms: 0.4636E-02   max: 0.3667E-01   D at   81  2
       a =  0.000      CL =  0.1002
      Cm =  0.0025     CD =  0.00588   =>   CDf =  0.00427    CDp =  0.00161

 Side 1  free  transition at x/c =  0.5748   51
 Side 2  free  transition at x/c =  0.9631   78

  15   rms: 0.7755E-04   max: 0.6196E-03   D at   81  2
       a =  0.000      CL =  0.1002
      Cm =  0.0025     CD =  0.00588   =>   CDf =  0.00427    CDp =  0.00161
 plradd ia,ip,cpol            9           0  0.16795547    

 Point added to stored polar  1
 Point written to save file  s5010_Re600k.base.pol                           
 Dump file unspecified or not available
 Calculating wake trajectory ...
 Calculating source influence matrix ...

 Solving BL system ...

 Side 1  free  transition at x/c =  0.5748   51
 Side 2  free  transition at x/c =  0.9631   78

   1   rms: 0.1508E+00   max: 0.6081E+00   D at   79  2
       a =  0.500      CL =  0.1904
      Cm = -0.0040     CD =  0.00609   =>   CDf =  0.00427    CDp =  0.00183

 Side 1  free  transition at x/c =  0.5528   50
 Side 2 forced transition at x/c =  1.0000   81

   2   rms: 0.5167E-01   max: 0.5001E+00   D at   80  2
       a =  0.500      CL =  0.2137
      Cm = -0.0094     CD =  0.00599   =>   CDf =  0.00455    CDp =  0.00144

 Side 1  free  transition at x/c =  0.5549   51
 Side 2 forced transition at x/c =  1.0000   80

   3   rms: 0.6965E-02   max: 0.9001E-01   C at   51  1
       a =  0.500      CL =  0.2131
      Cm = -0.0093     CD =  0.00607   =>   CDf =  0.00447    CDp =  0.00160

 Side 1  free  transition at x/c =  0.5531   51
 Side 2 forced transition at x/c =  1.0000   80

   4   rms: 0.7221E-03   max: 0.7776E-02   D at    4  1
       a =  0.500      CL =  0.2131
      Cm = -0.0093     CD =  0.00607   =>   CDf =  0.00450    CDp =  0.00157

 Side 1  free  transition at x/c =  0.5531   51
 Side 2 forced transition at x/c =  1.0000   80

   5   rms: 0.6941E-05   max: -.7907E-04   D at    4  1
       a =  0.500      CL =  0.2131
      Cm = -0.0093     CD =  0.00607   =>   CDf =  0.00450    CDp =  0.00157
 plradd ia,ip,cpol           10           0  0.14074634    

 Point added to stored polar  1
 Point written to save file  s5010_Re600k.base.pol                           
 Dump file unspecified or not available
 Calculating wake trajectory ...
 Calculating source influence matrix ...

 Solving BL system ...

 Side 1  free  transition at x/c =  0.5531   51
 Side 2 forced transition at x/c =  1.0000   80

   1   rms: 0.9240E-01   max: -.1971E+00   n at   79  2
       a =  1.000      CL =  0.2643
      Cm = -0.0083     CD =  0.00620   =>   CDf =  0.00450    CDp =  0.00170

 Side 1  free  transition at x/c =  0.5353   49
 Side 2 forced transition at x/c =  1.0000   80

   2   rms: 0.1500E-01   max: 0.2416E+00   D at   50  1
       a =  1.000      CL =  0.2649
      Cm = -0.0084     CD =  0.00612   =>   CDf =  0.00464    CDp =  0.00149

 Side 1  free  transition at x/c =  0.5350   49
 Side 2 forced transition at x/c =  1.0000   80

   3   rms: 0.1322E-02   max: 0.2061E-01   C at   49  1
       a =  1.000      CL =  0.2649
      Cm = -0.0084     CD =  0.00612   =>   CDf =  0.00462    CDp =  0.00150

 Side 1  free  transition at x/c =  0.5344   49
 Side 2 forced transition at x/c =  1.0000   80

   4   rms: 0.1457E-04   max: -.1963E-03   C at   49  1
       a =  1.000      CL =  0.2649
      Cm = -0.0084     CD =  0.00612   =>   CDf =  0.00462    CDp =  0.00149
 plradd ia,ip,cpol           11           0  0.12737355    

 Point added to stored polar  1
 Point written to save file  s5010_Re600k.base.pol                           
 Dump file unspecified or not available
 Calculating wake trajectory ...
 Calculating source influence matrix ...

 Solving BL system ...

 Side 1  free  transition at x/c =  0.5344   49
 Side 2 forced transition at x/c =  1.0000   80

   1   rms: 0.8179E-01   max: -.1303E+00   n at   79  2
       a =  1.500      CL =  0.3171
      Cm = -0.0075     CD =  0.00615   =>   CDf =  0.00466    CDp =  0.00149

 Side 1  free  transition at x/c =  0.5119   49
 Side 2 forced transition at x/c =  1.0000   79

   2   rms: 0.1926E-01   max: -.2681E+00   D at   49  1
       a =  1.500      CL =  0.3172
      Cm = -0.0076     CD =  0.00618   =>   CDf =  0.00480    CDp =  0.00139

 Side 1  free  transition at x/c =  0.5162   49
 Side 2 forced transition at x/c =  1.0000   79

   3   rms: 0.4319E-02   max: 0.6958E-01   C at   49  1
       a =  1.500      CL =  0.3171
      Cm = -0.0076     CD =  0.00620   =>   CDf =  0.00473    CDp =  0.00148

 Side 1  free  transition at x/c =  0.5146   49
 Side 2 forced transition at x/c =  1.0000   79

   4   rms: 0.1042E-03   max: -.1662E-02   D at   51  1
       a =  1.500      CL =  0.3171
      Cm = -0.0076     CD =  0.00620   =>   CDf =  0.00474    CDp =  0.00146

 Side 1  free  transition at x/c =  0.5146   49
 Side 2 forced transition at x/c =  1.0000   79

   5   rms: 0.8238E-06   max: -.6756E-05   D at   49  1
       a =  1.500      CL =  0.3171
      Cm = -0.0076     CD =  0.00620   =>   CDf =  0.00474    CDp =  0.00146
 plradd ia,ip,cpol           12           0  0.11417562    

 Point added to stored polar  1
 Point written to save file  s5010_Re600k.base.pol                           
 Dump file unspecified or not available
 Calculating wake trajectory ...
 Calculating source influence matrix ...

 Solving BL system ...

 Side 1  free  transition at x/c =  0.5146   49
 Side 2 forced transition at x/c =  1.0000   79

   1   rms: 0.8394E-01   max: -.1034E+00   n at   78  2
       a =  2.000      CL =  0.3695
      Cm = -0.0068     CD =  0.00633   =>   CDf =  0.00474    CDp =  0.00159

 Side 1  free  transition at x/c =  0.4941   47
 Side 2 forced transition at x/c =  1.0000   79

   2   rms: 0.2336E-01   max: -.3872E+00   D at   48  1
       a =  2.000      CL =  0.3697
      Cm = -0.0068     CD =  0.00631   =>   CDf =  0.00488    CDp =  0.00143

 Side 1  free  transition at x/c =  0.4962   48
 Side 2 forced transition at x/c =  1.0000   79

   3   rms: 0.2480E-02   max: -.4091E-01   D at   47  1
       a =  2.000      CL =  0.3697
      Cm = -0.0068     CD =  0.00634   =>   CDf =  0.00487    CDp =  0.00147

 Side 1  free  transition at x/c =  0.4948   48
 Side 2 forced transition at x/c =  1.0000   79

   4   rms: 0.1335E-03   max: 0.1615E-02   C at   48  1
       a =  2.000      CL =  0.3697
      Cm = -0.0068     CD =  0.00634   =>   CDf =  0.00487    CDp =  0.00147

 Side 1  free  transition at x/c =  0.4947   48
 Side 2 forced transition at x/c =  1.0000   79

   5   rms: 0.5419E-06   max: -.2988E-05   D at   49  1
       a =  2.000      CL =  0.3697
      Cm = -0.0068     CD =  0.00634   =>   CDf =  0.00487    CDp =  0.00147
 plradd ia,ip,cpol           13           0  0.10118130    

 Point added to stored polar  1
 Point written to save file  s5010_Re600k.base.pol                           
 Dump file unspecified or not available
 Calculating wake trajectory ...
 Calculating source influence matrix ...

 Solving BL system ...

 Side 1  free  transition at x/c =  0.4947   48
 Side 2 forced transition at x/c =  1.0000   79

   1   rms: 0.8710E-01   max: -.9034E-01   n at   78  2
       a =  2.500      CL =  0.4221
      Cm = -0.0061     CD =  0.00660   =>   CDf =  0.00488    CDp =  0.00172

 Side 1  free  transition at x/c =  0.4736   47
 Side 2 forced transition at x/c =  1.0000   78

   2   rms: 0.1708E-01   max: 0.2877E+00   D at   48  1
       a =  2.500      CL =  0.4226
      Cm = -0.0061     CD =  0.00648   =>   CDf =  0.00496    CDp =  0.00152

 Side 1  free  transition at x/c =  0.4743   47
 Side 2 forced transition at x/c =  1.0000   78

   3   rms: 0.2061E-02   max: 0.3366E-01   C at   47  1
       a =  2.500      CL =  0.4226
      Cm = -0.0061     CD =  0.00647   =>   CDf =  0.00494    CDp =  0.00153

 Side 1  free  transition at x/c =  0.4734   47
 Side 2 forced transition at x/c =  1.0000   78

   4   rms: 0.2391E-04   max: -.3346E-03   D at   48  1
       a =  2.500      CL =  0.4226
      Cm = -0.0061     CD =  0.00647   =>   CDf =  0.00494    CDp =  0.00153
 plradd ia,ip,cpol           14           0  8.84614438E-02

 Point added to stored polar  1
 Point written to save file  s5010_Re600k.base.pol                           
 Dump file unspecified or not available
 Calculating wake trajectory ...
 Calculating source influence matrix ...

 Solving BL system ...

 Side 1  free  transition at x/c =  0.4734   47
 Side 2 forced transition at x/c =  1.0000   78

   1   rms: 0.8351E-01   max: -.8376E-01   D at   74  2
       a =  3.000      CL =  0.4756
      Cm = -0.0055     CD =  0.00664   =>   CDf =  0.00493    CDp =  0.00171

 Side 1  free  transition at x/c =  0.4489   46
 Side 2 forced transition at x/c =  1.0000   77

   2   rms: 0.1053E-01   max: 0.1822E+00   D at   47  1
       a =  3.000      CL =  0.4756
      Cm = -0.0055     CD =  0.00668   =>   CDf =  0.00507    CDp =  0.00160

 Side 1  free  transition at x/c =  0.4514   46
 Side 2 forced transition at x/c =  1.0000   77

   3   rms: 0.1384E-02   max: 0.1342E-01   C at   46  1
       a =  3.000      CL =  0.4756
      Cm = -0.0055     CD =  0.00667   =>   CDf =  0.00505    CDp =  0.00163

 Side 1  free  transition at x/c =  0.4509   46
 Side 2 forced transition at x/c =  1.0000   77

   4   rms: 0.1297E-04   max: -.2232E-03   C at   46  1
       a =  3.000      CL =  0.4756
      Cm = -0.0055     CD =  0.00667   =>   CDf =  0.00505    CDp =  0.00162
 plradd ia,ip,cpol           15           0  7.61142150E-02

 Point added to stored polar  1
 Point written to save file  s5010_Re600k.base.pol                           
 Dump file unspecified or not available
 Calculating wake trajectory ...
 Calculating source influence matrix ...

 Solving BL system ...

 Side 1  free  transition at x/c =  0.4509   46
 Side 2 forced transition at x/c =  1.0000   77

   1   rms: 0.8071E-01   max: -.7830E-01   D at   74  2
       a =  3.500      CL =  0.5292
      Cm = -0.0049     CD =  0.00676   =>   CDf =  0.00505    CDp =  0.00171

 Side 1  free  transition at x/c =  0.4214   44
 Side 2 forced transition at x/c =  1.0000   77

   2   rms: 0.2431E-01   max: -.4533E+00   D at   45  1
       a =  3.500      CL =  0.5286
      Cm = -0.0049     CD =  0.00691   =>   CDf =  0.00519    CDp =  0.00172

 Side 1  free  transition at x/c =  0.4286   45
 Side 2 forced transition at x/c =  1.0000   77

   3   rms: 0.6377E-02   max: 0.1032E+00   C at   45  1
       a =  3.500      CL =  0.5287
      Cm = -0.0049     CD =  0.00688   =>   CDf =  0.00511    CDp =  0.00178

 Side 1  free  transition at x/c =  0.4259   45
 Side 2 forced transition at x/c =  1.0000   77

   4   rms: 0.1759E-03   max: -.2621E-02   D at   47  1
       a =  3.500      CL =  0.5287
      Cm = -0.0049     CD =  0.00688   =>   CDf =  0.00512    CDp =  0.00176

 Side 1  free  transition at x/c =  0.4258   45
 Side 2 forced transition at x/c =  1.0000   77

   5   rms: 0.1007E-05   max: 0.6920E-05   D at   45  1
       a =  3.500      CL =  0.5287
      Cm = -0.0049     CD =  0.00688   =>   CDf =  0.00513    CDp =  0.00176
 plradd ia,ip,cpol           16           0  6.42190352E-02

 Point added to stored polar  1
 Point written to save file  s5010_Re600k.base.pol                           
 Dump file unspecified or not available
 Calculating wake trajectory ...
 Calculating source influence matrix ...

 Solving BL system ...

 Side 1  free  transition at x/c =  0.4258   45
 Side 2 forced transition at x/c =  1.0000   77

   1   rms: 0.8998E-01   max: 0.5485E+00   C at   45  1
       a =  4.000      CL =  0.5816
      Cm = -0.0044     CD =  0.00721   =>   CDf =  0.00507    CDp =  0.00213

 Side 1  free  transition at x/c =  0.3993   44
 Side 2 forced transition at x/c =  1.0000   76

   2   rms: 0.1699E-01   max: 0.2581E+00   D at   45  1
       a =  4.000      CL =  0.5818
      Cm = -0.0044     CD =  0.00714   =>   CDf =  0.00521    CDp =  0.00193

 Side 1  free  transition at x/c =  0.4006   44
 Side 2 forced transition at x/c =  1.0000   76

   3   rms: 0.2585E-02   max: 0.3687E-01   C at   44  1
       a =  4.000      CL =  0.5819
      Cm = -0.0044     CD =  0.00714   =>   CDf =  0.00519    CDp =  0.00195

 Side 1  free  transition at x/c =  0.3997   44
 Side 2 forced transition at x/c =  1.0000   76

   4   rms: 0.3688E-04   max: -.8285E-03   D at   45  1
       a =  4.000      CL =  0.5819
      Cm = -0.0044     CD =  0.00714   =>   CDf =  0.00519    CDp =  0.00194
 plradd ia,ip,cpol           17           0  5.28914891E-02

 Point added to stored polar  1
 Point written to save file  s5010_Re600k.base.pol                           
 Dump file unspecified or not available
 Calculating wake trajectory ...
 Calculating source influence matrix ...

 Solving BL system ...

 Side 1  free  transition at x/c =  0.3997   44
 Side 2 forced transition at x/c =  1.0000   76

   1   rms: 0.8957E-01   max: 0.6029E+00   C at   44  1
       a =  4.500      CL =  0.6348
      Cm = -0.0039     CD =  0.00745   =>   CDf =  0.00520    CDp =  0.00226

 Side 1  free  transition at x/c =  0.3703   42
 Side 2 forced transition at x/c =  1.0000   76

   2   rms: 0.1548E-01   max: 0.2465E+00   D at   43  1
       a =  4.500      CL =  0.6348
      Cm = -0.0039     CD =  0.00745   =>   CDf =  0.00530    CDp =  0.00215

 Side 1  free  transition at x/c =  0.3724   42
 Side 2 forced transition at x/c =  1.0000   76

   3   rms: 0.2396E-02   max: 0.4008E-01   C at   42  1
       a =  4.500      CL =  0.6349
      Cm = -0.0039     CD =  0.00745   =>   CDf =  0.00527    CDp =  0.00217

 Side 1  free  transition at x/c =  0.3715   42
 Side 2 forced transition at x/c =  1.0000   76

   4   rms: 0.3994E-04   max: -.9125E-03   D at   43  1
       a =  4.500      CL =  0.6349
      Cm = -0.0039     CD =  0.00745   =>   CDf =  0.00528    CDp =  0.00217
 plradd ia,ip,cpol           18           0  4.23760414E-02

 Point added to stored polar  1
 Point written to save file  s5010_Re600k.base.pol                           
 Dump file unspecified or not available
 Calculating wake trajectory ...
 Calculating source influence matrix ...

 Solving BL system ...

 Side 1  free  transition at x/c =  0.3715   42
 Side 2 forced transition at x/c =  1.0000   76

   1   rms: 0.9140E-01   max: 0.6909E+00   C at   42  1
       a =  5.000      CL =  0.6877
      Cm = -0.0034     CD =  0.00781   =>   CDf =  0.00518    CDp =  0.00263

 Side 1  free  transition at x/c =  0.3404   41
 Side 2 forced transition at x/c =  1.0000   75

   2   rms: 0.1749E-01   max: 0.2393E+00   D at   42  1
       a =  5.000      CL =  0.6877
      Cm = -0.0034     CD =  0.00781   =>   CDf =  0.00538    CDp =  0.00244

 Side 1  free  transition at x/c =  0.3425   41
 Side 2 forced transition at x/c =  1.0000   75

   3   rms: 0.2711E-02   max: 0.4086E-01   C at   41  1
       a =  5.000      CL =  0.6877
      Cm = -0.0034     CD =  0.00781   =>   CDf =  0.00535    CDp =  0.00247

 Side 1  free  transition at x/c =  0.3416   41
 Side 2 forced transition at x/c =  1.0000   75

   4   rms: 0.4832E-04   max: -.1090E-02   D at   42  1
       a =  5.000      CL =  0.6877
      Cm = -0.0034     CD =  0.00781   =>   CDf =  0.00535    CDp =  0.00246
 plradd ia,ip,cpol           19           0  3.29596028E-02

 Point added to stored polar  1
 Point written to save file  s5010_Re600k.base.pol                           
 Dump file unspecified or not available
 Calculating wake trajectory ...
 Calculating source influence matrix ...

 Solving BL system ...

 Side 1  free  transition at x/c =  0.3416   41
 Side 2 forced transition at x/c =  1.0000   75

   1   rms: 0.9573E-01   max: 0.8033E+00   C at   41  1
       a =  5.500      CL =  0.7402
      Cm = -0.0030     CD =  0.00828   =>   CDf =  0.00535    CDp =  0.00293

 Side 1  free  transition at x/c =  0.3083   38
 Side 2 forced transition at x/c =  1.0000   75

   2   rms: 0.1699E-01   max: 0.2212E+00   D at   40  1
       a =  5.500      CL =  0.7401
      Cm = -0.0030     CD =  0.00827   =>   CDf =  0.00549    CDp =  0.00278

 Side 1  free  transition at x/c =  0.3096   39
 Side 2 forced transition at x/c =  1.0000   75

   3   rms: 0.3211E-02   max: -.4287E-01   D at   38  1
       a =  5.500      CL =  0.7402
      Cm = -0.0030     CD =  0.00826   =>   CDf =  0.00547    CDp =  0.00279

 Side 1  free  transition at x/c =  0.3097   39
 Side 2 forced transition at x/c =  1.0000   75

   4   rms: 0.2261E-03   max: 0.3333E-02   C at   39  1
       a =  5.500      CL =  0.7402
      Cm = -0.0030     CD =  0.00826   =>   CDf =  0.00545    CDp =  0.00280

 Side 1  free  transition at x/c =  0.3096   39
 Side 2 forced transition at x/c =  1.0000   75

   5   rms: 0.1005E-05   max: 0.6083E-05   C at   39  1
       a =  5.500      CL =  0.7402
      Cm = -0.0030     CD =  0.00826   =>   CDf =  0.00546    CDp =  0.00280
 plradd ia,ip,cpol           20           0  2.48269271E-02

 Point added to stored polar  1
 Point written to save file  s5010_Re600k.base.pol                           
 Dump file unspecified or not available
 Calculating wake trajectory ...
 Calculating source influence matrix ...

 Solving BL system ...

 Side 1  free  transition at x/c =  0.3096   39
 Side 2 forced transition at x/c =  1.0000   75

   1   rms: 0.1018E+00   max: 0.7901E+00   C at   39  1   RLX: 0.803
       a =  6.000      CL =  0.7816
      Cm = -0.0027     CD =  0.00879   =>   CDf =  0.00532    CDp =  0.00347

 Side 1  free  transition at x/c =  0.2821   38
 Side 2 forced transition at x/c =  1.0000   74

   2   rms: 0.2495E-01   max: -.2308E+00   D at   40  1
       a =  6.000      CL =  0.7922
      Cm = -0.0026     CD =  0.00878   =>   CDf =  0.00553    CDp =  0.00325

 Side 1  free  transition at x/c =  0.2779   37
 Side 2 forced transition at x/c =  1.0000   74

   3   rms: 0.1542E-02   max: -.1928E-01   D at   38  1
       a =  6.000      CL =  0.7924
      Cm = -0.0026     CD =  0.00875   =>   CDf =  0.00553    CDp =  0.00322

 Side 1  free  transition at x/c =  0.2772   37
 Side 2 forced transition at x/c =  1.0000   74

   4   rms: 0.1397E-04   max: -.2166E-03   C at   37  1
       a =  6.000      CL =  0.7924
      Cm = -0.0026     CD =  0.00875   =>   CDf =  0.00553    CDp =  0.00322
 plradd ia,ip,cpol           21           0  2.48269271E-02

 Point added to stored polar  1
 Point written to save file  s5010_Re600k.base.pol                           
 Dump file unspecified or not available
 Calculating wake trajectory ...
 Calculating source influence matrix ...

 Solving BL system ...

 Side 1  free  transition at x/c =  0.2772   37
 Side 2 forced transition at x/c =  1.0000   74

   1   rms: 0.8696E-01   max: 0.6085E+00   C at   37  1
       a =  6.500      CL =  0.8450
      Cm = -0.0021     CD =  0.00915   =>   CDf =  0.00553    CDp =  0.00362

 Side 1  free  transition at x/c =  0.2412   35
 Side 2 forced transition at x/c =  1.0000   74

   2   rms: 0.1891E-01   max: 0.2240E+00   D at   36  1
       a =  6.500      CL =  0.8442
      Cm = -0.0021     CD =  0.00929   =>   CDf =  0.00565    CDp =  0.00364

 Side 1  free  transition at x/c =  0.2458   35
 Side 2 forced transition at x/c =  1.0000   74

   3   rms: 0.3096E-02   max: 0.5424E-01   C at   35  1
       a =  6.500      CL =  0.8441
      Cm = -0.0021     CD =  0.00931   =>   CDf =  0.00561    CDp =  0.00370

 Side 1  free  transition at x/c =  0.2445   35
 Side 2 forced transition at x/c =  1.0000   74

   4   rms: 0.5523E-04   max: -.1086E-02   D at   36  1
       a =  6.500      CL =  0.8441
      Cm = -0.0021     CD =  0.00931   =>   CDf =  0.00561    CDp =  0.00369
 plradd ia,ip,cpol           22           0  1.31937480E-02

 Point added to stored polar  1
 Point written to save file  s5010_Re600k.base.pol                           
 Dump file unspecified or not available
 Calculating wake trajectory ...
 Calculating source influence matrix ...

 Solving BL system ...

 Side 1  free  transition at x/c =  0.2445   35
 Side 2 forced transition at x/c =  1.0000   74

   1   rms: 0.9664E-01   max: 0.8860E+00   C at   35  1
       a =  7.000      CL =  0.8955
      Cm = -0.0017     CD =  0.00993   =>   CDf =  0.00544    CDp =  0.00450

 Side 1  free  transition at x/c =  0.2117   34
 Side 2 forced transition at x/c =  1.0000   73

   2   rms: 0.1925E-01   max: 0.2158E+00   D at   35  1
       a =  7.000      CL =  0.8953
      Cm = -0.0017     CD =  0.00993   =>   CDf =  0.00571    CDp =  0.00423

 Side 1  free  transition at x/c =  0.2139   34
 Side 2 forced transition at x/c =  1.0000   73

   3   rms: 0.2595E-02   max: -.3822E-01   D at   35  1
       a =  7.000      CL =  0.8953
      Cm = -0.0017     CD =  0.00995   =>   CDf =  0.00568    CDp =  0.00427

 Side 1  free  transition at x/c =  0.2131   34
 Side 2 forced transition at x/c =  1.0000   73

   4   rms: 0.4242E-04   max: -.8566E-03   D at   35  1
       a =  7.000      CL =  0.8953
      Cm = -0.0017     CD =  0.00995   =>   CDf =  0.00569    CDp =  0.00426
 plradd ia,ip,cpol           23           0  9.46121849E-03

 Point added to stored polar  1
 Point written to save file  s5010_Re600k.base.pol                           
 Dump file unspecified or not available
 Calculating wake trajectory ...
 Calculating source influence matrix ...

 Solving BL system ...

 Side 1  free  transition at x/c =  0.2131   34
 Side 2 forced transition at x/c =  1.0000   73

   1   rms: 0.1001E+00   max: 0.8030E+00   C at   34  1   RLX: 0.820
       a =  7.500      CL =  0.9366
      Cm = -0.0013     CD =  0.01061   =>   CDf =  0.00569    CDp =  0.00492

 Side 1  free  transition at x/c =  0.1892   32
 Side 2 forced transition at x/c =  1.0000   73

   2   rms: 0.2243E-01   max: -.1921E+00   D at   32  1
       a =  7.500      CL =  0.9460
      Cm = -0.0012     CD =  0.01063   =>   CDf =  0.00575    CDp =  0.00489

 Side 1  free  transition at x/c =  0.1835   32
 Side 2 forced transition at x/c =  1.0000   73

   3   rms: 0.1019E-02   max: 0.1668E-01   D at   33  1
       a =  7.500      CL =  0.9459
      Cm = -0.0012     CD =  0.01065   =>   CDf =  0.00577    CDp =  0.00489

 Side 1  free  transition at x/c =  0.1836   32
 Side 2 forced transition at x/c =  1.0000   73

   4   rms: 0.9402E-05   max: -.1652E-03   D at   33  1
       a =  7.500      CL =  0.9459
      Cm = -0.0012     CD =  0.01065   =>   CDf =  0.00576    CDp =  0.00489
 plradd ia,ip,cpol           24           0  2.29178055E-04

 Point added to stored polar  1
 Point written to save file  s5010_Re600k.base.pol                           
 Dump file unspecified or not available
 Calculating wake trajectory ...
 Calculating source influence matrix ...

 Solving BL system ...

 Side 1  free  transition at x/c =  0.1836   32
 Side 2 forced transition at x/c =  1.0000   73

   1   rms: 0.1064E+00   max: -.7943E+00   D at   32  1   RLX: 0.629
       a =  8.000      CL =  0.9766
      Cm = -0.0009     CD =  0.01131   =>   CDf =  0.00555    CDp =  0.00576

 Side 1  free  transition at x/c =  0.1659   31
 Side 2 forced transition at x/c =  1.0000   72

   2   rms: 0.1052E+01   max: 0.1837E+02   T at    2  1   RLX: 0.060
       a =  8.000      CL =  0.9777
      Cm = -0.0009     CD =  0.01111   =>   CDf =  0.00580    CDp =  0.00531

 Side 1  free  transition at x/c =  0.1653   31
 Side 2 forced transition at x/c =  1.0000   72

   3   rms: 0.3394E-01   max: -.1947E+00   D at   31  1
       a =  8.000      CL =  0.9963
      Cm = -0.0008     CD =  0.01136   =>   CDf =  0.00580    CDp =  0.00556

 Side 1  free  transition at x/c =  0.1540   30
 Side 2 forced transition at x/c =  1.0000   72

   4   rms: 0.3496E-02   max: -.5716E-01   C at   30  1
       a =  8.000      CL =  0.9956
      Cm = -0.0007     CD =  0.01146   =>   CDf =  0.00584    CDp =  0.00562

 Side 1  free  transition at x/c =  0.1542   30
 Side 2 forced transition at x/c =  1.0000   72

   5   rms: 0.4688E-02   max: -.9826E-01   C at   30  1
       a =  8.000      CL =  0.9956
      Cm = -0.0007     CD =  0.01147   =>   CDf =  0.00585    CDp =  0.00562

 Side 1  free  transition at x/c =  0.1542   30
 Side 2 forced transition at x/c =  1.0000   72

   6   rms: 0.4660E-02   max: -.9774E-01   C at   30  1
       a =  8.000      CL =  0.9956
      Cm = -0.0007     CD =  0.01147   =>   CDf =  0.00585    CDp =  0.00562

 Side 1  free  transition at x/c =  0.1542   30
 Side 2 forced transition at x/c =  1.0000   72

   7   rms: 0.4662E-02   max: -.9779E-01   C at   30  1
       a =  8.000      CL =  0.9956
      Cm = -0.0007     CD =  0.01147   =>   CDf =  0.00585    CDp =  0.00562

 Side 1  free  transition at x/c =  0.1542   30
 Side 2 forced transition at x/c =  1.0000   72

   8   rms: 0.4661E-02   max: -.9778E-01   C at   30  1
       a =  8.000      CL =  0.9956
      Cm = -0.0007     CD =  0.01147   =>   CDf =  0.00585    CDp =  0.00562

 Side 1  free  transition at x/c =  0.1542   30
 Side 2 forced transition at x/c =  1.0000   72

   9   rms: 0.4662E-02   max: -.9778E-01   C at   30  1
       a =  8.000      CL =  0.9956
      Cm = -0.0007     CD =  0.01147   =>   CDf =  0.00585    CDp =  0.00562

 Side 1  free  transition at x/c =  0.1542   30
 Side 2 forced transition at x/c =  1.0000   72

  10   rms: 0.4662E-02   max: -.9778E-01   C at   30  1
       a =  8.000      CL =  0.9956
      Cm = -0.0007     CD =  0.01147   =>   CDf =  0.00585    CDp =  0.00562

 Side 1  free  transition at x/c =  0.1542   30
 Side 2 forced transition at x/c =  1.0000   72

  11   rms: 0.4662E-02   max: -.9778E-01   C at   30  1
       a =  8.000      CL =  0.9956
      Cm = -0.0007     CD =  0.01147   =>   CDf =  0.00585    CDp =  0.00562

 Side 1  free  transition at x/c =  0.1542   30
 Side 2 forced transition at x/c =  1.0000   72

  12   rms: 0.4661E-02   max: -.9778E-01   C at   30  1
       a =  8.000      CL =  0.9956
      Cm = -0.0007     CD =  0.01147   =>   CDf =  0.00585    CDp =  0.00562

 Side 1  free  transition at x/c =  0.1542   30
 Side 2 forced transition at x/c =  1.0000   72

  13   rms: 0.4661E-02   max: -.9778E-01   C at   30  1
       a =  8.000      CL =  0.9956
      Cm = -0.0007     CD =  0.01147   =>   CDf =  0.00585    CDp =  0.00562

 Side 1  free  transition at x/c =  0.1542   30
 Side 2 forced transition at x/c =  1.0000   72

  14   rms: 0.4661E-02   max: -.9778E-01   C at   30  1
       a =  8.000      CL =  0.9956
      Cm = -0.0007     CD =  0.01147   =>   CDf =  0.00585    CDp =  0.00562

 Side 1  free  transition at x/c =  0.1542   30
 Side 2 forced transition at x/c =  1.0000   72

  15   rms: 0.4661E-02   max: -.9778E-01   C at   30  1
       a =  8.000      CL =  0.9956
      Cm = -0.0007     CD =  0.01147   =>   CDf =  0.00585    CDp =  0.00562

 Side 1  free  transition at x/c =  0.1542   30
 Side 2 forced transition at x/c =  1.0000   72

  16   rms: 0.4661E-02   max: -.9778E-01   C at   30  1
       a =  8.000      CL =  0.9956
      Cm = -0.0007     CD =  0.01147   =>   CDf =  0.00585    CDp =  0.00562

 Side 1  free  transition at x/c =  0.1542   30
 Side 2 forced transition at x/c =  1.0000   72

  17   rms: 0.4661E-02   max: -.9778E-01   C at   30  1
       a =  8.000      CL =  0.9956
      Cm = -0.0007     CD =  0.01147   =>   CDf =  0.00585    CDp =  0.00562

 Side 1  free  transition at x/c =  0.1542   30
 Side 2 forced transition at x/c =  1.0000   72

  18   rms: 0.4662E-02   max: -.9778E-01   C at   30  1
       a =  8.000      CL =  0.9956
      Cm = -0.0007     CD =  0.01147   =>   CDf =  0.00585    CDp =  0.00562

 Side 1  free  transition at x/c =  0.1542   30
 Side 2 forced transition at x/c =  1.0000   72

  19   rms: 0.4661E-02   max: -.9778E-01   C at   30  1
       a =  8.000      CL =  0.9956
      Cm = -0.0007     CD =  0.01147   =>   CDf =  0.00585    CDp =  0.00562

 Side 1  free  transition at x/c =  0.1542   30
 Side 2 forced transition at x/c =  1.0000   72

  20   rms: 0.4661E-02   max: -.9778E-01   C at   30  1
       a =  8.000      CL =  0.9956
      Cm = -0.0007     CD =  0.01147   =>   CDf =  0.00585    CDp =  0.00562

 Side 1  free  transition at x/c =  0.1542   30
 Side 2 forced transition at x/c =  1.0000   72

  21   rms: 0.4662E-02   max: -.9778E-01   C at   30  1
       a =  8.000      CL =  0.9956
      Cm = -0.0007     CD =  0.01147   =>   CDf =  0.00585    CDp =  0.00562

 Side 1  free  transition at x/c =  0.1542   30
 Side 2 forced transition at x/c =  1.0000   72

  22   rms: 0.4662E-02   max: -.9778E-01   C at   30  1
       a =  8.000      CL =  0.9956
      Cm = -0.0007     CD =  0.01147   =>   CDf =  0.00585    CDp =  0.00562

 Side 1  free  transition at x/c =  0.1542   30
 Side 2 forced transition at x/c =  1.0000   72

  23   rms: 0.4661E-02   max: -.9778E-01   C at   30  1
       a =  8.000      CL =  0.9956
      Cm = -0.0007     CD =  0.01147   =>   CDf =  0.00585    CDp =  0.00562

 Side 1  free  transition at x/c =  0.1542   30
 Side 2 forced transition at x/c =  1.0000   72

  24   rms: 0.4662E-02   max: -.9778E-01   C at   30  1
       a =  8.000      CL =  0.9956
      Cm = -0.0007     CD =  0.01147   =>   CDf =  0.00585    CDp =  0.00562

 Side 1  free  transition at x/c =  0.1542   30
 Side 2 forced transition at x/c =  1.0000   72

  25   rms: 0.4662E-02   max: -.9778E-01   C at   30  1
       a =  8.000      CL =  0.9956
      Cm = -0.0007     CD =  0.01147   =>   CDf =  0.00585    CDp =  0.00562

 Side 1  free  transition at x/c =  0.1542   30
 Side 2 forced transition at x/c =  1.0000   72

  26   rms: 0.4662E-02   max: -.9778E-01   C at   30  1
       a =  8.000      CL =  0.9956
      Cm = -0.0007     CD =  0.01147   =>   CDf =  0.00585    CDp =  0.00562

 Side 1  free  transition at x/c =  0.1542   30
[...]
       a = 12.750      CL =  1.3198
      Cm =  0.0126     CD =  0.02801   =>   CDf =  0.00580    CDp =  0.02221

 Side 1  free  transition at x/c =  0.0071   19
 Side 2 forced transition at x/c =  1.0000   69

   2   rms: 0.6542E-02   max: 0.4820E-01   D at   75  1
       a = 12.750      CL =  1.3165
      Cm =  0.0126     CD =  0.02815   =>   CDf =  0.00571    CDp =  0.02244

 Side 1  free  transition at x/c =  0.0071   19
 Side 2 forced transition at x/c =  1.0000   69

   3   rms: 0.2670E-03   max: 0.4318E-02   D at   73  1
       a = 12.750      CL =  1.3164
      Cm =  0.0126     CD =  0.02813   =>   CDf =  0.00571    CDp =  0.02242

 Side 1  free  transition at x/c =  0.0071   19
 Side 2 forced transition at x/c =  1.0000   69

   4   rms: 0.5533E-05   max: 0.4592E-04   D at   73  1
       a = 12.750      CL =  1.3164
      Cm =  0.0126     CD =  0.02813   =>   CDf =  0.00571    CDp =  0.02242
 plradd ia,ip,cpol           40           0  1.32796922E-05

 Point added to stored polar  1
 Point written to save file  s5010_Re600k.base.pol                           
 Dump file unspecified or not available
 Calculating wake trajectory ...
 Calculating source influence matrix ...

 Solving BL system ...

 Side 1  free  transition at x/c =  0.0071   19
 Side 2 forced transition at x/c =  1.0000   69

   1   rms: 0.5851E-01   max: 0.1829E+00   D at   71  1
       a = 13.000      CL =  1.3132
      Cm =  0.0129     CD =  0.03113   =>   CDf =  0.00571    CDp =  0.02543

 Side 1  free  transition at x/c =  0.0064   18
 Side 2 forced transition at x/c =  1.0000   69

   2   rms: 0.1558E-01   max: -.1344E+00   D at   18  1
       a = 13.000      CL =  1.3133
      Cm =  0.0130     CD =  0.03069   =>   CDf =  0.00554    CDp =  0.02515

 Side 1  free  transition at x/c =  0.0065   18
 Side 2 forced transition at x/c =  1.0000   69

   3   rms: 0.4927E-03   max: 0.5149E-02   D at   18  1
       a = 13.000      CL =  1.3133
      Cm =  0.0130     CD =  0.03076   =>   CDf =  0.00558    CDp =  0.02518

 Side 1  free  transition at x/c =  0.0065   18
 Side 2 forced transition at x/c =  1.0000   69

   4   rms: 0.9776E-05   max: 0.5565E-04   D at   70  1
       a = 13.000      CL =  1.3133
      Cm =  0.0130     CD =  0.03076   =>   CDf =  0.00558    CDp =  0.02518
 plradd ia,ip,cpol           41           0  1.32796922E-05

 Point added to stored polar  1
 Point written to save file  s5010_Re600k.base.pol                           
 Dump file unspecified or not available
 Calculating wake trajectory ...
 Calculating source influence matrix ...

 Solving BL system ...

 Side 1  free  transition at x/c =  0.0065   18
 Side 2 forced transition at x/c =  1.0000   69

   1   rms: 0.4345E-01   max: 0.1358E+00   D at   68  1
       a = 13.250      CL =  1.3170
      Cm =  0.0129     CD =  0.03324   =>   CDf =  0.00558    CDp =  0.02766

 Side 1  free  transition at x/c =  0.0064   18
 Side 2 forced transition at x/c =  1.0000   69

   2   rms: 0.5757E-02   max: 0.4351E-01   D at   69  1
       a = 13.250      CL =  1.3139
      Cm =  0.0130     CD =  0.03322   =>   CDf =  0.00547    CDp =  0.02776

 Side 1  free  transition at x/c =  0.0064   18
 Side 2 forced transition at x/c =  1.0000   69

   3   rms: 0.2430E-03   max: 0.2566E-02   D at   68  1
       a = 13.250      CL =  1.3137
      Cm =  0.0130     CD =  0.03319   =>   CDf =  0.00546    CDp =  0.02773

 Side 1  free  transition at x/c =  0.0064   18
 Side 2 forced transition at x/c =  1.0000   69

   4   rms: 0.4688E-05   max: 0.1894E-04   D at   77  2
       a = 13.250      CL =  1.3137
      Cm =  0.0130     CD =  0.03319   =>   CDf =  0.00546    CDp =  0.02773
 plradd ia,ip,cpol           42           0  1.32796922E-05

 Point added to stored polar  1
 Point written to save file  s5010_Re600k.base.pol                           
 Dump file unspecified or not available
 Calculating wake trajectory ...
 Calculating source influence matrix ...

 Solving BL system ...

 Side 1  free  transition at x/c =  0.0064   18
 Side 2 forced transition at x/c =  1.0000   69

   1   rms: 0.4188E-01   max: 0.1288E+00   D at   66  1
       a = 13.500      CL =  1.3183
      Cm =  0.0127     CD =  0.03573   =>   CDf =  0.00546    CDp =  0.03027

 Side 1  free  transition at x/c =  0.0060   18
 Side 2 forced transition at x/c =  1.0000   69

   2   rms: 0.6714E-02   max: 0.4513E-01   D at   67  1
       a = 13.500      CL =  1.3145
      Cm =  0.0128     CD =  0.03578   =>   CDf =  0.00535    CDp =  0.03043

 Side 1  free  transition at x/c =  0.0060   18
 Side 2 forced transition at x/c =  1.0000   69

   3   rms: 0.2585E-03   max: 0.1786E-02   D at   66  1
       a = 13.500      CL =  1.3143
      Cm =  0.0128     CD =  0.03573   =>   CDf =  0.00534    CDp =  0.03039

 Side 1  free  transition at x/c =  0.0060   18
 Side 2 forced transition at x/c =  1.0000   69

   4   rms: 0.5738E-05   max: -.2131E-04   D at   81  2
       a = 13.500      CL =  1.3143
      Cm =  0.0128     CD =  0.03573   =>   CDf =  0.00535    CDp =  0.03038
 plradd ia,ip,cpol           43           0  1.32796922E-05

 Point added to stored polar  1
 Point written to save file  s5010_Re600k.base.pol                           
 Dump file unspecified or not available
 Calculating wake trajectory ...
 Calculating source influence matrix ...

 Solving BL system ...

 Side 1  free  transition at x/c =  0.0060   18
 Side 2 forced transition at x/c =  1.0000   69

   1   rms: 0.4068E-01   max: 0.1328E+00   D at   64  1
       a = 13.750      CL =  1.3180
      Cm =  0.0123     CD =  0.03854   =>   CDf =  0.00535    CDp =  0.03319

 Side 1  free  transition at x/c =  0.0059   18
 Side 2 forced transition at x/c =  1.0000   69

   2   rms: 0.5916E-02   max: 0.3887E-01   D at   65  1
       a = 13.750      CL =  1.3146
      Cm =  0.0124     CD =  0.03847   =>   CDf =  0.00524    CDp =  0.03324

 Side 1  free  transition at x/c =  0.0059   18
 Side 2 forced transition at x/c =  1.0000   69

   3   rms: 0.3104E-03   max: 0.3705E-02   D at   78  2
       a = 13.750      CL =  1.3144
      Cm =  0.0124     CD =  0.03843   =>   CDf =  0.00524    CDp =  0.03319

 Side 1  free  transition at x/c =  0.0059   18
 Side 2 forced transition at x/c =  1.0000   69

   4   rms: 0.4154E-05   max: 0.3876E-04   D at   78  2
       a = 13.750      CL =  1.3144
      Cm =  0.0124     CD =  0.03843   =>   CDf =  0.00524    CDp =  0.03319
 plradd ia,ip,cpol           44           0  1.32796922E-05

 Point added to stored polar  1
 Point written to save file  s5010_Re600k.base.pol                           
 Dump file unspecified or not available
 Calculating wake trajectory ...
 Calculating source influence matrix ...

 Solving BL system ...

 Side 1  free  transition at x/c =  0.0059   18
 Side 2 forced transition at x/c =  1.0000   69

   1   rms: 0.4542E-01   max: 0.1559E+00   D at   62  1
       a = 14.000      CL =  1.3144
      Cm =  0.0115     CD =  0.04193   =>   CDf =  0.00524    CDp =  0.03670

 Side 1  free  transition at x/c =  0.0056   18
 Side 2 forced transition at x/c =  1.0000   69

   2   rms: 0.7871E-02   max: 0.5164E-01   D at   63  1
       a = 14.000      CL =  1.3099
      Cm =  0.0116     CD =  0.04187   =>   CDf =  0.00512    CDp =  0.03675

 Side 1  free  transition at x/c =  0.0057   18
 Side 2 forced transition at x/c =  1.0000   69

   3   rms: 0.3630E-03   max: 0.2443E-02   D at   79  2
       a = 14.000      CL =  1.3096
      Cm =  0.0117     CD =  0.04179   =>   CDf =  0.00512    CDp =  0.03668

 Side 1  free  transition at x/c =  0.0057   18
 Side 2 forced transition at x/c =  1.0000   69

   4   rms: 0.1223E-04   max: -.5507E-04   D at   82  2
       a = 14.000      CL =  1.3096
      Cm =  0.0117     CD =  0.04179   =>   CDf =  0.00512    CDp =  0.03668
 plradd ia,ip,cpol           45           0  1.32796922E-05

 Point added to stored polar  1
 Point written to save file  s5010_Re600k.base.pol                           
 Dump file unspecified or not available
 Calculating wake trajectory ...
 Calculating source influence matrix ...

 Solving BL system ...

 Side 1  free  transition at x/c =  0.0057   18
 Side 2 forced transition at x/c =  1.0000   69

   1   rms: 0.4375E-01   max: 0.1571E+00   D at   60  1
       a = 14.250      CL =  1.3093
      Cm =  0.0105     CD =  0.04558   =>   CDf =  0.00512    CDp =  0.04047

 Side 1  free  transition at x/c =  0.0055   18
 Side 2 forced transition at x/c =  1.0000   69

   2   rms: 0.7549E-02   max: 0.4769E-01   D at   60  1
       a = 14.250      CL =  1.3048
      Cm =  0.0107     CD =  0.04540   =>   CDf =  0.00500    CDp =  0.04040

 Side 1  free  transition at x/c =  0.0055   18
 Side 2 forced transition at x/c =  1.0000   69

   3   rms: 0.4215E-03   max: 0.2673E-02   D at   79  2
       a = 14.250      CL =  1.3045
      Cm =  0.0107     CD =  0.04532   =>   CDf =  0.00500    CDp =  0.04033

 Side 1  free  transition at x/c =  0.0055   18
 Side 2 forced transition at x/c =  1.0000   69

   4   rms: 0.7452E-05   max: -.9992E-04   C at   69  2
       a = 14.250      CL =  1.3045
      Cm =  0.0107     CD =  0.04532   =>   CDf =  0.00500    CDp =  0.04032
 plradd ia,ip,cpol           46           0  1.32796922E-05

 Point added to stored polar  1
 Point written to save file  s5010_Re600k.base.pol                           
 Dump file unspecified or not available
 Calculating wake trajectory ...
 Calculating source influence matrix ...

 Solving BL system ...

 Side 1  free  transition at x/c =  0.0055   18
 Side 2 forced transition at x/c =  1.0000   69

   1   rms: 0.4346E-01   max: 0.1606E+00   D at   58  1
       a = 14.500      CL =  1.3037
      Cm =  0.0093     CD =  0.04944   =>   CDf =  0.00500    CDp =  0.04444

 Side 1  free  transition at x/c =  0.0055   18
 Side 2 forced transition at x/c =  1.0000   69

   2   rms: 0.7914E-02   max: 0.4910E-01   D at   58  1
       a = 14.500      CL =  1.2988
      Cm =  0.0095     CD =  0.04922   =>   CDf =  0.00488    CDp =  0.04434

 Side 1  free  transition at x/c =  0.0055   18
 Side 2 forced transition at x/c =  1.0000   69

   3   rms: 0.5324E-03   max: 0.4886E-02   D at   80  2
       a = 14.500      CL =  1.2984
      Cm =  0.0096     CD =  0.04913   =>   CDf =  0.00488    CDp =  0.04425

 Side 1  free  transition at x/c =  0.0055   18
 Side 2 forced transition at x/c =  1.0000   69

   4   rms: 0.1277E-04   max: 0.2014E-03   D at   80  2
       a = 14.500      CL =  1.2984
      Cm =  0.0096     CD =  0.04913   =>   CDf =  0.00488    CDp =  0.04425
 plradd ia,ip,cpol           47           0  1.32796922E-05

 Point added to stored polar  1
 Point written to save file  s5010_Re600k.base.pol                           
 Dump file unspecified or not available
 Calculating wake trajectory ...
 Calculating source influence matrix ...

 Solving BL system ...

 Side 1  free  transition at x/c =  0.0055   18
 Side 2 forced transition at x/c =  1.0000   69

   1   rms: 0.4392E-01   max: 0.1651E+00   D at   56  1
       a = 14.750      CL =  1.2965
      Cm =  0.0078     CD =  0.05366   =>   CDf =  0.00488    CDp =  0.04878

 Side 1  free  transition at x/c =  0.0052   18
 Side 2 forced transition at x/c =  1.0000   69

   2   rms: 0.9329E-02   max: 0.5242E-01   D at   56  1
       a = 14.750      CL =  1.2907
      Cm =  0.0081     CD =  0.05339   =>   CDf =  0.00477    CDp =  0.04862

 Side 1  free  transition at x/c =  0.0053   18
 Side 2 forced transition at x/c =  1.0000   69

   3   rms: 0.4569E-03   max: 0.3507E-02   D at   81  2
       a = 14.750      CL =  1.2904
      Cm =  0.0081     CD =  0.05326   =>   CDf =  0.00476    CDp =  0.04850

 Side 1  free  transition at x/c =  0.0053   18
 Side 2 forced transition at x/c =  1.0000   69

   4   rms: 0.2641E-04   max: -.1272E-03   D at   83  2
       a = 14.750      CL =  1.2904
      Cm =  0.0081     CD =  0.05326   =>   CDf =  0.00476    CDp =  0.04849
 plradd ia,ip,cpol           48           0  1.32796922E-05

 Point added to stored polar  1
 Point written to save file  s5010_Re600k.base.pol                           
 Dump file unspecified or not available
 Calculating wake trajectory ...
 Calculating source influence matrix ...

 Solving BL system ...

 Side 1  free  transition at x/c =  0.0053   18
 Side 2 forced transition at x/c =  1.0000   69

   1   rms: 0.4118E-01   max: 0.1598E+00   D at   54  1   RLX: 0.942
       a = 15.000      CL =  1.2892
      Cm =  0.0064     CD =  0.05763   =>   CDf =  0.00477    CDp =  0.05286

 Side 1  free  transition at x/c =  0.0053   18
 Side 2 forced transition at x/c =  1.0000   69

   2   rms: 0.9589E-02   max: 0.5189E-01   D at   54  1
       a = 15.000      CL =  1.2839
      Cm =  0.0065     CD =  0.05762   =>   CDf =  0.00466    CDp =  0.05296

 Side 1  free  transition at x/c =  0.0053   18
 Side 2 forced transition at x/c =  1.0000   69

   3   rms: 0.1099E-02   max: 0.9291E-02   D at   81  2
       a = 15.000      CL =  1.2832
      Cm =  0.0066     CD =  0.05746   =>   CDf =  0.00464    CDp =  0.05282

 Side 1  free  transition at x/c =  0.0053   18
 Side 2 forced transition at x/c =  1.0000   69

   4   rms: 0.4412E-04   max: 0.5797E-03   D at   81  2
       a = 15.000      CL =  1.2831
      Cm =  0.0066     CD =  0.05745   =>   CDf =  0.00464    CDp =  0.05280
 plradd ia,ip,cpol           49           0  1.32796922E-05

 Point added to stored polar  1
 Point written to save file  s5010_Re600k.base.pol                           
 Dump file unspecified or not available
 Calculating wake trajectory ...
 Calculating source influence matrix ...

 Solving BL system ...

 Side 1  free  transition at x/c =  0.0053   18
 Side 2 forced transition at x/c =  1.0000   69

   1   rms: 0.4817E-01   max: 0.1946E+00   D at   52  1   RLX: 0.875
       a = 15.250      CL =  1.2777
      Cm =  0.0044     CD =  0.06256   =>   CDf =  0.00465    CDp =  0.05791

 Side 1  free  transition at x/c =  0.0051   18
 Side 2 forced transition at x/c =  1.0000   69

   2   rms: 0.1534E-01   max: 0.8428E-01   D at   53  1
       a = 15.250      CL =  1.2700
      Cm =  0.0042     CD =  0.06315   =>   CDf =  0.00455    CDp =  0.05860

 Side 1  free  transition at x/c =  0.0051   18
 Side 2 forced transition at x/c =  1.0000   69

   3   rms: 0.1813E-02   max: 0.1016E-01   D at   82  2
       a = 15.250      CL =  1.2687
      Cm =  0.0044     CD =  0.06287   =>   CDf =  0.00452    CDp =  0.05835

 Side 1  free  transition at x/c =  0.0051   18
 Side 2 forced transition at x/c =  1.0000   69

   4   rms: 0.6814E-04   max: 0.5539E-03   D at   82  2
       a = 15.250      CL =  1.2687
      Cm =  0.0044     CD =  0.06284   =>   CDf =  0.00452    CDp =  0.05832
 plradd ia,ip,cpol           50           0  1.32796922E-05

 Point added to stored polar  1
 Point written to save file  s5010_Re600k.base.pol                           
 Dump file unspecified or not available
 Calculating wake trajectory ...
 Calculating source influence matrix ...

 Solving BL system ...

 Side 1  free  transition at x/c =  0.0051   18
 Side 2 forced transition at x/c =  1.0000   69

   1   rms: 0.4095E-01   max: 0.1705E+00   D at   50  1   RLX: 0.818
       a = 15.500      CL =  1.2660
      Cm =  0.0024     CD =  0.06735   =>   CDf =  0.00452    CDp =  0.06282

 Side 1  free  transition at x/c =  0.0051   18
 Side 2 forced transition at x/c =  1.0000   69

   2   rms: 0.1306E-01   max: 0.7204E-01   D at   51  1
       a = 15.500      CL =  1.2608
      Cm =  0.0021     CD =  0.06805   =>   CDf =  0.00443    CDp =  0.06362

 Side 1  free  transition at x/c =  0.0051   18
 Side 2 forced transition at x/c =  1.0000   69

   3   rms: 0.2198E-02   max: 0.1440E-01   D at   82  2
       a = 15.500      CL =  1.2594
      Cm =  0.0022     CD =  0.06779   =>   CDf =  0.00440    CDp =  0.06339

 Side 1  free  transition at x/c =  0.0051   18
 Side 2 forced transition at x/c =  1.0000   69

   4   rms: 0.1335E-03   max: 0.1389E-02   D at   82  2
       a = 15.500      CL =  1.2593
      Cm =  0.0022     CD =  0.06775   =>   CDf =  0.00440    CDp =  0.06335

 Side 1  free  transition at x/c =  0.0051   18
 Side 2 forced transition at x/c =  1.0000   69

   5   rms: 0.6903E-05   max: -.1990E-04   D at   84  2
       a = 15.500      CL =  1.2593
      Cm =  0.0022     CD =  0.06775   =>   CDf =  0.00440    CDp =  0.06334
 plradd ia,ip,cpol           51           0  1.32796922E-05

 Point added to stored polar  1
 Point written to save file  s5010_Re600k.base.pol                           
 Dump file unspecified or not available
 Calculating wake trajectory ...
 Calculating source influence matrix ...

 Solving BL system ...

 Side 1  free  transition at x/c =  0.0051   18
 Side 2 forced transition at x/c =  1.0000   69

   1   rms: 0.4489E-01   max: 0.1933E+00   D at   48  1   RLX: 0.767
       a = 15.750      CL =  1.2546
      Cm =  0.0000     CD =  0.07272   =>   CDf =  0.00441    CDp =  0.06831

 Side 1  free  transition at x/c =  0.0050   18
 Side 2 forced transition at x/c =  1.0000   69

   2   rms: 0.1712E-01   max: 0.9281E-01   D at   49  1
       a = 15.750      CL =  1.2476
      Cm = -0.0006     CD =  0.07399   =>   CDf =  0.00432    CDp =  0.06967

 Side 1  free  transition at x/c =  0.0050   18
 Side 2 forced transition at x/c =  1.0000   69

   3   rms: 0.2513E-02   max: 0.1518E-01   D at   48  1
       a = 15.750      CL =  1.2460
      Cm = -0.0004     CD =  0.07355   =>   CDf =  0.00429    CDp =  0.06926

 Side 1  free  transition at x/c =  0.0050   18
 Side 2 forced transition at x/c =  1.0000   69

   4   rms: 0.1192E-03   max: 0.8519E-03   D at   83  2
       a = 15.750      CL =  1.2459
      Cm = -0.0004     CD =  0.07349   =>   CDf =  0.00429    CDp =  0.06920

 Side 1  free  transition at x/c =  0.0050   18
 Side 2 forced transition at x/c =  1.0000   69

   5   rms: 0.6299E-05   max: -.2103E-04   C at   69  2
       a = 15.750      CL =  1.2459
      Cm = -0.0004     CD =  0.07349   =>   CDf =  0.00429    CDp =  0.06920
 plradd ia,ip,cpol           52           0  1.32796922E-05

 Point added to stored polar  1
 Point written to save file  s5010_Re600k.base.pol                           
 Dump file unspecified or not available
 Calculating wake trajectory ...
 Calculating source influence matrix ...

 Solving BL system ...

 Side 1  free  transition at x/c =  0.0050   18
 Side 2 forced transition at x/c =  1.0000   69

   1   rms: 0.4006E-01   max: 0.1757E+00   D at   47  1   RLX: 0.723
       a = 16.000      CL =  1.2428
      Cm = -0.0024     CD =  0.07806   =>   CDf =  0.00429    CDp =  0.07377

 Side 1  free  transition at x/c =  0.0051   18
 Side 2 forced transition at x/c =  1.0000   69

   2   rms: 0.1557E-01   max: 0.8190E-01   D at   47  1
       a = 16.000      CL =  1.2376
      Cm = -0.0030     CD =  0.07938   =>   CDf =  0.00420    CDp =  0.07518

 Side 1  free  transition at x/c =  0.0051   18
 Side 2 forced transition at x/c =  1.0000   69

   3   rms: 0.2515E-02   max: 0.1314E-01   D at   83  2
       a = 16.000      CL =  1.2359
      Cm = -0.0029     CD =  0.07890   =>   CDf =  0.00416    CDp =  0.07474

 Side 1  free  transition at x/c =  0.0051   18
 Side 2 forced transition at x/c =  1.0000   69

   4   rms: 0.1458E-03   max: 0.2008E-02   D at   83  2
       a = 16.000      CL =  1.2358
      Cm = -0.0028     CD =  0.07884   =>   CDf =  0.00416    CDp =  0.07467

 Side 1  free  transition at x/c =  0.0051   18
 Side 2 forced transition at x/c =  1.0000   69

   5   rms: 0.6712E-05   max: -.2096E-04   D at   85  2
       a = 16.000      CL =  1.2358
      Cm = -0.0028     CD =  0.07884   =>   CDf =  0.00416    CDp =  0.07467
 plradd ia,ip,cpol           53           0  1.32796922E-05

 Point added to stored polar  1
 Point written to save file  s5010_Re600k.base.pol                           
 Dump file unspecified or not available

.OPERva   c>  
 Polar accumulation disabled

.OPERv   c>  
 XFOIL   c>  
 XFOIL   c>  