
 ===================================================
  XFOIL Version 6.99
  Copyright (C) 2000   Mark Drela, Harold Youngren

  This software comes with ABSOLUTELY NO WARRANTY,
    subject to the GNU General Public License.

  Caveat computor
 ===================================================

 File  xfoil.def  not found

   QUIT    Exit program

  .OPER    Direct operating point(s)
  .MDES    Complex mapping design routine
  .QDES    Surface speed design routine
  .GDES    Geometry design routine

   SAVE f  Write airfoil to labeled coordinate file
   PSAV f  Write airfoil to plain coordinate file
   ISAV f  Write airfoil to ISES coordinate file
   MSAV f  Write airfoil to MSES coordinate file
   REVE    Reverse written-airfoil node ordering

   LOAD f  Read buffer airfoil from coordinate file
   NACA i  Set NACA 4,5-digit airfoil and buffer airfoil
   INTE    Set buffer airfoil by interpolating two airfoils
   NORM    Buffer airfoil normalization toggle
   XYCM rr Change CM reference location, currently  0.25000 0.00000

   BEND    Display structural properties of current airfoil

   PCOP    Set current-airfoil panel nodes directly from buffer airfoil points
   PANE    Set current-airfoil panel nodes ( 160 ) based on curvature
  .PPAR    Show/change paneling

  .PLOP    Plotting options

   WDEF f  Write  current-settings file
   RDEF f  Reread current-settings file
   NAME s  Specify new airfoil name
   NINC    Increment name version number

   Z       Zoom    | (available in all menus)
   U       Unzoom  | 

 XFOIL   c>  
 Labeled airfoil file.  Name:  S7012 8.75%                                     

 Number of input coordinate points:  81
 Counterclockwise ordering
 Max thickness =     0.087521  at x =   0.277
 Max camber    =     0.020226  at x =   0.376

  LE  x,y  =  -0.00001  -0.00006  |   Chord =   1.00001
  TE  x,y  =   1.00000   0.00000  |

 Current airfoil nodes set from buffer airfoil nodes (  81 )

 WARNING: Poor input coordinate distribution
          Excessive panel angle   42.7  at i =  43
          Repaneling with PANE and/or PPAR suggested
           (doing GDES,CADD before repaneling _may_
            improve excessively coarse LE spacing

 XFOIL   c>  
 XFOIL   c>  
 Sharp trailing edge

 Paneling parameters used...
   Number of panel nodes       160
   Panel bunching parameter    1.000
   TE/LE panel density ratio   0.150
   Refined-area/LE panel density ratio    0.200
   Top    side refined area x/c limits  1.000 1.000
   Bottom side refined area x/c limits  1.000 1.000

 XFOIL   c>  
.OPERi   c>  
 Xtr/c     =  1.0000    top    side
 Xtr/c     =  1.0000    bottom side
 Ncrit     =    9.00   ( 0.070 % turb. level )
 Vacc      =  0.0100

 Klag  =  5.6000     Uxwt  =    1.00
 A     =  6.7000     B     =  0.7500       KCt = 0.01485
 CtiniK=  1.8000     CtiniX=  3.3000

..VPAR   c>  
..VPAR   c>  
.OPERi   c>  
 M  =    0.0000
 Re =    600000

.OPERv   c>  
.OPERv   c>  
.OPERv   c>  
 Polar  1 newly created for accumulation
 Airfoil archived with polar: S7012 8.75%                                     

Enter  polar save filename  OR  <return> for no file   s>  
 New polar save file available

Enter  polar dump filename  OR  <return> for no file   s>  
 Polar dump file will NOT be written

 Polar accumulation enabled

.OPERva   c>   Calculating unit vorticity distributions ...
 Calculating wake trajectory ...
 Calculating source influence matrix ...

 Solving BL system ...

 Initializing BL ...
    side            1  ...
 MRCHUE: Inverse mode at  67     Hk =   4.126
 MRCHUE: Inverse mode at  68     Hk =   4.609
 MRCHUE: Inverse mode at  69     Hk =   5.085
 MRCHUE: Inverse mode at  70     Hk =   5.557
 MRCHUE: Inverse mode at  71     Hk =   6.025
 MRCHUE: Inverse mode at  72     Hk =   6.489
 MRCHUE: Inverse mode at  73     Hk =   5.441
 MRCHUE: Inverse mode at  74     Hk =   3.550
    side            2  ...
 MRCHUE: Inverse mode at  10     Hk =   4.647
 MRCHUE: Inverse mode at  11     Hk =   6.275
 MRCHUE: Convergence failed at  12  side 2    Res =  0.1205E+02
 MRCHUE: Inverse mode at  13     Hk =   8.241
 MRCHUE: Inverse mode at  14     Hk =   3.163
 MRCHUE: Inverse mode at  15     Hk =   2.500

 MRCHDU: Convergence failed at  14  side 2    Res =  0.4692E+01
 MRCHDU: Convergence failed at  15  side 2    Res =  0.4000E+02
 MRCHDU: Convergence failed at  16  side 2    Res =  0.3801E+02
 MRCHDU: Convergence failed at  17  side 2    Res =  0.2424E+02
 MRCHDU: Convergence failed at  18  side 2    Res =  0.1076E+02
 MRCHDU: Convergence failed at  19  side 2    Res =  0.1579E+03
 MRCHDU: Convergence failed at  20  side 2    Res =  0.8577E+02
 MRCHDU: Convergence failed at  21  side 2    Res =  0.2960E+02
 MRCHDU: Convergence failed at  22  side 2    Res =  0.2592E+02
 MRCHDU: Convergence failed at  23  side 2    Res =  0.2749E+02
 MRCHDU: Convergence failed at  24  side 2    Res =  0.2877E+02
 MRCHDU: Convergence failed at  25  side 2    Res =  0.3100E+02
 MRCHDU: Convergence failed at  26  side 2    Res =  0.3145E+02
 MRCHDU: Convergence failed at  27  side 2    Res =  0.3333E+02
 MRCHDU: Convergence failed at  28  side 2    Res =  0.3539E+02
 MRCHDU: Convergence failed at  29  side 2    Res =  0.3503E+02
 MRCHDU: Convergence failed at  30  side 2    Res =  0.3710E+02
 MRCHDU: Convergence failed at  31  side 2    Res =  0.3924E+02
 MRCHDU: Convergence failed at  32  side 2    Res =  0.9136E+02
 MRCHDU: Convergence failed at  33  side 2    Res =  0.3968E+02
 MRCHDU: Convergence failed at  34  side 2    Res =  0.4000E+02
 MRCHDU: Convergence failed at  35  side 2    Res =  0.4092E+02
 MRCHDU: Convergence failed at  36  side 2    Res =  0.4128E+02
 MRCHDU: Convergence failed at  37  side 2    Res =  0.4412E+02
 MRCHDU: Convergence failed at  38  side 2    Res =  0.3609E+02
 MRCHDU: Convergence failed at  39  side 2    Res =  0.3781E+02
 MRCHDU: Convergence failed at  40  side 2    Res =  0.3212E+02
 MRCHDU: Convergence failed at  41  side 2    Res =  0.3375E+02
 MRCHDU: Convergence failed at  42  side 2    Res =  0.2948E+02
 MRCHDU: Convergence failed at  43  side 2    Res =  0.3058E+02
 MRCHDU: Convergence failed at  44  side 2    Res =  0.3163E+02
 MRCHDU: Convergence failed at  45  side 2    Res =  0.3271E+02
 MRCHDU: Convergence failed at  46  side 2    Res =  0.3371E+02
 MRCHDU: Convergence failed at  47  side 2    Res =  0.3482E+02
 MRCHDU: Convergence failed at  48  side 2    Res =  0.3604E+02
 MRCHDU: Convergence failed at  49  side 2    Res =  0.3746E+02
 MRCHDU: Convergence failed at  50  side 2    Res =  0.3884E+02
 MRCHDU: Convergence failed at  51  side 2    Res =  0.4030E+02
 MRCHDU: Convergence failed at  52  side 2    Res =  0.4062E+02
 MRCHDU: Convergence failed at  53  side 2    Res =  0.4232E+02
 MRCHDU: Convergence failed at  54  side 2    Res =  0.4411E+02
 MRCHDU: Convergence failed at  55  side 2    Res =  0.4720E+02
 MRCHDU: Convergence failed at  56  side 2    Res =  0.5138E+02
 MRCHDU: Convergence failed at  57  side 2    Res =  0.6069E+02
 MRCHDU: Convergence failed at  58  side 2    Res =  0.6928E+02
 MRCHDU: Convergence failed at  59  side 2    Res =  0.7914E+02
 MRCHDU: Convergence failed at  60  side 2    Res =  0.1995E+03
 MRCHDU: Convergence failed at  61  side 2    Res =  0.1541E+03
 MRCHDU: Convergence failed at  62  side 2    Res =  0.1263E+03
 MRCHDU: Convergence failed at  63  side 2    Res =  0.1092E+03
 MRCHDU: Convergence failed at  64  side 2    Res =  0.9703E+02
 MRCHDU: Convergence failed at  65  side 2    Res =  0.8683E+02
 MRCHDU: Convergence failed at  66  side 2    Res =  0.7899E+02
 MRCHDU: Convergence failed at  67  side 2    Res =  0.7215E+02
 MRCHDU: Convergence failed at  68  side 2    Res =  0.3832E+03
 MRCHDU: Convergence failed at  69  side 2    Res =  0.5035E+04
 MRCHDU: Convergence failed at  70  side 2    Res =  0.5275E+02
 MRCHDU: Convergence failed at  71  side 2    Res =  0.5588E+02
 MRCHDU: Convergence failed at  72  side 2    Res =  0.5931E+02
 MRCHDU: Convergence failed at  73  side 2    Res =  0.6303E+02
 MRCHDU: Convergence failed at  74  side 2    Res =  0.6729E+02
 MRCHDU: Convergence failed at  75  side 2    Res =  0.7120E+02
 MRCHDU: Convergence failed at  76  side 2    Res =  0.7642E+02
 MRCHDU: Convergence failed at  77  side 2    Res =  0.8210E+02
 MRCHDU: Convergence failed at  78  side 2    Res =  0.8834E+02
 MRCHDU: Convergence failed at  79  side 2    Res =  0.9557E+02
 MRCHDU: Convergence failed at  80  side 2    Res =  0.1047E+03
 MRCHDU: Convergence failed at  81  side 2    Res =  0.1138E+03
 MRCHDU: Convergence failed at  82  side 2    Res =  0.1245E+03
 MRCHDU: Convergence failed at  83  side 2    Res =  0.1533E+03
 MRCHDU: Convergence failed at  84  side 2    Res =  0.1673E+03
 MRCHDU: Convergence failed at  85  side 2    Res =  0.4169E+03
 Side 1  free  transition at x/c =  0.9497   73
 Side 2  free  transition at x/c =  0.0174   14

   1   rms: 0.1495E+01   max: 0.1967E+01   D at   87  2   RLX: 0.322
       a = -4.000      CL = -1.5935
      Cm =  0.3529     CD =  0.00346   =>   CDf =  0.00133    CDp =  0.00213

 Side 1  free  transition at x/c =  0.9747   75
 Side 2  free  transition at x/c =  0.0140   14

   2   rms: 0.6446E+00   max: -.6329E+00   D at   86  2   RLX: 0.324
       a = -4.000      CL = -0.8861
      Cm =  0.1418     CD =  0.01929   =>   CDf =  0.00491    CDp =  0.01438

 MRCHDU: Convergence failed at  41  side 2    Res =  0.5028E-01
 Side 1  free  transition at x/c =  0.9810   75
 Side 2  free  transition at x/c =  0.0135   13

   3   rms: 0.6562E+00   max: -.2732E+01   C at   26  2   RLX: 0.125
       a = -4.000      CL = -0.7772
      Cm =  0.1066     CD =  0.01876   =>   CDf =  0.00473    CDp =  0.01404

 MRCHDU: Convergence failed at  23  side 2    Res =  0.3221E+00
 MRCHDU: Convergence failed at  24  side 2    Res =  0.4774E+00
 MRCHDU: Convergence failed at  25  side 2    Res =  0.6198E+00
 MRCHDU: Convergence failed at  41  side 2    Res =  0.1121E-01
 Side 1  free  transition at x/c =  0.9816   75
 Side 2  free  transition at x/c =  0.0135   13

   4   rms: 0.5105E+00   max: -.1741E+01   D at   32  2   RLX: 0.287
       a = -4.000      CL = -0.6350
      Cm =  0.0505     CD =  0.01770   =>   CDf =  0.00517    CDp =  0.01253

 Side 1  free  transition at x/c =  0.9828   75
 Side 2  free  transition at x/c =  0.0134   13

   5   rms: 0.1118E+01   max: -.6127E+01   D at   36  2   RLX: 0.082
       a = -4.000      CL = -0.5913
      Cm =  0.0377     CD =  0.01720   =>   CDf =  0.00493    CDp =  0.01227

 MRCHDU: Convergence failed at  34  side 2    Res =  0.6690E+00
 MRCHDU: Convergence failed at  35  side 2    Res =  0.4209E+00
 MRCHDU: Convergence failed at  36  side 2    Res =  0.5365E+00
 MRCHDU: Convergence failed at  37  side 2    Res =  0.3647E+00
 MRCHDU: Convergence failed at  38  side 2    Res =  0.1426E+01
 MRCHDU: Convergence failed at  39  side 2    Res =  0.7255E+00
 MRCHDU: Convergence failed at  40  side 2    Res =  0.8703E+01
 Side 1  free  transition at x/c =  0.9835   75
 Side 2  free  transition at x/c =  0.0135   13

   6   rms: 0.4786E+00   max: -.1528E+01   D at   54  2   RLX: 0.327
       a = -4.000      CL = -0.5332
      Cm =  0.0110     CD =  0.01555   =>   CDf =  0.00615    CDp =  0.00940

 Side 1  free  transition at x/c =  0.9853   76
 Side 2  free  transition at x/c =  0.0135   13

   7   rms: 0.6219E+00   max: -.2779E+01   D at   48  2   RLX: 0.180
       a = -4.000      CL = -0.5053
      Cm =  0.0080     CD =  0.01478   =>   CDf =  0.00543    CDp =  0.00935

 Side 1  free  transition at x/c =  0.9801   75
 Side 2  free  transition at x/c =  0.0131   13

   8   rms: 0.4309E+00   max: -.1809E+01   D at   49  2   RLX: 0.276
       a = -4.000      CL = -0.4208
      Cm = -0.0117     CD =  0.01381   =>   CDf =  0.00533    CDp =  0.00848

 Side 1  free  transition at x/c =  0.9778   75
 Side 2  free  transition at x/c =  0.0131   13

   9   rms: 0.7463E+00   max: -.2831E+01   D at   61  2   RLX: 0.177
       a = -4.000      CL = -0.3374
      Cm = -0.0348     CD =  0.01187   =>   CDf =  0.00526    CDp =  0.00661

 Side 1  free  transition at x/c =  0.9868   76
 Side 2  free  transition at x/c =  0.0135   13

  10   rms: 0.3481E+00   max: -.1339E+01   D at   66  2   RLX: 0.373
       a = -4.000      CL = -0.2760
      Cm = -0.0472     CD =  0.01116   =>   CDf =  0.00562    CDp =  0.00553

 Side 1  free  transition at x/c =  0.9808   75
 Side 2  free  transition at x/c =  0.0134   13

  11   rms: 0.4076E+00   max: 0.1640E+01   T at   75  1   RLX: 0.334
       a = -4.000      CL = -0.3163
      Cm = -0.0377     CD =  0.01148   =>   CDf =  0.00560    CDp =  0.00589

 MRCHDU: Convergence failed at  80  side 2    Res =  0.4046E+00
 MRCHDU: Convergence failed at  81  side 2    Res =  0.2726E+00
 MRCHDU: Convergence failed at  82  side 2    Res =  0.3056E+00
 MRCHDU: Convergence failed at  83  side 2    Res =  0.4981E+00
 MRCHDU: Convergence failed at  84  side 2    Res =  0.3366E+00
 Side 1  free  transition at x/c =  0.9476   73
 Side 2  free  transition at x/c =  0.0126   13

  12   rms: 0.1873E+00   max: -.5494E+00   D at   85  2   RLX: 0.775
       a = -4.000      CL = -0.2986
      Cm = -0.0298     CD =  0.01121   =>   CDf =  0.00610    CDp =  0.00511

 Side 1  free  transition at x/c =  0.9492   73
 Side 2  free  transition at x/c =  0.0127   13

  13   rms: 0.7398E-01   max: -.5199E+00   D at   85  2   RLX: 0.962
       a = -4.000      CL = -0.2339
      Cm = -0.0457     CD =  0.01153   =>   CDf =  0.00568    CDp =  0.00585

 Side 1  free  transition at x/c =  0.9623   74
 Side 2  free  transition at x/c =  0.0128   13

  14   rms: 0.4316E-01   max: -.3168E+00   D at   85  2
       a = -4.000      CL = -0.1991
      Cm = -0.0535     CD =  0.01112   =>   CDf =  0.00560    CDp =  0.00552

 Side 1  free  transition at x/c =  0.9706   74
 Side 2  free  transition at x/c =  0.0131   13

  15   rms: 0.4750E-01   max: -.3654E+00   T at   74  1
       a = -4.000      CL = -0.1607
      Cm = -0.0620     CD =  0.01101   =>   CDf =  0.00562    CDp =  0.00540

 MRCHDU: Convergence failed at  77  side 1    Res =  0.5359E+01
 Side 1 forced transition at x/c =  1.0000   77
 Side 2  free  transition at x/c =  0.0135   13

  16   rms: 0.2083E+00   max: 0.2986E+01   C at   77  1   RLX: 0.502
       a = -4.000      CL = -0.2152
      Cm = -0.0507     CD =  0.01071   =>   CDf =  0.00562    CDp =  0.00509

 Side 1  free  transition at x/c =  0.9498   73
 Side 2  free  transition at x/c =  0.0129   13

  17   rms: 0.9174E-01   max: -.7228E+00   D at   77  1   RLX: 0.692
       a = -4.000      CL = -0.1839
      Cm = -0.0564     CD =  0.01144   =>   CDf =  0.00557    CDp =  0.00587

 Side 1  free  transition at x/c =  0.9777   75
 Side 2  free  transition at x/c =  0.0134   13

  18   rms: 0.1540E-01   max: 0.1097E+00   D at   87  2
       a = -4.000      CL = -0.1915
      Cm = -0.0552     CD =  0.01121   =>   CDf =  0.00560    CDp =  0.00561

 Side 1  free  transition at x/c =  0.9741   75
 Side 2  free  transition at x/c =  0.0133   13

  19   rms: 0.2007E-02   max: -.1727E-01   D at   77  1
       a = -4.000      CL = -0.1910
      Cm = -0.0553     CD =  0.01122   =>   CDf =  0.00560    CDp =  0.00562

 Side 1  free  transition at x/c =  0.9745   75
 Side 2  free  transition at x/c =  0.0133   13

  20   rms: 0.1437E-04   max: -.1388E-03   D at   87  2
       a = -4.000      CL = -0.1910
      Cm = -0.0553     CD =  0.01122   =>   CDf =  0.00560    CDp =  0.00562
 plradd ia,ip,cpol            1           0  6.78066222E-04

 Point added to stored polar  1
 Point written to save file  s7012_Re600k.base.pol                           
 Dump file unspecified or not available
 Calculating wake trajectory ...
 Calculating source influence matrix ...

 Solving BL system ...

 Side 1  free  transition at x/c =  0.9745   75
 Side 2  free  transition at x/c =  0.0133   13

   1   rms: 0.1093E+00   max: -.7159E+00   T at   13  2   RLX: 0.698
       a = -3.500      CL = -0.1386
      Cm = -0.0580     CD =  0.01056   =>   CDf =  0.00560    CDp =  0.00496

 Side 1  free  transition at x/c =  0.9686   74
 Side 2  free  transition at x/c =  0.0145   14

   2   rms: 0.3290E-01   max: -.3769E+00   D at   13  2
       a = -3.500      CL = -0.1243
      Cm = -0.0574     CD =  0.01003   =>   CDf =  0.00567    CDp =  0.00436

 Side 1  free  transition at x/c =  0.9575   74
 Side 2  free  transition at x/c =  0.0138   14

   3   rms: 0.1546E-01   max: -.1105E+00   C at   74  1
       a = -3.500      CL = -0.1209
      Cm = -0.0582     CD =  0.00972   =>   CDf =  0.00574    CDp =  0.00398

 Side 1  free  transition at x/c =  0.9616   74
 Side 2  free  transition at x/c =  0.0137   14

   4   rms: 0.1015E-02   max: -.1053E-01   D at   74  1
       a = -3.500      CL = -0.1211
      Cm = -0.0582     CD =  0.00973   =>   CDf =  0.00573    CDp =  0.00399

 Side 1  free  transition at x/c =  0.9617   74
 Side 2  free  transition at x/c =  0.0137   14

   5   rms: 0.1224E-04   max: 0.1538E-03   D at   74  1
       a = -3.500      CL = -0.1211
      Cm = -0.0582     CD =  0.00973   =>   CDf =  0.00573    CDp =  0.00399
 plradd ia,ip,cpol            2           0  6.78066222E-04

 Point added to stored polar  1
 Point written to save file  s7012_Re600k.base.pol                           
 Dump file unspecified or not available
 Calculating wake trajectory ...
 Calculating source influence matrix ...

 Solving BL system ...

 Side 1  free  transition at x/c =  0.9617   74
 Side 2  free  transition at x/c =  0.0137   14

   1   rms: 0.1608E+00   max: -.6240E+00   D at   15  2   RLX: 0.801
       a = -3.000      CL = -0.0633
      Cm = -0.0610     CD =  0.00841   =>   CDf =  0.00579    CDp =  0.00262

 Side 1  free  transition at x/c =  0.9474   74
 Side 2  free  transition at x/c =  0.0145   13

   2   rms: 0.3317E-01   max: -.1494E+00   D at   14  2
       a = -3.000      CL = -0.0533
      Cm = -0.0605     CD =  0.00847   =>   CDf =  0.00589    CDp =  0.00258

 Side 1  free  transition at x/c =  0.9397   73
 Side 2  free  transition at x/c =  0.0151   13

   3   rms: 0.2887E-02   max: -.4075E-01   C at   73  1
       a = -3.000      CL = -0.0528
      Cm = -0.0606     CD =  0.00849   =>   CDf =  0.00595    CDp =  0.00254

 Side 1  free  transition at x/c =  0.9407   73
 Side 2  free  transition at x/c =  0.0152   13

   4   rms: 0.1692E-03   max: 0.1403E-02   C at   73  1
       a = -3.000      CL = -0.0529
      Cm = -0.0606     CD =  0.00849   =>   CDf =  0.00594    CDp =  0.00255

 Side 1  free  transition at x/c =  0.9406   73
 Side 2  free  transition at x/c =  0.0152   13

   5   rms: 0.2335E-05   max: -.9462E-05   C at   73  1
       a = -3.000      CL = -0.0529
      Cm = -0.0606     CD =  0.00849   =>   CDf =  0.00594    CDp =  0.00255
 plradd ia,ip,cpol            3           0  1.75907603E-03

 Point added to stored polar  1
 Point written to save file  s7012_Re600k.base.pol                           
 Dump file unspecified or not available
 Calculating wake trajectory ...
 Calculating source influence matrix ...

 Solving BL system ...

 Side 1  free  transition at x/c =  0.9406   73
 Side 2  free  transition at x/c =  0.0152   13

   1   rms: 0.1234E+00   max: -.5458E+00   T at   13  2   RLX: 0.916
       a = -2.500      CL = -0.0002
      Cm = -0.0605     CD =  0.00782   =>   CDf =  0.00594    CDp =  0.00188

 Side 1  free  transition at x/c =  0.9005   71
 Side 2  free  transition at x/c =  0.0253   14

   2   rms: 0.2432E+00   max: -.5657E+01   C at   14  2   RLX: 0.088
       a = -2.500      CL = -0.0002
      Cm = -0.0598     CD =  0.00800   =>   CDf =  0.00610    CDp =  0.00190

 Side 1  free  transition at x/c =  0.9010   71
 Side 2  free  transition at x/c =  0.0274   14

   3   rms: 0.7067E-01   max: -.7565E+00   T at   14  2   RLX: 0.661
       a = -2.500      CL =  0.0049
      Cm = -0.0605     CD =  0.00785   =>   CDf =  0.00608    CDp =  0.00178

 Side 1  free  transition at x/c =  0.9048   71
 Side 2  free  transition at x/c =  0.0756   18

   4   rms: 0.2282E+00   max: -.5576E+01   C at   18  2   RLX: 0.090
       a = -2.500      CL =  0.0003
      Cm = -0.0616     CD =  0.00767   =>   CDf =  0.00586    CDp =  0.00181

 Side 1  free  transition at x/c =  0.9048   71
 Side 2  free  transition at x/c =  0.0771   19

   5   rms: 0.8093E-01   max: -.1160E+01   C at   19  2   RLX: 0.431
       a = -2.500      CL =  0.0032
      Cm = -0.0613     CD =  0.00756   =>   CDf =  0.00586    CDp =  0.00170

 Side 1  free  transition at x/c =  0.9048   71
 Side 2  free  transition at x/c =  0.1142   21

   6   rms: 0.9356E-01   max: -.2184E+01   C at   21  2   RLX: 0.229
       a = -2.500      CL =  0.0030
      Cm = -0.0614     CD =  0.00744   =>   CDf =  0.00568    CDp =  0.00176

 Side 1  free  transition at x/c =  0.9048   71
 Side 2  free  transition at x/c =  0.1233   22

   7   rms: 0.6613E-01   max: -.1448E+01   C at   22  2   RLX: 0.345
       a = -2.500      CL =  0.0040
      Cm = -0.0613     CD =  0.00737   =>   CDf =  0.00564    CDp =  0.00173

 Side 1  free  transition at x/c =  0.9047   71
 Side 2  free  transition at x/c =  0.1311   22

   8   rms: 0.2135E-01   max: -.4793E+00   C at   22  2
       a = -2.500      CL =  0.0059
      Cm = -0.0611     CD =  0.00735   =>   CDf =  0.00561    CDp =  0.00174

 Side 1  free  transition at x/c =  0.9047   71
 Side 2  free  transition at x/c =  0.1396   23

   9   rms: 0.1611E-02   max: 0.2888E-01   C at   23  2
       a = -2.500      CL =  0.0059
      Cm = -0.0611     CD =  0.00734   =>   CDf =  0.00557    CDp =  0.00177

 Side 1  free  transition at x/c =  0.9047   71
 Side 2  free  transition at x/c =  0.1389   23

  10   rms: 0.4195E-04   max: -.9418E-03   C at   23  2
       a = -2.500      CL =  0.0059
      Cm = -0.0611     CD =  0.00734   =>   CDf =  0.00557    CDp =  0.00177
 plradd ia,ip,cpol            4           0  1.75907603E-03

 Point added to stored polar  1
 Point written to save file  s7012_Re600k.base.pol                           
 Dump file unspecified or not available
 Calculating wake trajectory ...
 Calculating source influence matrix ...

 Solving BL system ...

 Side 1  free  transition at x/c =  0.9047   71
 Side 2  free  transition at x/c =  0.1389   23

   1   rms: 0.5845E+00   max: -.1298E+02   C at   23  2   RLX: 0.039
       a = -2.000      CL =  0.0080
      Cm = -0.0612     CD =  0.00729   =>   CDf =  0.00558    CDp =  0.00171

 Side 1  free  transition at x/c =  0.9031   71
 Side 2  free  transition at x/c =  0.1482   24

   2   rms: 0.5618E+00   max: -.1115E+02   C at   24  2   RLX: 0.045
       a = -2.000      CL =  0.0106
      Cm = -0.0611     CD =  0.00722   =>   CDf =  0.00560    CDp =  0.00162

 Side 1  free  transition at x/c =  0.9015   72
 Side 2  free  transition at x/c =  0.1579   23

   3   rms: 0.6721E+00   max: -.1002E+02   C at   23  2   RLX: 0.050
       a = -2.000      CL =  0.0135
      Cm = -0.0611     CD =  0.00720   =>   CDf =  0.00553    CDp =  0.00168

 Side 1  free  transition at x/c =  0.8998   71
 Side 2  free  transition at x/c =  0.1673   24

   4   rms: 0.3748E+00   max: -.8160E+01   C at   24  2   RLX: 0.061
       a = -2.000      CL =  0.0163
      Cm = -0.0611     CD =  0.00714   =>   CDf =  0.00550    CDp =  0.00165

 Side 1  free  transition at x/c =  0.8973   71
 Side 2  free  transition at x/c =  0.1765   25

   5   rms: 0.3462E+00   max: -.6902E+01   C at   25  2   RLX: 0.072
       a = -2.000      CL =  0.0196
      Cm = -0.0611     CD =  0.00708   =>   CDf =  0.00547    CDp =  0.00161

 Side 1  free  transition at x/c =  0.8944   71
 Side 2  free  transition at x/c =  0.1872   25

   6   rms: 0.3194E+00   max: -.6977E+01   C at   25  2   RLX: 0.072
       a = -2.000      CL =  0.0227
      Cm = -0.0610     CD =  0.00706   =>   CDf =  0.00544    CDp =  0.00162

 Side 1  free  transition at x/c =  0.8919   71
 Side 2  free  transition at x/c =  0.1996   26

   7   rms: 0.3431E+00   max: -.7487E+01   C at   26  2   RLX: 0.067
       a = -2.000      CL =  0.0251
      Cm = -0.0610     CD =  0.00700   =>   CDf =  0.00540    CDp =  0.00160

 Side 1  free  transition at x/c =  0.8899   71
 Side 2  free  transition at x/c =  0.2111   27

   8   rms: 0.3175E+00   max: -.6851E+01   C at   27  2   RLX: 0.073
       a = -2.000      CL =  0.0276
      Cm = -0.0610     CD =  0.00695   =>   CDf =  0.00537    CDp =  0.00158

 Side 1  free  transition at x/c =  0.8879   71
 Side 2  free  transition at x/c =  0.2235   28

   9   rms: 0.2980E+00   max: -.6321E+01   C at   28  2   RLX: 0.079
       a = -2.000      CL =  0.0301
      Cm = -0.0610     CD =  0.00689   =>   CDf =  0.00534    CDp =  0.00155

 Side 1  free  transition at x/c =  0.8861   71
 Side 2  free  transition at x/c =  0.2377   29

  10   rms: 0.2930E+00   max: -.6183E+01   C at   29  2   RLX: 0.081
       a = -2.000      CL =  0.0325
      Cm = -0.0610     CD =  0.00683   =>   CDf =  0.00530    CDp =  0.00154

 Side 1  free  transition at x/c =  0.8845   70
 Side 2  free  transition at x/c =  0.2527   30

  11   rms: 0.2626E+00   max: -.5522E+01   C at   30  2   RLX: 0.091
       a = -2.000      CL =  0.0348
      Cm = -0.0610     CD =  0.00677   =>   CDf =  0.00525    CDp =  0.00152

 Side 1  free  transition at x/c =  0.8822   70
 Side 2  free  transition at x/c =  0.2705   31

  12   rms: 0.2353E+00   max: -.4901E+01   C at   31  2   RLX: 0.102
       a = -2.000      CL =  0.0371
      Cm = -0.0610     CD =  0.00670   =>   CDf =  0.00519    CDp =  0.00151

 Side 1  free  transition at x/c =  0.8799   70
 Side 2  free  transition at x/c =  0.2929   33

  13   rms: 0.2760E+00   max: -.5690E+01   C at   33  2   RLX: 0.088
       a = -2.000      CL =  0.0384
      Cm = -0.0610     CD =  0.00660   =>   CDf =  0.00512    CDp =  0.00148

 Side 1  free  transition at x/c =  0.8781   70
 Side 2  free  transition at x/c =  0.3038   34

  14   rms: 0.2350E+00   max: -.4568E+01   C at   34  2   RLX: 0.109
       a = -2.000      CL =  0.0409
      Cm = -0.0610     CD =  0.00655   =>   CDf =  0.00509    CDp =  0.00146

 Side 1  free  transition at x/c =  0.8762   70
 Side 2  free  transition at x/c =  0.3156   34

  15   rms: 0.1863E+00   max: -.3806E+01   C at   34  2   RLX: 0.131
       a = -2.000      CL =  0.0435
      Cm = -0.0610     CD =  0.00653   =>   CDf =  0.00506    CDp =  0.00147

 Side 1  free  transition at x/c =  0.8743   70
 Side 2  free  transition at x/c =  0.3306   36

  16   rms: 0.1818E+00   max: -.3413E+01   C at   36  2   RLX: 0.147
       a = -2.000      CL =  0.0457
      Cm = -0.0610     CD =  0.00644   =>   CDf =  0.00501    CDp =  0.00143

 Side 1  free  transition at x/c =  0.8725   70
 Side 2  free  transition at x/c =  0.3430   36

  17   rms: 0.1677E+00   max: -.3417E+01   C at   36  2   RLX: 0.146
       a = -2.000      CL =  0.0478
      Cm = -0.0610     CD =  0.00642   =>   CDf =  0.00497    CDp =  0.00145

 Side 1  free  transition at x/c =  0.8711   69
 Side 2  free  transition at x/c =  0.3547   37

  18   rms: 0.1375E+00   max: -.2808E+01   C at   37  2   RLX: 0.178
       a = -2.000      CL =  0.0498
      Cm = -0.0611     CD =  0.00636   =>   CDf =  0.00493    CDp =  0.00143

 Side 1  free  transition at x/c =  0.8693   69
 Side 2  free  transition at x/c =  0.3676   38

  19   rms: 0.1147E+00   max: -.2331E+01   C at   38  2   RLX: 0.215
       a = -2.000      CL =  0.0517
      Cm = -0.0610     CD =  0.00631   =>   CDf =  0.00489    CDp =  0.00142

 Side 1  free  transition at x/c =  0.8674   69
 Side 2  free  transition at x/c =  0.3806   39

  20   rms: 0.8677E-01   max: -.1752E+01   C at   39  2   RLX: 0.285
       a = -2.000      CL =  0.0536
      Cm = -0.0610     CD =  0.00626   =>   CDf =  0.00485    CDp =  0.00141

 Side 1  free  transition at x/c =  0.8655   69
 Side 2  free  transition at x/c =  0.3942   40

  21   rms: 0.5773E-01   max: -.1157E+01   C at   40  2   RLX: 0.432
       a = -2.000      CL =  0.0557
      Cm = -0.0610     CD =  0.00621   =>   CDf =  0.00481    CDp =  0.00140

 Side 1  free  transition at x/c =  0.8635   69
 Side 2  free  transition at x/c =  0.4093   41

  22   rms: 0.3170E-01   max: -.6321E+00   C at   41  2   RLX: 0.791
       a = -2.000      CL =  0.0577
      Cm = -0.0610     CD =  0.00616   =>   CDf =  0.00477    CDp =  0.00139

 Side 1  free  transition at x/c =  0.8615   69
 Side 2  free  transition at x/c =  0.4254   42

  23   rms: 0.6829E-02   max: -.1348E+00   C at   42  2
       a = -2.000      CL =  0.0582
      Cm = -0.0610     CD =  0.00614   =>   CDf =  0.00472    CDp =  0.00142

 Side 1  free  transition at x/c =  0.8611   69
 Side 2  free  transition at x/c =  0.4300   42

  24   rms: 0.4542E-03   max: -.9141E-02   C at   42  2
       a = -2.000      CL =  0.0582
      Cm = -0.0610     CD =  0.00614   =>   CDf =  0.00471    CDp =  0.00143

 Side 1  free  transition at x/c =  0.8611   69
 Side 2  free  transition at x/c =  0.4303   42

  25   rms: 0.2441E-05   max: 0.4420E-04   C at   42  2
       a = -2.000      CL =  0.0582
      Cm = -0.0610     CD =  0.00614   =>   CDf =  0.00471    CDp =  0.00143
 plradd ia,ip,cpol            5           0  1.75907603E-03

 Point added to stored polar  1
 Point written to save file  s7012_Re600k.base.pol                           
 Dump file unspecified or not available
 Calculating wake trajectory ...
 Calculating source influence matrix ...

 Solving BL system ...

 Side 1  free  transition at x/c =  0.8611   69
 Side 2  free  transition at x/c =  0.4303   42

   1   rms: 0.3808E+00   max: -.7327E+01   C at   42  2   RLX: 0.068
       a = -1.500      CL =  0.0617
      Cm = -0.0609     CD =  0.00610   =>   CDf =  0.00471    CDp =  0.00138

 Side 1  free  transition at x/c =  0.8581   69
 Side 2  free  transition at x/c =  0.4499   44

   2   rms: 0.3985E+00   max: -.7662E+01   C at   44  2   RLX: 0.065
       a = -1.500      CL =  0.0646
      Cm = -0.0608     CD =  0.00602   =>   CDf =  0.00466    CDp =  0.00136

 Side 1  free  transition at x/c =  0.8558   68
 Side 2  free  transition at x/c =  0.4623   45

   3   rms: 0.3335E+00   max: -.6294E+01   C at   45  2   RLX: 0.079
       a = -1.500      CL =  0.0686
      Cm = -0.0609     CD =  0.00597   =>   CDf =  0.00463    CDp =  0.00133

 Side 1  free  transition at x/c =  0.8523   68
 Side 2  free  transition at x/c =  0.4745   46

   4   rms: 0.2945E+00   max: -.5411E+01   C at   46  2   RLX: 0.092
       a = -1.500      CL =  0.0727
      Cm = -0.0609     CD =  0.00592   =>   CDf =  0.00461    CDp =  0.00131

 Side 1  free  transition at x/c =  0.8486   68
 Side 2  free  transition at x/c =  0.4878   46

   5   rms: 0.2622E+00   max: -.4964E+01   C at   46  2   RLX: 0.101
       a = -1.500      CL =  0.0767
      Cm = -0.0609     CD =  0.00591   =>   CDf =  0.00458    CDp =  0.00133

 Side 1  free  transition at x/c =  0.8452   68
 Side 2  free  transition at x/c =  0.5036   48

   6   rms: 0.2811E+00   max: -.5266E+01   C at   48  2   RLX: 0.095
       a = -1.500      CL =  0.0799
      Cm = -0.0608     CD =  0.00584   =>   CDf =  0.00454    CDp =  0.00129

 Side 1  free  transition at x/c =  0.8426   67
 Side 2  free  transition at x/c =  0.5168   49

   7   rms: 0.2711E+00   max: -.5097E+01   C at   49  2   RLX: 0.098
       a = -1.500      CL =  0.0830
      Cm = -0.0609     CD =  0.00579   =>   CDf =  0.00451    CDp =  0.00128

 Side 1  free  transition at x/c =  0.8398   67
 Side 2  free  transition at x/c =  0.5307   49

   8   rms: 0.2284E+00   max: -.4324E+01   C at   49  2   RLX: 0.116
       a = -1.500      CL =  0.0864
      Cm = -0.0609     CD =  0.00577   =>   CDf =  0.00447    CDp =  0.00130

 Side 1  free  transition at x/c =  0.8367   67
 Side 2  free  transition at x/c =  0.5506   51

   9   rms: 0.2412E+00   max: -.4589E+01   C at   51  2   RLX: 0.109
       a = -1.500      CL =  0.0887
      Cm = -0.0607     CD =  0.00570   =>   CDf =  0.00440    CDp =  0.00130

 Side 1  free  transition at x/c =  0.8343   67
 Side 2  free  transition at x/c =  0.5660   52

  10   rms: 0.1983E+00   max: -.3733E+01   C at   52  2   RLX: 0.134
       a = -1.500      CL =  0.0916
      Cm = -0.0607     CD =  0.00566   =>   CDf =  0.00436    CDp =  0.00130

 Side 1  free  transition at x/c =  0.8317   67
 Side 2  free  transition at x/c =  0.5856   53

  11   rms: 0.1112E+00   max: -.1964E+01   C at   53  2   RLX: 0.255
       a = -1.500      CL =  0.0962
      Cm = -0.0605     CD =  0.00564   =>   CDf =  0.00431    CDp =  0.00132

 Side 1  free  transition at x/c =  0.8280   66
 Side 2  free  transition at x/c =  0.6260   56

  12   rms: 0.4086E-01   max: 0.2417E+00   D at   57  2
       a = -1.500      CL =  0.1100
      Cm = -0.0601     CD =  0.00561   =>   CDf =  0.00428    CDp =  0.00134

 MRCHDU: Convergence failed at  60  side 2    Res =  0.4923E+01
 Side 1  free  transition at x/c =  0.8137   66
 Side 2  free  transition at x/c =  0.6964   60

  13   rms: 0.2333E-01   max: 0.3048E+00   D at   55  2
       a = -1.500      CL =  0.1084
      Cm = -0.0597     CD =  0.00548   =>   CDf =  0.00413    CDp =  0.00135

 Side 1  free  transition at x/c =  0.8153   67
 Side 2  free  transition at x/c =  0.6706   58

  14   rms: 0.1083E-01   max: -.1704E+00   D at   59  2
       a = -1.500      CL =  0.1090
      Cm = -0.0598     CD =  0.00553   =>   CDf =  0.00419    CDp =  0.00134

 Side 1  free  transition at x/c =  0.8159   67
 Side 2  free  transition at x/c =  0.6695   58

  15   rms: 0.7255E-03   max: 0.1259E-01   C at   58  2
       a = -1.500      CL =  0.1090
      Cm = -0.0598     CD =  0.00553   =>   CDf =  0.00415    CDp =  0.00138

 Side 1  free  transition at x/c =  0.8159   67
 Side 2  free  transition at x/c =  0.6692   58

  16   rms: 0.1856E-05   max: -.2402E-04   D at   61  2
       a = -1.500      CL =  0.1090
      Cm = -0.0598     CD =  0.00553   =>   CDf =  0.00415    CDp =  0.00138
 plradd ia,ip,cpol            6           0  1.75907603E-03

 Point added to stored polar  1
 Point written to save file  s7012_Re600k.base.pol                           
 Dump file unspecified or not available
 Calculating wake trajectory ...
 Calculating source influence matrix ...

 Solving BL system ...

 Side 1  free  transition at x/c =  0.8159   67
 Side 2  free  transition at x/c =  0.6692   58

   1   rms: 0.1628E+00   max: -.1699E+01   C at   58  2   RLX: 0.294
       a = -1.000      CL =  0.1242
      Cm = -0.0594     CD =  0.00555   =>   CDf =  0.00416    CDp =  0.00139

 Side 1  free  transition at x/c =  0.8028   66
 Side 2  free  transition at x/c =  0.6938   60

   2   rms: 0.9948E-01   max: -.9239E+00   C at   60  2   RLX: 0.541
       a = -1.000      CL =  0.1442
      Cm = -0.0589     CD =  0.00554   =>   CDf =  0.00416    CDp =  0.00138

 Side 1  free  transition at x/c =  0.7857   64
 Side 2  free  transition at x/c =  0.7085   61

   3   rms: 0.3973E-01   max: -.3003E+00   T at   61  2
       a = -1.000      CL =  0.1627
      Cm = -0.0590     CD =  0.00556   =>   CDf =  0.00427    CDp =  0.00129

 Side 1  free  transition at x/c =  0.7687   63
 Side 2  free  transition at x/c =  0.7383   63

   4   rms: 0.8399E-02   max: 0.9605E-01   D at   63  2
       a = -1.000      CL =  0.1615
      Cm = -0.0586     CD =  0.00556   =>   CDf =  0.00422    CDp =  0.00134

 Side 1  free  transition at x/c =  0.7715   63
 Side 2  free  transition at x/c =  0.7371   63

   5   rms: 0.7107E-03   max: 0.1122E-01   C at   63  2
       a = -1.000      CL =  0.1615
      Cm = -0.0586     CD =  0.00556   =>   CDf =  0.00421    CDp =  0.00135

 Side 1  free  transition at x/c =  0.7714   63
 Side 2  free  transition at x/c =  0.7369   63

   6   rms: 0.2978E-05   max: -.5134E-04   D at   65  2
       a = -1.000      CL =  0.1615
      Cm = -0.0586     CD =  0.00556   =>   CDf =  0.00421    CDp =  0.00135
 plradd ia,ip,cpol            7           0  1.75907603E-03

 Point added to stored polar  1
 Point written to save file  s7012_Re600k.base.pol                           
 Dump file unspecified or not available
 Calculating wake trajectory ...
 Calculating source influence matrix ...

 Solving BL system ...

 Side 1  free  transition at x/c =  0.7714   63
 Side 2  free  transition at x/c =  0.7369   63

   1   rms: 0.1053E+00   max: -.6857E+00   C at   63  2   RLX: 0.729
       a = -0.500      CL =  0.2006
      Cm = -0.0580     CD =  0.00555   =>   CDf =  0.00424    CDp =  0.00130

 Side 1  free  transition at x/c =  0.7338   62
 Side 2  free  transition at x/c =  0.7553   63

   2   rms: 0.7386E-01   max: -.1126E+01   T at    2  1   RLX: 0.444
       a = -0.500      CL =  0.2079
      Cm = -0.0583     CD =  0.00578   =>   CDf =  0.00445    CDp =  0.00132

 Side 1  free  transition at x/c =  0.7310   62
 Side 2  free  transition at x/c =  0.7646   64

   3   rms: 0.2141E-01   max: -.2583E+00   C at   64  2
       a = -0.500      CL =  0.2145
      Cm = -0.0577     CD =  0.00564   =>   CDf =  0.00440    CDp =  0.00125

 Side 1  free  transition at x/c =  0.7277   61
 Side 2  free  transition at x/c =  0.7730   64

   4   rms: 0.7991E-02   max: -.1142E+00   C at   64  2
       a = -0.500      CL =  0.2149
      Cm = -0.0578     CD =  0.00567   =>   CDf =  0.00439    CDp =  0.00128

 Side 1  free  transition at x/c =  0.7274   61
 Side 2  free  transition at x/c =  0.7755   65

   5   rms: 0.3352E-02   max: -.4946E-01   C at   65  2
       a = -0.500      CL =  0.2147
      Cm = -0.0577     CD =  0.00566   =>   CDf =  0.00437    CDp =  0.00129

 Side 1  free  transition at x/c =  0.7275   61
 Side 2  free  transition at x/c =  0.7754   65

   6   rms: 0.1391E-03   max: 0.1991E-02   C at   65  2
       a = -0.500      CL =  0.2147
      Cm = -0.0577     CD =  0.00566   =>   CDf =  0.00435    CDp =  0.00131

 Side 1  free  transition at x/c =  0.7275   61
 Side 2  free  transition at x/c =  0.7754   65

   7   rms: 0.1235E-05   max: -.1734E-04   C at   61  1
       a = -0.500      CL =  0.2147
      Cm = -0.0577     CD =  0.00566   =>   CDf =  0.00435    CDp =  0.00131
 plradd ia,ip,cpol            8           0  0.19330896    

 Point added to stored polar  1
 Point written to save file  s7012_Re600k.base.pol                           
 Dump file unspecified or not available
 Calculating wake trajectory ...
 Calculating source influence matrix ...

 Solving BL system ...

 Side 1  free  transition at x/c =  0.7275   61
 Side 2  free  transition at x/c =  0.7754   65

   1   rms: 0.1023E+00   max: -.6205E+00   C at   65  2   RLX: 0.806
       a =  0.000      CL =  0.2574
      Cm = -0.0569     CD =  0.00563   =>   CDf =  0.00435    CDp =  0.00128

 Side 1  free  transition at x/c =  0.6879   59
 Side 2  free  transition at x/c =  0.7928   66

   2   rms: 0.3108E-01   max: -.2744E+00   C at   66  2
       a =  0.000      CL =  0.2682
      Cm = -0.0569     CD =  0.00576   =>   CDf =  0.00458    CDp =  0.00118

 Side 1  free  transition at x/c =  0.6859   58
 Side 2  free  transition at x/c =  0.8102   67

   3   rms: 0.3853E-02   max: -.4443E-01   D at   66  2
       a =  0.000      CL =  0.2676
      Cm = -0.0568     CD =  0.00577   =>   CDf =  0.00446    CDp =  0.00131

 Side 1  free  transition at x/c =  0.6851   58
 Side 2  free  transition at x/c =  0.8090   67

   4   rms: 0.3963E-03   max: 0.6131E-02   C at   67  2
       a =  0.000      CL =  0.2676
      Cm = -0.0567     CD =  0.00577   =>   CDf =  0.00446    CDp =  0.00131

 Side 1  free  transition at x/c =  0.6851   58
 Side 2  free  transition at x/c =  0.8089   67

   5   rms: 0.1276E-05   max: -.2203E-04   D at   69  2
       a =  0.000      CL =  0.2676
      Cm = -0.0567     CD =  0.00577   =>   CDf =  0.00446    CDp =  0.00130
 plradd ia,ip,cpol            9           0  0.17965850    

 Point added to stored polar  1
 Point written to save file  s7012_Re600k.base.pol                           
 Dump file unspecified or not available
 Calculating wake trajectory ...
 Calculating source influence matrix ...

 Solving BL system ...

 Side 1  free  transition at x/c =  0.6851   58
 Side 2  free  transition at x/c =  0.8089   67

   1   rms: 0.9669E-01   max: -.4978E+00   C at   67  2
       a =  0.500      CL =  0.3213
      Cm = -0.0560     CD =  0.00579   =>   CDf =  0.00446    CDp =  0.00133

 Side 1  free  transition at x/c =  0.6408   56
 Side 2  free  transition at x/c =  0.8312   68

   2   rms: 0.3355E-01   max: -.3707E+00   C at   68  2
       a =  0.500      CL =  0.3201
      Cm = -0.0558     CD =  0.00585   =>   CDf =  0.00471    CDp =  0.00113

 Side 1  free  transition at x/c =  0.6469   57
 Side 2  free  transition at x/c =  0.8417   68

   3   rms: 0.1033E-01   max: -.1617E+00   C at   68  2
       a =  0.500      CL =  0.3204
      Cm = -0.0558     CD =  0.00588   =>   CDf =  0.00459    CDp =  0.00129

 Side 1  free  transition at x/c =  0.6458   57
 Side 2  free  transition at x/c =  0.8430   68

   4   rms: 0.1273E-02   max: 0.2048E-01   C at   68  2
       a =  0.500      CL =  0.3203
      Cm = -0.0558     CD =  0.00588   =>   CDf =  0.00455    CDp =  0.00133

 Side 1  free  transition at x/c =  0.6458   57
 Side 2  free  transition at x/c =  0.8424   68

   5   rms: 0.9662E-05   max: -.1584E-03   D at   71  2
       a =  0.500      CL =  0.3203
      Cm = -0.0558     CD =  0.00588   =>   CDf =  0.00456    CDp =  0.00133
 plradd ia,ip,cpol           10           0  0.15250768    

 Point added to stored polar  1
 Point written to save file  s7012_Re600k.base.pol                           
 Dump file unspecified or not available
 Calculating wake trajectory ...
 Calculating source influence matrix ...

 Solving BL system ...

 Side 1  free  transition at x/c =  0.6458   57
 Side 2  free  transition at x/c =  0.8424   68

   1   rms: 0.1024E+00   max: 0.8758E+00   C at   57  1
       a =  1.000      CL =  0.3730
      Cm = -0.0549     CD =  0.00611   =>   CDf =  0.00456    CDp =  0.00156

 Side 1  free  transition at x/c =  0.6092   54
 Side 2  free  transition at x/c =  0.8708   70

   2   rms: 0.2109E-01   max: 0.2554E+00   D at   56  1
       a =  1.000      CL =  0.3717
      Cm = -0.0545     CD =  0.00596   =>   CDf =  0.00464    CDp =  0.00131

 Side 1  free  transition at x/c =  0.6113   54
 Side 2  free  transition at x/c =  0.8760   71

   3   rms: 0.8670E-02   max: -.1426E+00   C at   71  2
       a =  1.000      CL =  0.3718
      Cm = -0.0545     CD =  0.00597   =>   CDf =  0.00461    CDp =  0.00135

 Side 1  free  transition at x/c =  0.6101   54
 Side 2  free  transition at x/c =  0.8785   71

   4   rms: 0.3754E-03   max: -.6272E-02   D at   73  2
       a =  1.000      CL =  0.3718
      Cm = -0.0545     CD =  0.00597   =>   CDf =  0.00459    CDp =  0.00138

 Side 1  free  transition at x/c =  0.6101   54
 Side 2  free  transition at x/c =  0.8784   71

   5   rms: 0.1548E-05   max: -.1738E-04   C at   54  1
       a =  1.000      CL =  0.3718
      Cm = -0.0545     CD =  0.00597   =>   CDf =  0.00460    CDp =  0.00138
 plradd ia,ip,cpol           11           0  0.12577470    

 Point added to stored polar  1
 Point written to save file  s7012_Re600k.base.pol                           
 Dump file unspecified or not available
 Calculating wake trajectory ...
 Calculating source influence matrix ...

 Solving BL system ...

 Side 1  free  transition at x/c =  0.6101   54
 Side 2  free  transition at x/c =  0.8784   71

   1   rms: 0.9980E-01   max: -.7825E+00   C at   71  2   RLX: 0.639
       a =  1.500      CL =  0.4036
      Cm = -0.0535     CD =  0.00599   =>   CDf =  0.00456    CDp =  0.00143

 Side 1  free  transition at x/c =  0.5854   53
 Side 2  free  transition at x/c =  0.8991   71

   2   rms: 0.3810E-01   max: -.3285E+00   C at   71  2
       a =  1.500      CL =  0.4227
      Cm = -0.0532     CD =  0.00603   =>   CDf =  0.00468    CDp =  0.00135

 Side 1  free  transition at x/c =  0.5744   53
 Side 2  free  transition at x/c =  0.9252   73

   3   rms: 0.9012E-02   max: -.1172E+00   C at   73  2
       a =  1.500      CL =  0.4192
      Cm = -0.0523     CD =  0.00602   =>   CDf =  0.00463    CDp =  0.00140

 Side 1  free  transition at x/c =  0.5762   53
 Side 2  free  transition at x/c =  0.9284   73

   4   rms: 0.9322E-03   max: -.1487E-01   C at   73  2
       a =  1.500      CL =  0.4194
      Cm = -0.0523     CD =  0.00603   =>   CDf =  0.00460    CDp =  0.00143

 Side 1  free  transition at x/c =  0.5761   53
 Side 2  free  transition at x/c =  0.9288   73

   5   rms: 0.7723E-05   max: 0.1144E-03   C at   73  2
       a =  1.500      CL =  0.4194
      Cm = -0.0523     CD =  0.00603   =>   CDf =  0.00460    CDp =  0.00143
 plradd ia,ip,cpol           12           0  0.11262863    

 Point added to stored polar  1
 Point written to save file  s7012_Re600k.base.pol                           
 Dump file unspecified or not available
 Calculating wake trajectory ...
 Calculating source influence matrix ...

 Solving BL system ...

 Side 1  free  transition at x/c =  0.5761   53
 Side 2  free  transition at x/c =  0.9288   73

   1   rms: 0.1100E+00   max: -.1126E+01   C at   73  2   RLX: 0.444
       a =  2.000      CL =  0.4402
      Cm = -0.0513     CD =  0.00608   =>   CDf =  0.00460    CDp =  0.00148

 Side 1  free  transition at x/c =  0.5623   52
 Side 2  free  transition at x/c =  0.9551   75

   2   rms: 0.9493E-01   max: -.1426E+01   C at   75  2   RLX: 0.351
       a =  2.000      CL =  0.4528
      Cm = -0.0517     CD =  0.00607   =>   CDf =  0.00462    CDp =  0.00145

 Side 1  free  transition at x/c =  0.5563   51
 Side 2  free  transition at x/c =  0.9651   76

   3   rms: 0.7489E-01   max: -.1184E+01   C at   76  2   RLX: 0.422
       a =  2.000      CL =  0.4652
      Cm = -0.0526     CD =  0.00608   =>   CDf =  0.00464    CDp =  0.00144

 Side 1  free  transition at x/c =  0.5502   51
 Side 2  free  transition at x/c =  0.9745   77

   4   rms: 0.6098E-01   max: -.9956E+00   C at   77  2   RLX: 0.502
       a =  2.000      CL =  0.4753
      Cm = -0.0535     CD =  0.00612   =>   CDf =  0.00465    CDp =  0.00147

 Side 1  free  transition at x/c =  0.5465   51
 Side 2  free  transition at x/c =  0.9842   78

   5   rms: 0.5123E-01   max: -.9084E+00   C at   78  2   RLX: 0.550
       a =  2.000      CL =  0.4818
      Cm = -0.0542     CD =  0.00615   =>   CDf =  0.00467    CDp =  0.00148

 Side 1  free  transition at x/c =  0.5446   51
 Side 2  free  transition at x/c =  0.9949   79

   6   rms: 0.6328E-01   max: -.1533E+01   C at   79  2   RLX: 0.326
       a =  2.000      CL =  0.4834
      Cm = -0.0544     CD =  0.00616   =>   CDf =  0.00468    CDp =  0.00147

 Side 1  free  transition at x/c =  0.5442   50
 Side 2 forced transition at x/c =  1.0000   79

   7   rms: 0.8347E-02   max: -.9370E-01   D at   78  2
       a =  2.000      CL =  0.4820
      Cm = -0.0537     CD =  0.00614   =>   CDf =  0.00469    CDp =  0.00146

 Side 1  free  transition at x/c =  0.5437   50
 Side 2 forced transition at x/c =  1.0000   79

   8   rms: 0.5835E-03   max: 0.8644E-02   C at   79  2
       a =  2.000      CL =  0.4819
      Cm = -0.0536     CD =  0.00614   =>   CDf =  0.00469    CDp =  0.00145

 Side 1  free  transition at x/c =  0.5437   50
 Side 2 forced transition at x/c =  1.0000   79

   9   rms: 0.2650E-05   max: 0.2153E-04   D at   74  2
       a =  2.000      CL =  0.4819
      Cm = -0.0536     CD =  0.00614   =>   CDf =  0.00469    CDp =  0.00145
 plradd ia,ip,cpol           13           0  7.43155852E-02

 Point added to stored polar  1
 Point written to save file  s7012_Re600k.base.pol                           
 Dump file unspecified or not available
 Calculating wake trajectory ...
 Calculating source influence matrix ...

 Solving BL system ...

 Side 1  free  transition at x/c =  0.5437   50
 Side 2 forced transition at x/c =  1.0000   79

   1   rms: 0.9332E-01   max: -.2581E+00   C at   79  2
       a =  2.500      CL =  0.5395
      Cm = -0.0542     CD =  0.00629   =>   CDf =  0.00465    CDp =  0.00164

 Side 1  free  transition at x/c =  0.5081   49
 Side 2 forced transition at x/c =  1.0000   78

   2   rms: 0.1786E-01   max: 0.2338E+00   D at   50  1
       a =  2.500      CL =  0.5380
      Cm = -0.0538     CD =  0.00639   =>   CDf =  0.00488    CDp =  0.00151

 Side 1  free  transition at x/c =  0.5151   49
 Side 2 forced transition at x/c =  1.0000   78

   3   rms: 0.1460E-02   max: 0.1791E-01   C at   49  1
       a =  2.500      CL =  0.5380
      Cm = -0.0538     CD =  0.00640   =>   CDf =  0.00481    CDp =  0.00159

 Side 1  free  transition at x/c =  0.5137   49
 Side 2 forced transition at x/c =  1.0000   78

   4   rms: 0.1028E-03   max: -.1802E-02   C at   49  1
       a =  2.500      CL =  0.5380
      Cm = -0.0538     CD =  0.00640   =>   CDf =  0.00481    CDp =  0.00159

 Side 1  free  transition at x/c =  0.5137   49
 Side 2 forced transition at x/c =  1.0000   78

   5   rms: 0.6599E-06   max: -.5787E-05   C at   49  1
       a =  2.500      CL =  0.5380
      Cm = -0.0538     CD =  0.00640   =>   CDf =  0.00481    CDp =  0.00159
 plradd ia,ip,cpol           14           0  7.43155852E-02

 Point added to stored polar  1
 Point written to save file  s7012_Re600k.base.pol                           
 Dump file unspecified or not available
 Calculating wake trajectory ...
 Calculating source influence matrix ...

 Solving BL system ...

 Side 1  free  transition at x/c =  0.5137   49
 Side 2 forced transition at x/c =  1.0000   78

   1   rms: 0.9120E-01   max: -.1870E+00   C at   78  2
       a =  3.000      CL =  0.5947
      Cm = -0.0541     CD =  0.00658   =>   CDf =  0.00481    CDp =  0.00177

 Side 1  free  transition at x/c =  0.4771   47
 Side 2 forced transition at x/c =  1.0000   78

   2   rms: 0.1946E-01   max: 0.2742E+00   D at   48  1
       a =  3.000      CL =  0.5936
      Cm = -0.0539     CD =  0.00666   =>   CDf =  0.00499    CDp =  0.00167

 Side 1  free  transition at x/c =  0.4844   47
 Side 2 forced transition at x/c =  1.0000   78

   3   rms: 0.2711E-02   max: 0.4786E-01   C at   47  1
       a =  3.000      CL =  0.5936
      Cm = -0.0539     CD =  0.00667   =>   CDf =  0.00491    CDp =  0.00176

 Side 1  free  transition at x/c =  0.4826   47
 Side 2 forced transition at x/c =  1.0000   78

   4   rms: 0.1163E-03   max: -.2036E-02   C at   47  1
       a =  3.000      CL =  0.5936
      Cm = -0.0539     CD =  0.00667   =>   CDf =  0.00492    CDp =  0.00176

 Side 1  free  transition at x/c =  0.4827   47
 Side 2 forced transition at x/c =  1.0000   78

   5   rms: 0.1593E-05   max: 0.1703E-04   D at    4  2
       a =  3.000      CL =  0.5936
      Cm = -0.0539     CD =  0.00667   =>   CDf =  0.00492    CDp =  0.00176
 plradd ia,ip,cpol           15           0  3.94795649E-02

 Point added to stored polar  1
 Point written to save file  s7012_Re600k.base.pol                           
 Dump file unspecified or not available
 Calculating wake trajectory ...
 Calculating source influence matrix ...

 Solving BL system ...

 Side 1  free  transition at x/c =  0.4827   47
 Side 2 forced transition at x/c =  1.0000   78

   1   rms: 0.9260E-01   max: -.1581E+00   C at   78  2
       a =  3.500      CL =  0.6494
      Cm = -0.0540     CD =  0.00692   =>   CDf =  0.00483    CDp =  0.00210

 Side 1  free  transition at x/c =  0.4499   46
 Side 2 forced transition at x/c =  1.0000   77

   2   rms: 0.2056E-01   max: 0.2518E+00   D at   47  1
       a =  3.500      CL =  0.6488
      Cm = -0.0539     CD =  0.00697   =>   CDf =  0.00503    CDp =  0.00194

 Side 1  free  transition at x/c =  0.4540   46
 Side 2 forced transition at x/c =  1.0000   77

   3   rms: 0.2959E-02   max: 0.4798E-01   C at   46  1
       a =  3.500      CL =  0.6488
      Cm = -0.0539     CD =  0.00697   =>   CDf =  0.00497    CDp =  0.00199

 Side 1  free  transition at x/c =  0.4528   46
 Side 2 forced transition at x/c =  1.0000   77

   4   rms: 0.2697E-04   max: -.3445E-03   D at   47  1
       a =  3.500      CL =  0.6488
      Cm = -0.0539     CD =  0.00697   =>   CDf =  0.00498    CDp =  0.00198
 plradd ia,ip,cpol           16           0  2.96342000E-02

 Point added to stored polar  1
 Point written to save file  s7012_Re600k.base.pol                           
 Dump file unspecified or not available
 Calculating wake trajectory ...
 Calculating source influence matrix ...

 Solving BL system ...

 Side 1  free  transition at x/c =  0.4527   46
 Side 2 forced transition at x/c =  1.0000   77

   1   rms: 0.9218E-01   max: 0.5782E+00   C at   46  1
       a =  4.000      CL =  0.7042
      Cm = -0.0539     CD =  0.00726   =>   CDf =  0.00498    CDp =  0.00227

 Side 1  free  transition at x/c =  0.4121   43
 Side 2 forced transition at x/c =  1.0000   77

   2   rms: 0.1831E-01   max: 0.2496E+00   D at   45  1
       a =  4.000      CL =  0.7034
      Cm = -0.0537     CD =  0.00731   =>   CDf =  0.00513    CDp =  0.00218

 Side 1  free  transition at x/c =  0.4186   44
 Side 2 forced transition at x/c =  1.0000   77

   3   rms: 0.2574E-02   max: -.5119E-01   D at   45  1
       a =  4.000      CL =  0.7035
      Cm = -0.0538     CD =  0.00732   =>   CDf =  0.00508    CDp =  0.00224

 Side 1  free  transition at x/c =  0.4176   44
 Side 2 forced transition at x/c =  1.0000   77

   4   rms: 0.1297E-03   max: -.2367E-02   D at   45  1
       a =  4.000      CL =  0.7035
      Cm = -0.0538     CD =  0.00732   =>   CDf =  0.00508    CDp =  0.00224

 Side 1  free  transition at x/c =  0.4175   44
 Side 2 forced transition at x/c =  1.0000   77

   5   rms: 0.8009E-06   max: 0.6218E-05   D at    4  2
       a =  4.000      CL =  0.7035
      Cm = -0.0538     CD =  0.00732   =>   CDf =  0.00508    CDp =  0.00224
 plradd ia,ip,cpol           17           0  1.03794935E-03

 Point added to stored polar  1
 Point written to save file  s7012_Re600k.base.pol                           
 Dump file unspecified or not available
 Calculating wake trajectory ...
 Calculating source influence matrix ...

 Solving BL system ...

 Side 1  free  transition at x/c =  0.4175   44
 Side 2 forced transition at x/c =  1.0000   77

   1   rms: 0.1112E+00   max: 0.9442E+00   C at   44  1   RLX: 0.734
       a =  4.500      CL =  0.7423
      Cm = -0.0535     CD =  0.00773   =>   CDf =  0.00494    CDp =  0.00279

 Side 1  free  transition at x/c =  0.3872   42
 Side 2 forced transition at x/c =  1.0000   76

   2   rms: 0.3203E-01   max: 0.2081E+00   D at   44  1
       a =  4.500      CL =  0.7582
      Cm = -0.0536     CD =  0.00766   =>   CDf =  0.00514    CDp =  0.00251

 Side 1  free  transition at x/c =  0.3712   41
 Side 2 forced transition at x/c =  1.0000   76

   3   rms: 0.6968E-02   max: -.1194E+00   C at   41  1
       a =  4.500      CL =  0.7575
      Cm = -0.0536     CD =  0.00773   =>   CDf =  0.00519    CDp =  0.00254

 Side 1  free  transition at x/c =  0.3740   41
 Side 2 forced transition at x/c =  1.0000   76

   4   rms: 0.2269E-03   max: -.4425E-02   D at   43  1
       a =  4.500      CL =  0.7575
      Cm = -0.0536     CD =  0.00773   =>   CDf =  0.00517    CDp =  0.00256

 Side 1  free  transition at x/c =  0.3739   41
 Side 2 forced transition at x/c =  1.0000   76

   5   rms: 0.1063E-05   max: -.9474E-05   D at   43  1
       a =  4.500      CL =  0.7575
      Cm = -0.0536     CD =  0.00773   =>   CDf =  0.00517    CDp =  0.00256
 plradd ia,ip,cpol           18           0  1.03794935E-03

 Point added to stored polar  1
 Point written to save file  s7012_Re600k.base.pol                           
 Dump file unspecified or not available
 Calculating wake trajectory ...
 Calculating source influence matrix ...

 Solving BL system ...

 Side 1  free  transition at x/c =  0.3739   41
 Side 2 forced transition at x/c =  1.0000   76

   1   rms: 0.1009E+00   max: 0.7276E+00   C at   41  1
       a =  5.000      CL =  0.8127
      Cm = -0.0535     CD =  0.00803   =>   CDf =  0.00517    CDp =  0.00285

 Side 1  free  transition at x/c =  0.2760   34
 Side 2 forced transition at x/c =  1.0000   76

   2   rms: 0.2484E-01   max: -.2649E+00   C at   34  1
       a =  5.000      CL =  0.8082
      Cm = -0.0530     CD =  0.00858   =>   CDf =  0.00561    CDp =  0.00296

 Side 1  free  transition at x/c =  0.2962   36
 Side 2 forced transition at x/c =  1.0000   76

   3   rms: 0.1034E-01   max: 0.2038E+00   C at   36  1
       a =  5.000      CL =  0.8090
      Cm = -0.0531     CD =  0.00848   =>   CDf =  0.00548    CDp =  0.00300

 Side 1  free  transition at x/c =  0.2902   35
 Side 2 forced transition at x/c =  1.0000   76

   4   rms: 0.9805E-03   max: -.2075E-01   C at   35  1
       a =  5.000      CL =  0.8089
      Cm = -0.0531     CD =  0.00849   =>   CDf =  0.00552    CDp =  0.00297

 Side 1  free  transition at x/c =  0.2900   35
 Side 2 forced transition at x/c =  1.0000   76

   5   rms: 0.3189E-02   max: -.6626E-01   C at   35  1
       a =  5.000      CL =  0.8089
      Cm = -0.0531     CD =  0.00849   =>   CDf =  0.00552    CDp =  0.00297

 Side 1  free  transition at x/c =  0.2900   35
 Side 2 forced transition at x/c =  1.0000   76

   6   rms: 0.3147E-02   max: -.6540E-01   C at   35  1
       a =  5.000      CL =  0.8089
      Cm = -0.0531     CD =  0.00849   =>   CDf =  0.00552    CDp =  0.00297

 Side 1  free  transition at x/c =  0.2900   35
 Side 2 forced transition at x/c =  1.0000   76

   7   rms: 0.3150E-02   max: -.6546E-01   C at   35  1
       a =  5.000      CL =  0.8089
      Cm = -0.0531     CD =  0.00849   =>   CDf =  0.00552    CDp =  0.00297

 Side 1  free  transition at x/c =  0.2900   35
 Side 2 forced transition at x/c =  1.0000   76

   8   rms: 0.3150E-02   max: -.6545E-01   C at   35  1
       a =  5.000      CL =  0.8089
      Cm = -0.0531     CD =  0.00849   =>   CDf =  0.00552    CDp =  0.00297

 Side 1  free  transition at x/c =  0.2900   35
 Side 2 forced transition at x/c =  1.0000   76

   9   rms: 0.3150E-02   max: -.6546E-01   C at   35  1
       a =  5.000      CL =  0.8089
      Cm = -0.0531     CD =  0.00849   =>   CDf =  0.00552    CDp =  0.00297

 Side 1  free  transition at x/c =  0.2900   35
 Side 2 forced transition at x/c =  1.0000   76

  10   rms: 0.3150E-02   max: -.6546E-01   C at   35  1
       a =  5.000      CL =  0.8089
      Cm = -0.0531     CD =  0.00849   =>   CDf =  0.00552    CDp =  0.00297

 Side 1  free  transition at x/c =  0.2900   35
 Side 2 forced transition at x/c =  1.0000   76

  11   rms: 0.3150E-02   max: -.6545E-01   C at   35  1
       a =  5.000      CL =  0.8089
      Cm = -0.0531     CD =  0.00849   =>   CDf =  0.00552    CDp =  0.00297

 Side 1  free  transition at x/c =  0.2900   35
 Side 2 forced transition at x/c =  1.0000   76

  12   rms: 0.3150E-02   max: -.6545E-01   C at   35  1
       a =  5.000      CL =  0.8089
      Cm = -0.0531     CD =  0.00849   =>   CDf =  0.00552    CDp =  0.00297

 Side 1  free  transition at x/c =  0.2900   35
 Side 2 forced transition at x/c =  1.0000   76

  13   rms: 0.3149E-02   max: -.6545E-01   C at   35  1
       a =  5.000      CL =  0.8089
      Cm = -0.0531     CD =  0.00849   =>   CDf =  0.00552    CDp =  0.00297

 Side 1  free  transition at x/c =  0.2900   35
 Side 2 forced transition at x/c =  1.0000   76

  14   rms: 0.3150E-02   max: -.6545E-01   C at   35  1
       a =  5.000      CL =  0.8089
      Cm = -0.0531     CD =  0.00849   =>   CDf =  0.00552    CDp =  0.00297

 Side 1  free  transition at x/c =  0.2900   35
 Side 2 forced transition at x/c =  1.0000   76

  15   rms: 0.3150E-02   max: -.6545E-01   C at   35  1
       a =  5.000      CL =  0.8089
      Cm = -0.0531     CD =  0.00849   =>   CDf =  0.00552    CDp =  0.00297

 Side 1  free  transition at x/c =  0.2900   35
 Side 2 forced transition at x/c =  1.0000   76

  16   rms: 0.3150E-02   max: -.6546E-01   C at   35  1
       a =  5.000      CL =  0.8089
      Cm = -0.0531     CD =  0.00849   =>   CDf =  0.00552    CDp =  0.00297

 Side 1  free  transition at x/c =  0.2900   35
 Side 2 forced transition at x/c =  1.0000   76

  17   rms: 0.3150E-02   max: -.6546E-01   C at   35  1
       a =  5.000      CL =  0.8089
      Cm = -0.0531     CD =  0.00849   =>   CDf =  0.00552    CDp =  0.00297

 Side 1  free  transition at x/c =  0.2900   35
 Side 2 forced transition at x/c =  1.0000   76

  18   rms: 0.3150E-02   max: -.6546E-01   C at   35  1
       a =  5.000      CL =  0.8089
      Cm = -0.0531     CD =  0.00849   =>   CDf =  0.00552    CDp =  0.00297

 Side 1  free  transition at x/c =  0.2900   35
 Side 2 forced transition at x/c =  1.0000   76

  19   rms: 0.3150E-02   max: -.6546E-01   C at   35  1
       a =  5.000      CL =  0.8089
      Cm = -0.0531     CD =  0.00849   =>   CDf =  0.00552    CDp =  0.00297

 Side 1  free  transition at x/c =  0.2900   35
 Side 2 forced transition at x/c =  1.0000   76

  20   rms: 0.3150E-02   max: -.6547E-01   C at   35  1
       a =  5.000      CL =  0.8089
      Cm = -0.0531     CD =  0.00849   =>   CDf =  0.00552    CDp =  0.00297

 Side 1  free  transition at x/c =  0.2900   35
 Side 2 forced transition at x/c =  1.0000   76

  21   rms: 0.3150E-02   max: -.6545E-01   C at   35  1
       a =  5.000      CL =  0.8089
      Cm = -0.0531     CD =  0.00849   =>   CDf =  0.00552    CDp =  0.00297

 Side 1  free  transition at x/c =  0.2900   35
 Side 2 forced transition at x/c =  1.0000   76

  22   rms: 0.3150E-02   max: -.6546E-01   C at   35  1
       a =  5.000      CL =  0.8089
      Cm = -0.0531     CD =  0.00849   =>   CDf =  0.00552    CDp =  0.00297

 Side 1  free  transition at x/c =  0.2900   35
 Side 2 forced transition at x/c =  1.0000   76

  23   rms: 0.3149E-02   max: -.6545E-01   C at   35  1
       a =  5.000      CL =  0.8089
      Cm = -0.0531     CD =  0.00849   =>   CDf =  0.00552    CDp =  0.00297

 Side 1  free  transition at x/c =  0.2900   35
 Side 2 forced transition at x/c =  1.0000   76

  24   rms: 0.3150E-02   max: -.6545E-01   C at   35  1
       a =  5.000      CL =  0.8089
      Cm = -0.0531     CD =  0.00849   =>   CDf =  0.00552    CDp =  0.00297

 Side 1  free  transition at x/c =  0.2900   35
 Side 2 forced transition at x/c =  1.0000   76

  25   rms: 0.3150E-02   max: -.6546E-01   C at   35  1
       a =  5.000      CL =  0.8089
      Cm = -0.0531     CD =  0.00849   =>   CDf =  0.00552    CDp =  0.00297

 Side 1  free  transition at x/c =  0.2900   35
 Side 2 forced transition at x/c =  1.0000   76

  26   rms: 0.3149E-02   max: -.6545E-01   C at   35  1
       a =  5.000      CL =  0.8089
      Cm = -0.0531     CD =  0.00849   =>   CDf =  0.00552    CDp =  0.00297

 Side 1  free  transition at x/c =  0.2900   35
 Side 2 forced transition at x/c =  1.0000   76

  27   rms: 0.3150E-02   max: -.6545E-01   C at   35  1
       a =  5.000      CL =  0.8089
      Cm = -0.0531     CD =  0.00849   =>   CDf =  0.00552    CDp =  0.00297

 Side 1  free  transition at x/c =  0.2900   35
 Side 2 forced transition at x/c =  1.0000   76

  28   rms: 0.3150E-02   max: -.6545E-01   C at   35  1
       a =  5.000      CL =  0.8089
      Cm = -0.0531     CD =  0.00849   =>   CDf =  0.00552    CDp =  0.00297

 Side 1  free  transition at x/c =  0.2900   35
 Side 2 forced transition at x/c =  1.0000   76

  29   rms: 0.3150E-02   max: -.6546E-01   C at   35  1
       a =  5.000      CL =  0.8089
      Cm = -0.0531     CD =  0.00849   =>   CDf =  0.00552    CDp =  0.00297

 Side 1  free  transition at x/c =  0.2900   35
 Side 2 forced transition at x/c =  1.0000   76

  30   rms: 0.3150E-02   max: -.6545E-01   C at   35  1
       a =  5.000      CL =  0.8089
      Cm = -0.0531     CD =  0.00849   =>   CDf =  0.00552    CDp =  0.00297

 Side 1  free  transition at x/c =  0.2900   35
 Side 2 forced transition at x/c =  1.0000   76

  31   rms: 0.3150E-02   max: -.6546E-01   C at   35  1
       a =  5.000      CL =  0.8089
      Cm = -0.0531     CD =  0.00849   =>   CDf =  0.00552    CDp =  0.00297

 Side 1  free  transition at x/c =  0.2900   35
 Side 2 forced transition at x/c =  1.0000   76

  32   rms: 0.3150E-02   max: -.6546E-01   C at   35  1
       a =  5.000      CL =  0.8089
      Cm = -0.0531     CD =  0.00849   =>   CDf =  0.00552    CDp =  0.00297

 Side 1  free  transition at x/c =  0.2900   35
 Side 2 forced transition at x/c =  1.0000   76

  33   rms: 0.3149E-02   max: -.6544E-01   C at   35  1
       a =  5.000      CL =  0.8089
      Cm = -0.0531     CD =  0.00849   =>   CDf =  0.00552    CDp =  0.00297

 Side 1  free  transition at x/c =  0.2900   35
 Side 2 forced transition at x/c =  1.0000   76

  34   rms: 0.3150E-02   max: -.6546E-01   C at   35  1
       a =  5.000      CL =  0.8089
      Cm = -0.0531     CD =  0.00849   =>   CDf =  0.00552    CDp =  0.00297

 Side 1  free  transition at x/c =  0.2900   35
 Side 2 forced transition at x/c =  1.0000   76

  35   rms: 0.3150E-02   max: -.6545E-01   C at   35  1
       a =  5.000      CL =  0.8089
      Cm = -0.0531     CD =  0.00849   =>   CDf =  0.00552    CDp =  0.00297

 Side 1  free  transition at x/c =  0.2900   35
 Side 2 forced transition at x/c =  1.0000   76

  36   rms: 0.3150E-02   max: -.6546E-01   C at   35  1
       a =  5.000      CL =  0.8089
      Cm = -0.0531     CD =  0.00849   =>   CDf =  0.00552    CDp =  0.00297

 Side 1  free  transition at x/c =  0.2900   35
 Side 2 forced transition at x/c =  1.0000   76

  37   rms: 0.3150E-02   max: -.6545E-01   C at   35  1
       a =  5.000      CL =  0.8089
      Cm = -0.0531     CD =  0.00849   =>   CDf =  0.00552    CDp =  0.00297

 Side 1  free  transition at x/c =  0.2900   35
 Side 2 forced transition at x/c =  1.0000   76

  38   rms: 0.3150E-02   max: -.6546E-01   C at   35  1
       a =  5.000      CL =  0.8089
      Cm = -0.0531     CD =  0.00849   =>   CDf =  0.00552    CDp =  0.00297

 Side 1  free  transition at x/c =  0.2900   35
 Side 2 forced transition at x/c =  1.0000   76

  39   rms: 0.3150E-02   max: -.6546E-01   C at   35  1
       a =  5.000      CL =  0.8089
      Cm = -0.0531     CD =  0.00849   =>   CDf =  0.00552    CDp =  0.00297

 Side 1  free  transition at x/c =  0.2900   35
 Side 2 forced transition at x/c =  1.0000   76

  40   rms: 0.3150E-02   max: -.6545E-01   C at   35  1
       a =  5.000      CL =  0.8089
      Cm = -0.0531     CD =  0.00849   =>   CDf =  0.00552    CDp =  0.00297

 Side 1  free  transition at x/c =  0.2900   35
 Side 2 forced transition at x/c =  1.0000   76

  41   rms: 0.3150E-02   max: -.6546E-01   C at   35  1
       a =  5.000      CL =  0.8089
      Cm = -0.0531     CD =  0.00849   =>   CDf =  0.00552    CDp =  0.00297

 Side 1  free  transition at x/c =  0.2900   35
 Side 2 forced transition at x/c =  1.0000   76

  42   rms: 0.3150E-02   max: -.6545E-01   C at   35  1
       a =  5.000      CL =  0.8089
      Cm = -0.0531     CD =  0.00849   =>   CDf =  0.00552    CDp =  0.00297

 Side 1  free  transition at x/c =  0.2900   35
 Side 2 forced transition at x/c =  1.0000   76

  43   rms: 0.3150E-02   max: -.6545E-01   C at   35  1
       a =  5.000      CL =  0.8089
      Cm = -0.0531     CD =  0.00849   =>   CDf =  0.00552    CDp =  0.00297

 Side 1  free  transition at x/c =  0.2900   35
 Side 2 forced transition at x/c =  1.0000   76

  44   rms: 0.3149E-02   max: -.6544E-01   C at   35  1
       a =  5.000      CL =  0.8089
      Cm = -0.0531     CD =  0.00849   =>   CDf =  0.00552    CDp =  0.00297

 Side 1  free  transition at x/c =  0.2900   35
 Side 2 forced transition at x/c =  1.0000   76

  45   rms: 0.3150E-02   max: -.6547E-01   C at   35  1
       a =  5.000      CL =  0.8089
      Cm = -0.0531     CD =  0.00849   =>   CDf =  0.00552    CDp =  0.00297

 Side 1  free  transition at x/c =  0.2900   35
 Side 2 forced transition at x/c =  1.0000   76

  46   rms: 0.3150E-02   max: -.6546E-01   C at   35  1
       a =  5.000      CL =  0.8089
      Cm = -0.0531     CD =  0.00849   =>   CDf =  0.00552    CDp =  0.00297

 Side 1  free  transition at x/c =  0.2900   35
 Side 2 forced transition at x/c =  1.0000   76

  47   rms: 0.3150E-02   max: -.6545E-01   C at   35  1
       a =  5.000      CL =  0.8089
      Cm = -0.0531     CD =  0.00849   =>   CDf =  0.00552    CDp =  0.00297

 Side 1  free  transition at x/c =  0.2900   35
 Side 2 forced transition at x/c =  1.0000   76

  48   rms: 0.3150E-02   max: -.6546E-01   C at   35  1
       a =  5.000      CL =  0.8089
      Cm = -0.0531     CD =  0.00849   =>   CDf =  0.00552    CDp =  0.00297

 Side 1  free  transition at x/c =  0.2900   35
 Side 2 forced transition at x/c =  1.0000   76

  49   rms: 0.3150E-02   max: -.6545E-01   C at   35  1
       a =  5.000      CL =  0.8089
      Cm = -0.0531     CD =  0.00849   =>   CDf =  0.00552    CDp =  0.00297

 Side 1  free  transition at x/c =  0.2900   35
 Side 2 forced transition at x/c =  1.0000   76

  50   rms: 0.3150E-02   max: -.6546E-01   C at   35  1
       a =  5.000      CL =  0.8089
      Cm = -0.0531     CD =  0.00849   =>   CDf =  0.00552    CDp =  0.00297

 Side 1  free  transition at x/c =  0.2900   35
 Side 2 forced transition at x/c =  1.0000   76

  51   rms: 0.3150E-02   max: -.6545E-01   C at   35  1
       a =  5.000      CL =  0.8089
      Cm = -0.0531     CD =  0.00849   =>   CDf =  0.00552    CDp =  0.00297

 Side 1  free  transition at x/c =  0.2900   35
 Side 2 forced transition at x/c =  1.0000   76

  52   rms: 0.3150E-02   max: -.6546E-01   C at   35  1
       a =  5.000      CL =  0.8089
      Cm = -0.0531     CD =  0.00849   =>   CDf =  0.00552    CDp =  0.00297

 Side 1  free  transition at x/c =  0.2900   35
 Side 2 forced transition at x/c =  1.0000   76

  53   rms: 0.3149E-02   max: -.6545E-01   C at   35  1
       a =  5.000      CL =  0.8089
      Cm = -0.0531     CD =  0.00849   =>   CDf =  0.00552    CDp =  0.00297

 Side 1  free  transition at x/c =  0.2900   35
 Side 2 forced transition at x/c =  1.0000   76

  54   rms: 0.3150E-02   max: -.6546E-01   C at   35  1
       a =  5.000      CL =  0.8089
      Cm = -0.0531     CD =  0.00849   =>   CDf =  0.00552    CDp =  0.00297

 Side 1  free  transition at x/c =  0.2900   35
 Side 2 forced transition at x/c =  1.0000   76

  55   rms: 0.3150E-02   max: -.6545E-01   C at   35  1
       a =  5.000      CL =  0.8089
      Cm = -0.0531     CD =  0.00849   =>   CDf =  0.00552    CDp =  0.00297

 Side 1  free  transition at x/c =  0.2900   35
 Side 2 forced transition at x/c =  1.0000   76

  56   rms: 0.3150E-02   max: -.6546E-01   C at   35  1
       a =  5.000      CL =  0.8089
      Cm = -0.0531     CD =  0.00849   =>   CDf =  0.00552    CDp =  0.00297

 Side 1  free  transition at x/c =  0.2900   35
 Side 2 forced transition at x/c =  1.0000   76

  57   rms: 0.3150E-02   max: -.6545E-01   C at   35  1
       a =  5.000      CL =  0.8089
      Cm = -0.0531     CD =  0.00849   =>   CDf =  0.00552    CDp =  0.00297

 Side 1  free  transition at x/c =  0.2900   35
 Side 2 forced transition at x/c =  1.0000   76

  58   rms: 0.3150E-02   max: -.6545E-01   C at   35  1
       a =  5.000      CL =  0.8089
      Cm = -0.0531     CD =  0.00849   =>   CDf =  0.00552    CDp =  0.00297

 Side 1  free  transition at x/c =  0.2900   35
 Side 2 forced transition at x/c =  1.0000   76

  59   rms: 0.3150E-02   max: -.6545E-01   C at   35  1
       a =  5.000      CL =  0.8089
      Cm = -0.0531     CD =  0.00849   =>   CDf =  0.00552    CDp =  0.00297

 Side 1  free  transition at x/c =  0.2900   35
 Side 2 forced transition at x/c =  1.0000   76

  60   rms: 0.3150E-02   max: -.6545E-01   C at   35  1
       a =  5.000      CL =  0.8089
      Cm = -0.0531     CD =  0.00849   =>   CDf =  0.00552    CDp =  0.00297

 Side 1  free  transition at x/c =  0.2900   35
 Side 2 forced transition at x/c =  1.0000   76

  61   rms: 0.3150E-02   max: -.6546E-01   C at   35  1
       a =  5.000      CL =  0.8089
      Cm = -0.0531     CD =  0.00849   =>   CDf =  0.00552    CDp =  0.00297

 Side 1  free  transition at x/c =  0.2900   35
 Side 2 forced transition at x/c =  1.0000   76

  62   rms: 0.3150E-02   max: -.6545E-01   C at   35  1
       a =  5.000      CL =  0.8089
      Cm = -0.0531     CD =  0.00849   =>   CDf =  0.00552    CDp =  0.00297

 Side 1  free  transition at x/c =  0.2900   35
 Side 2 forced transition at x/c =  1.0000   76

  63   rms: 0.3150E-02   max: -.6545E-01   C at   35  1
       a =  5.000      CL =  0.8089
      Cm = -0.0531     CD =  0.00849   =>   CDf =  0.00552    CDp =  0.00297

 Side 1  free  transition at x/c =  0.2900   35
 Side 2 forced transition at x/c =  1.0000   76

  64   rms: 0.3150E-02   max: -.6546E-01   C at   35  1
       a =  5.000      CL =  0.8089
      Cm = -0.0531     CD =  0.00849   =>   CDf =  0.00552    CDp =  0.00297

 Side 1  free  transition at x/c =  0.2900   35
 Side 2 forced transition at x/c =  1.0000   76

  65   rms: 0.3150E-02   max: -.6546E-01   C at   35  1
       a =  5.000      CL =  0.8089
      Cm = -0.0531     CD =  0.00849   =>   CDf =  0.00552    CDp =  0.00297

 Side 1  free  transition at x/c =  0.2900   35
 Side 2 forced transition at x/c =  1.0000   76

  66   rms: 0.3150E-02   max: -.6545E-01   C at   35  1
       a =  5.000      CL =  0.8089
      Cm = -0.0531     CD =  0.00849   =>   CDf =  0.00552    CDp =  0.00297

 Side 1  free  transition at x/c =  0.2900   35
 Side 2 forced transition at x/c =  1.0000   76

  67   rms: 0.3150E-02   max: -.6546E-01   C at   35  1
       a =  5.000      CL =  0.8089
      Cm = -0.0531     CD =  0.00849   =>   CDf =  0.00552    CDp =  0.00297

 Side 1  free  transition at x/c =  0.2900   35
 Side 2 forced transition at x/c =  1.0000   76

  68   rms: 0.3150E-02   max: -.6546E-01   C at   35  1
       a =  5.000      CL =  0.8089
      Cm = -0.0531     CD =  0.00849   =>   CDf =  0.00552    CDp =  0.00297

 Side 1  free  transition at x/c =  0.2900   35
 Side 2 forced transition at x/c =  1.0000   76

  69   rms: 0.3150E-02   max: -.6546E-01   C at   35  1
       a =  5.000      CL =  0.8089
      Cm = -0.0531     CD =  0.00849   =>   CDf =  0.00552    CDp =  0.00297

 Side 1  free  transition at x/c =  0.2900   35
 Side 2 forced transition at x/c =  1.0000   76

  70   rms: 0.3150E-02   max: -.6546E-01   C at   35  1
       a =  5.000      CL =  0.8089
      Cm = -0.0531     CD =  0.00849   =>   CDf =  0.00552    CDp =  0.00297

 Side 1  free  transition at x/c =  0.2900   35
 Side 2 forced transition at x/c =  1.0000   76

  71   rms: 0.3150E-02   max: -.6546E-01   C at   35  1
       a =  5.000      CL =  0.8089
      Cm = -0.0531     CD =  0.00849   =>   CDf =  0.00552    CDp =  0.00297

 Side 1  free  transition at x/c =  0.2900   35
 Side 2 forced transition at x/c =  1.0000   76

  72   rms: 0.3150E-02   max: -.6545E-01   C at   35  1
       a =  5.000      CL =  0.8089
      Cm = -0.0531     CD =  0.00849   =>   CDf =  0.00552    CDp =  0.00297

 Side 1  free  transition at x/c =  0.2900   35
 Side 2 forced transition at x/c =  1.0000   76

  73   rms: 0.3150E-02   max: -.6546E-01   C at   35  1
       a =  5.000      CL =  0.8089
      Cm = -0.0531     CD =  0.00849   =>   CDf =  0.00552    CDp =  0.00297

 Side 1  free  transition at x/c =  0.2900   35
 Side 2 forced transition at x/c =  1.0000   76

  74   rms: 0.3150E-02   max: -.6546E-01   C at   35  1
       a =  5.000      CL =  0.8089
      Cm = -0.0531     CD =  0.00849   =>   CDf =  0.00552    CDp =  0.00297

 Side 1  free  transition at x/c =  0.2900   35
 Side 2 forced transition at x/c =  1.0000   76

  75   rms: 0.3150E-02   max: -.6546E-01   C at   35  1
       a =  5.000      CL =  0.8089
      Cm = -0.0531     CD =  0.00849   =>   CDf =  0.00552    CDp =  0.00297

 Side 1  free  transition at x/c =  0.2900   35
 Side 2 forced transition at x/c =  1.0000   76

  76   rms: 0.3150E-02   max: -.6545E-01   C at   35  1
       a =  5.000      CL =  0.8089
      Cm = -0.0531     CD =  0.00849   =>   CDf =  0.00552    CDp =  0.00297

 Side 1  free  transition at x/c =  0.2900   35
 Side 2 forced transition at x/c =  1.0000   76

  77   rms: 0.3150E-02   max: -.6546E-01   C at   35  1
       a =  5.000      CL =  0.8089
      Cm = -0.0531     CD =  0.00849   =>   CDf =  0.00552    CDp =  0.00297

 Side 1  free  transition at x/c =  0.2900   35
 Side 2 forced transition at x/c =  1.0000   76

  78   rms: 0.3150E-02   max: -.6546E-01   C at   35  1
       a =  5.000      CL =  0.8089
      Cm = -0.0531     CD =  0.00849   =>   CDf =  0.00552    CDp =  0.00297

 Side 1  free  transition at x/c =  0.2900   35
 Side 2 forced transition at x/c =  1.0000   76

  79   rms: 0.3150E-02   max: -.6545E-01   C at   35  1
       a =  5.000      CL =  0.8089
      Cm = -0.0531     CD =  0.00849   =>   CDf =  0.00552    CDp =  0.00297

 Side 1  free  transition at x/c =  0.2900   35
 Side 2 forced transition at x/c =  1.0000   76

  80   rms: 0.3150E-02   max: -.6545E-01   C at   35  1
       a =  5.000      CL =  0.8089
      Cm = -0.0531     CD =  0.00849   =>   CDf =  0.00552    CDp =  0.00297

 Side 1  free  transition at x/c =  0.2900   35
 Side 2 forced transition at x/c =  1.0000   76

  81   rms: 0.3150E-02   max: -.6545E-01   C at   35  1
       a =  5.000      CL =  0.8089
      Cm = -0.0531     CD =  0.00849   =>   CDf =  0.00552    CDp =  0.00297

 Side 1  free  transition at x/c =  0.2900   35
 Side 2 forced transition at x/c =  1.0000   76

  82   rms: 0.3150E-02   max: -.6545E-01   C at   35  1
       a =  5.000      CL =  0.8089
      Cm = -0.0531     CD =  0.00849   =>   CDf =  0.00552    CDp =  0.00297

 Side 1  free  transition at x/c =  0.2900   35
 Side 2 forced transition at x/c =  1.0000   76

  83   rms: 0.3150E-02   max: -.6546E-01   C at   35  1
       a =  5.000      CL =  0.8089
      Cm = -0.0531     CD =  0.00849   =>   CDf =  0.00552    CDp =  0.00297

 Side 1  free  transition at x/c =  0.2900   35
 Side 2 forced transition at x/c =  1.0000   76

  84   rms: 0.3150E-02   max: -.6546E-01   C at   35  1
       a =  5.000      CL =  0.8089
      Cm = -0.0531     CD =  0.00849   =>   CDf =  0.00552    CDp =  0.00297

 Side 1  free  transition at x/c =  0.2900   35
 Side 2 forced transition at x/c =  1.0000   76

  85   rms: 0.3150E-02   max: -.6546E-01   C at   35  1
       a =  5.000      CL =  0.8089
      Cm = -0.0531     CD =  0.00849   =>   CDf =  0.00552    CDp =  0.00297

 Side 1  free  transition at x/c =  0.2900   35
 Side 2 forced transition at x/c =  1.0000   76

  86   rms: 0.3150E-02   max: -.6546E-01   C at   35  1
       a =  5.000      CL =  0.8089
      Cm = -0.0531     CD =  0.00849   =>   CDf =  0.00552    CDp =  0.00297

 Side 1  free  transition at x/c =  0.2900   35
 Side 2 forced transition at x/c =  1.0000   76

  87   rms: 0.3150E-02   max: -.6546E-01   C at   35  1
       a =  5.000      CL =  0.8089
      Cm = -0.0531     CD =  0.00849   =>   CDf =  0.00552    CDp =  0.00297

 Side 1  free  transition at x/c =  0.2900   35
 Side 2 forced transition at x/c =  1.0000   76

  88   rms: 0.3150E-02   max: -.6546E-01   C at   35  1
       a =  5.000      CL =  0.8089
      Cm = -0.0531     CD =  0.00849   =>   CDf =  0.00552    CDp =  0.00297

 Side 1  free  transition at x/c =  0.2900   35
 Side 2 forced transition at x/c =  1.0000   76

  89   rms: 0.3150E-02   max: -.6546E-01   C at   35  1
       a =  5.000      CL =  0.8089
      Cm = -0.0531     CD =  0.00849   =>   CDf =  0.00552    CDp =  0.00297

 Side 1  free  transition at x/c =  0.2900   35
 Side 2 forced transition at x/c =  1.0000   76

  90   rms: 0.3150E-02   max: -.6546E-01   C at   35  1
       a =  5.000      CL =  0.8089
      Cm = -0.0531     CD =  0.00849   =>   CDf =  0.00552    CDp =  0.00297

 Side 1  free  transition at x/c =  0.2900   35
 Side 2 forced transition at x/c =  1.0000   76

  91   rms: 0.3150E-02   max: -.6545E-01   C at   35  1
       a =  5.000      CL =  0.8089
[...]
 MRCHDU: Convergence failed at  87  side 1    Res =  0.1598E+02
 MRCHDU: Convergence failed at  88  side 1    Res =  0.1284E+02
 MRCHDU: Convergence failed at  89  side 1    Res =  0.2347E-01
 Side 1  free  transition at x/c =  0.0159   17
 Side 2 forced transition at x/c =  1.0000   73

 126   rms: 0.2660E+07   max: -.4402E+08   C at   89  1   RLX: 0.000
       a = 13.000      CL =  4.2011
      Cm = -0.9545     CD =  0.30257   =>   CDf =  0.00259    CDp =  0.29998

 MRCHDU: Convergence failed at  18  side 1    Res =  0.9789E-01
 MRCHDU: Convergence failed at  19  side 1    Res =  0.3099E-01
 MRCHDU: Convergence failed at  86  side 1    Res =  0.1781E+02
 MRCHDU: Convergence failed at  87  side 1    Res =  0.1599E+02
 MRCHDU: Convergence failed at  88  side 1    Res =  0.1285E+02
 MRCHDU: Convergence failed at  89  side 1    Res =  0.2352E-01
 Side 1  free  transition at x/c =  0.0159   17
 Side 2 forced transition at x/c =  1.0000   73

 127   rms: 0.2755E+07   max: -.4560E+08   C at   89  1   RLX: 0.000
       a = 13.000      CL =  4.2011
      Cm = -0.9545     CD =  0.30257   =>   CDf =  0.00259    CDp =  0.29998

 MRCHDU: Convergence failed at  18  side 1    Res =  0.9789E-01
 MRCHDU: Convergence failed at  19  side 1    Res =  0.3099E-01
 MRCHDU: Convergence failed at  86  side 1    Res =  0.1783E+02
 MRCHDU: Convergence failed at  87  side 1    Res =  0.1601E+02
 MRCHDU: Convergence failed at  88  side 1    Res =  0.1287E+02
 MRCHDU: Convergence failed at  89  side 1    Res =  0.2361E-01
 Side 1  free  transition at x/c =  0.0159   17
 Side 2 forced transition at x/c =  1.0000   73

 128   rms: 0.2586E+07   max: -.4277E+08   C at   89  1   RLX: 0.000
       a = 13.000      CL =  4.2011
      Cm = -0.9545     CD =  0.30257   =>   CDf =  0.00259    CDp =  0.29998

 MRCHDU: Convergence failed at  18  side 1    Res =  0.9789E-01
 MRCHDU: Convergence failed at  19  side 1    Res =  0.3099E-01
 MRCHDU: Convergence failed at  86  side 1    Res =  0.1785E+02
 MRCHDU: Convergence failed at  87  side 1    Res =  0.1603E+02
 MRCHDU: Convergence failed at  88  side 1    Res =  0.1288E+02
 MRCHDU: Convergence failed at  89  side 1    Res =  0.2366E-01
 Side 1  free  transition at x/c =  0.0159   17
 Side 2 forced transition at x/c =  1.0000   73

 129   rms: 0.2730E+07   max: -.4520E+08   C at   89  1   RLX: 0.000
       a = 13.000      CL =  4.2011
      Cm = -0.9545     CD =  0.30257   =>   CDf =  0.00259    CDp =  0.29998

 MRCHDU: Convergence failed at  18  side 1    Res =  0.9789E-01
 MRCHDU: Convergence failed at  19  side 1    Res =  0.3099E-01
 MRCHDU: Convergence failed at  86  side 1    Res =  0.1787E+02
 MRCHDU: Convergence failed at  87  side 1    Res =  0.1605E+02
 MRCHDU: Convergence failed at  88  side 1    Res =  0.1290E+02
 MRCHDU: Convergence failed at  89  side 1    Res =  0.2369E-01
 Side 1  free  transition at x/c =  0.0159   17
 Side 2 forced transition at x/c =  1.0000   73

 130   rms: 0.2725E+07   max: -.4511E+08   C at   89  1   RLX: 0.000
       a = 13.000      CL =  4.2011
      Cm = -0.9545     CD =  0.30257   =>   CDf =  0.00259    CDp =  0.29998

 MRCHDU: Convergence failed at  18  side 1    Res =  0.9789E-01
 MRCHDU: Convergence failed at  19  side 1    Res =  0.3099E-01
 MRCHDU: Convergence failed at  86  side 1    Res =  0.1790E+02
 MRCHDU: Convergence failed at  87  side 1    Res =  0.1607E+02
 MRCHDU: Convergence failed at  88  side 1    Res =  0.1291E+02
 MRCHDU: Convergence failed at  89  side 1    Res =  0.2373E-01
 Side 1  free  transition at x/c =  0.0159   17
 Side 2 forced transition at x/c =  1.0000   73

 131   rms: 0.2618E+07   max: -.4334E+08   C at   89  1   RLX: 0.000
       a = 13.000      CL =  4.2011
      Cm = -0.9545     CD =  0.30257   =>   CDf =  0.00259    CDp =  0.29998

 MRCHDU: Convergence failed at  18  side 1    Res =  0.9789E-01
 MRCHDU: Convergence failed at  19  side 1    Res =  0.3099E-01
 MRCHDU: Convergence failed at  86  side 1    Res =  0.1792E+02
 MRCHDU: Convergence failed at  87  side 1    Res =  0.1608E+02
 MRCHDU: Convergence failed at  88  side 1    Res =  0.1293E+02
 MRCHDU: Convergence failed at  89  side 1    Res =  0.2378E-01
 Side 1  free  transition at x/c =  0.0159   17
 Side 2 forced transition at x/c =  1.0000   73

 132   rms: 0.2803E+07   max: -.4641E+08   C at   89  1   RLX: 0.000
       a = 13.000      CL =  4.2011
      Cm = -0.9545     CD =  0.30257   =>   CDf =  0.00259    CDp =  0.29998

 MRCHDU: Convergence failed at  18  side 1    Res =  0.9789E-01
 MRCHDU: Convergence failed at  19  side 1    Res =  0.3099E-01
 MRCHDU: Convergence failed at  86  side 1    Res =  0.1794E+02
 MRCHDU: Convergence failed at  87  side 1    Res =  0.1610E+02
 MRCHDU: Convergence failed at  88  side 1    Res =  0.1294E+02
 MRCHDU: Convergence failed at  89  side 1    Res =  0.2385E-01
 Side 1  free  transition at x/c =  0.0159   17
 Side 2 forced transition at x/c =  1.0000   73

 133   rms: 0.2615E+07   max: -.4322E+08   C at   89  1   RLX: 0.000
       a = 13.000      CL =  4.2011
      Cm = -0.9545     CD =  0.30257   =>   CDf =  0.00259    CDp =  0.29998

 MRCHDU: Convergence failed at  18  side 1    Res =  0.9789E-01
 MRCHDU: Convergence failed at  19  side 1    Res =  0.3099E-01
 MRCHDU: Convergence failed at  86  side 1    Res =  0.1796E+02
 MRCHDU: Convergence failed at  87  side 1    Res =  0.1612E+02
 MRCHDU: Convergence failed at  88  side 1    Res =  0.1295E+02
 MRCHDU: Convergence failed at  89  side 1    Res =  0.2390E-01
 Side 1  free  transition at x/c =  0.0159   17
 Side 2 forced transition at x/c =  1.0000   73

 134   rms: 0.2801E+07   max: -.4636E+08   C at   89  1   RLX: 0.000
       a = 13.000      CL =  4.2011
      Cm = -0.9545     CD =  0.30257   =>   CDf =  0.00259    CDp =  0.29998

 MRCHDU: Convergence failed at  18  side 1    Res =  0.9789E-01
 MRCHDU: Convergence failed at  19  side 1    Res =  0.3099E-01
 MRCHDU: Convergence failed at  86  side 1    Res =  0.1797E+02
 MRCHDU: Convergence failed at  87  side 1    Res =  0.1613E+02
 MRCHDU: Convergence failed at  88  side 1    Res =  0.1296E+02
 MRCHDU: Convergence failed at  89  side 1    Res =  0.2392E-01
 Side 1  free  transition at x/c =  0.0159   17
 Side 2 forced transition at x/c =  1.0000   73

 135   rms: 0.2627E+07   max: -.4346E+08   C at   89  1   RLX: 0.000
       a = 13.000      CL =  4.2011
      Cm = -0.9545     CD =  0.30257   =>   CDf =  0.00259    CDp =  0.29998

 MRCHDU: Convergence failed at  18  side 1    Res =  0.9789E-01
 MRCHDU: Convergence failed at  19  side 1    Res =  0.3099E-01
 MRCHDU: Convergence failed at  86  side 1    Res =  0.1800E+02
 MRCHDU: Convergence failed at  87  side 1    Res =  0.1615E+02
 MRCHDU: Convergence failed at  88  side 1    Res =  0.1298E+02
 MRCHDU: Convergence failed at  89  side 1    Res =  0.2394E-01
 Side 1  free  transition at x/c =  0.0159   17
 Side 2 forced transition at x/c =  1.0000   73

 136   rms: 0.2804E+07   max: -.4642E+08   C at   89  1   RLX: 0.000
       a = 13.000      CL =  4.2011
      Cm = -0.9545     CD =  0.30257   =>   CDf =  0.00259    CDp =  0.29998

 MRCHDU: Convergence failed at  18  side 1    Res =  0.9789E-01
 MRCHDU: Convergence failed at  19  side 1    Res =  0.3099E-01
 MRCHDU: Convergence failed at  86  side 1    Res =  0.1801E+02
 MRCHDU: Convergence failed at  87  side 1    Res =  0.1617E+02
 MRCHDU: Convergence failed at  88  side 1    Res =  0.1299E+02
 MRCHDU: Convergence failed at  89  side 1    Res =  0.2398E-01
 Side 1  free  transition at x/c =  0.0159   17
 Side 2 forced transition at x/c =  1.0000   73

 137   rms: 0.2854E+07   max: -.4723E+08   C at   89  1   RLX: 0.000
       a = 13.000      CL =  4.2011
      Cm = -0.9545     CD =  0.30257   =>   CDf =  0.00259    CDp =  0.29998

 MRCHDU: Convergence failed at  18  side 1    Res =  0.9789E-01
 MRCHDU: Convergence failed at  19  side 1    Res =  0.3099E-01
 MRCHDU: Convergence failed at  86  side 1    Res =  0.1803E+02
 MRCHDU: Convergence failed at  87  side 1    Res =  0.1618E+02
 MRCHDU: Convergence failed at  88  side 1    Res =  0.1301E+02
 MRCHDU: Convergence failed at  89  side 1    Res =  0.2407E-01
 Side 1  free  transition at x/c =  0.0159   17
 Side 2 forced transition at x/c =  1.0000   73

 138   rms: 0.2683E+07   max: -.4441E+08   C at   89  1   RLX: 0.000
       a = 13.000      CL =  4.2011
      Cm = -0.9545     CD =  0.30257   =>   CDf =  0.00259    CDp =  0.29998

 MRCHDU: Convergence failed at  18  side 1    Res =  0.9789E-01
 MRCHDU: Convergence failed at  19  side 1    Res =  0.3099E-01
 MRCHDU: Convergence failed at  86  side 1    Res =  0.1805E+02
 MRCHDU: Convergence failed at  87  side 1    Res =  0.1620E+02
 MRCHDU: Convergence failed at  88  side 1    Res =  0.1301E+02
 MRCHDU: Convergence failed at  89  side 1    Res =  0.2404E-01
 Side 1  free  transition at x/c =  0.0159   17
 Side 2 forced transition at x/c =  1.0000   73

 139   rms: 0.2695E+07   max: -.4457E+08   C at   89  1   RLX: 0.000
       a = 13.000      CL =  4.2011
      Cm = -0.9545     CD =  0.30257   =>   CDf =  0.00259    CDp =  0.29998

 MRCHDU: Convergence failed at  18  side 1    Res =  0.9789E-01
 MRCHDU: Convergence failed at  19  side 1    Res =  0.3099E-01
 MRCHDU: Convergence failed at  86  side 1    Res =  0.1806E+02
 MRCHDU: Convergence failed at  87  side 1    Res =  0.1621E+02
 MRCHDU: Convergence failed at  88  side 1    Res =  0.1303E+02
 MRCHDU: Convergence failed at  89  side 1    Res =  0.2410E-01
 Side 1  free  transition at x/c =  0.0159   17
 Side 2 forced transition at x/c =  1.0000   73

 140   rms: 0.2687E+07   max: -.4447E+08   C at   89  1   RLX: 0.000
       a = 13.000      CL =  4.2011
      Cm = -0.9545     CD =  0.30257   =>   CDf =  0.00259    CDp =  0.29998

 MRCHDU: Convergence failed at  18  side 1    Res =  0.9789E-01
 MRCHDU: Convergence failed at  19  side 1    Res =  0.3099E-01
 MRCHDU: Convergence failed at  86  side 1    Res =  0.1808E+02
 MRCHDU: Convergence failed at  87  side 1    Res =  0.1623E+02
 MRCHDU: Convergence failed at  88  side 1    Res =  0.1304E+02
 MRCHDU: Convergence failed at  89  side 1    Res =  0.2421E-01
 Side 1  free  transition at x/c =  0.0159   17
 Side 2 forced transition at x/c =  1.0000   73

 141   rms: 0.2797E+07   max: -.4631E+08   C at   89  1   RLX: 0.000
       a = 13.000      CL =  4.2011
      Cm = -0.9545     CD =  0.30257   =>   CDf =  0.00259    CDp =  0.29998

 MRCHDU: Convergence failed at  18  side 1    Res =  0.9789E-01
 MRCHDU: Convergence failed at  19  side 1    Res =  0.3099E-01
 MRCHDU: Convergence failed at  86  side 1    Res =  0.1811E+02
 MRCHDU: Convergence failed at  87  side 1    Res =  0.1625E+02
 MRCHDU: Convergence failed at  88  side 1    Res =  0.1305E+02
 MRCHDU: Convergence failed at  89  side 1    Res =  0.2433E-01
 Side 1  free  transition at x/c =  0.0159   17
 Side 2 forced transition at x/c =  1.0000   73

 142   rms: 0.2839E+07   max: -.4700E+08   C at   89  1   RLX: 0.000
       a = 13.000      CL =  4.2011
      Cm = -0.9545     CD =  0.30257   =>   CDf =  0.00259    CDp =  0.29998

 MRCHDU: Convergence failed at  18  side 1    Res =  0.9789E-01
 MRCHDU: Convergence failed at  19  side 1    Res =  0.3099E-01
 MRCHDU: Convergence failed at  86  side 1    Res =  0.1813E+02
 MRCHDU: Convergence failed at  87  side 1    Res =  0.1626E+02
 MRCHDU: Convergence failed at  88  side 1    Res =  0.1306E+02
 MRCHDU: Convergence failed at  89  side 1    Res =  0.2429E-01
 Side 1  free  transition at x/c =  0.0159   17
 Side 2 forced transition at x/c =  1.0000   73

 143   rms: 0.2699E+07   max: -.4466E+08   C at   89  1   RLX: 0.000
       a = 13.000      CL =  4.2011
      Cm = -0.9545     CD =  0.30257   =>   CDf =  0.00259    CDp =  0.29998

 MRCHDU: Convergence failed at  18  side 1    Res =  0.9789E-01
 MRCHDU: Convergence failed at  19  side 1    Res =  0.3099E-01
 MRCHDU: Convergence failed at  86  side 1    Res =  0.1815E+02
 MRCHDU: Convergence failed at  87  side 1    Res =  0.1628E+02
 MRCHDU: Convergence failed at  88  side 1    Res =  0.1308E+02
 MRCHDU: Convergence failed at  89  side 1    Res =  0.2432E-01
 Side 1  free  transition at x/c =  0.0159   17
 Side 2 forced transition at x/c =  1.0000   73

 144   rms: 0.2875E+07   max: -.4756E+08   C at   89  1   RLX: 0.000
       a = 13.000      CL =  4.2011
      Cm = -0.9545     CD =  0.30257   =>   CDf =  0.00259    CDp =  0.29998

 MRCHDU: Convergence failed at  18  side 1    Res =  0.9789E-01
 MRCHDU: Convergence failed at  19  side 1    Res =  0.3099E-01
 MRCHDU: Convergence failed at  86  side 1    Res =  0.1817E+02
 MRCHDU: Convergence failed at  87  side 1    Res =  0.1630E+02
 MRCHDU: Convergence failed at  88  side 1    Res =  0.1310E+02
 MRCHDU: Convergence failed at  89  side 1    Res =  0.2444E-01
 Side 1  free  transition at x/c =  0.0159   17
 Side 2 forced transition at x/c =  1.0000   73

 145   rms: 0.2926E+07   max: -.4845E+08   C at   89  1   RLX: 0.000
       a = 13.000      CL =  4.2011
      Cm = -0.9545     CD =  0.30257   =>   CDf =  0.00259    CDp =  0.29998

 MRCHDU: Convergence failed at  18  side 1    Res =  0.9789E-01
 MRCHDU: Convergence failed at  19  side 1    Res =  0.3099E-01
 MRCHDU: Convergence failed at  86  side 1    Res =  0.1819E+02
 MRCHDU: Convergence failed at  87  side 1    Res =  0.1632E+02
 MRCHDU: Convergence failed at  88  side 1    Res =  0.1311E+02
 MRCHDU: Convergence failed at  89  side 1    Res =  0.2448E-01
 Side 1  free  transition at x/c =  0.0159   17
 Side 2 forced transition at x/c =  1.0000   73

 146   rms: 0.2839E+07   max: -.4699E+08   C at   89  1   RLX: 0.000
       a = 13.000      CL =  4.2011
      Cm = -0.9545     CD =  0.30257   =>   CDf =  0.00259    CDp =  0.29998

 MRCHDU: Convergence failed at  18  side 1    Res =  0.9789E-01
 MRCHDU: Convergence failed at  19  side 1    Res =  0.3099E-01
 MRCHDU: Convergence failed at  86  side 1    Res =  0.1822E+02
 MRCHDU: Convergence failed at  87  side 1    Res =  0.1634E+02
 MRCHDU: Convergence failed at  88  side 1    Res =  0.1313E+02
 MRCHDU: Convergence failed at  89  side 1    Res =  0.2457E-01
 Side 1  free  transition at x/c =  0.0159   17
 Side 2 forced transition at x/c =  1.0000   73

 147   rms: 0.2850E+07   max: -.4715E+08   C at   89  1   RLX: 0.000
       a = 13.000      CL =  4.2011
      Cm = -0.9545     CD =  0.30257   =>   CDf =  0.00259    CDp =  0.29998

 MRCHDU: Convergence failed at  18  side 1    Res =  0.9789E-01
 MRCHDU: Convergence failed at  19  side 1    Res =  0.3099E-01
 MRCHDU: Convergence failed at  86  side 1    Res =  0.1823E+02
 MRCHDU: Convergence failed at  87  side 1    Res =  0.1636E+02
 MRCHDU: Convergence failed at  88  side 1    Res =  0.1314E+02
 MRCHDU: Convergence failed at  89  side 1    Res =  0.2453E-01
 Side 1  free  transition at x/c =  0.0159   17
 Side 2 forced transition at x/c =  1.0000   73

 148   rms: 0.2726E+07   max: -.4507E+08   C at   89  1   RLX: 0.000
       a = 13.000      CL =  4.2011
      Cm = -0.9545     CD =  0.30257   =>   CDf =  0.00259    CDp =  0.29998

 MRCHDU: Convergence failed at  18  side 1    Res =  0.9789E-01
 MRCHDU: Convergence failed at  19  side 1    Res =  0.3099E-01
 MRCHDU: Convergence failed at  86  side 1    Res =  0.1826E+02
 MRCHDU: Convergence failed at  87  side 1    Res =  0.1638E+02
 MRCHDU: Convergence failed at  88  side 1    Res =  0.1316E+02
 MRCHDU: Convergence failed at  89  side 1    Res =  0.2463E-01
 Side 1  free  transition at x/c =  0.0159   17
 Side 2 forced transition at x/c =  1.0000   73

 149   rms: 0.2836E+07   max: -.4690E+08   C at   89  1   RLX: 0.000
       a = 13.000      CL =  4.2011
      Cm = -0.9545     CD =  0.30257   =>   CDf =  0.00259    CDp =  0.29998

 MRCHDU: Convergence failed at  18  side 1    Res =  0.9789E-01
 MRCHDU: Convergence failed at  19  side 1    Res =  0.3099E-01
 MRCHDU: Convergence failed at  86  side 1    Res =  0.1827E+02
 MRCHDU: Convergence failed at  87  side 1    Res =  0.1640E+02
 MRCHDU: Convergence failed at  88  side 1    Res =  0.1317E+02
 MRCHDU: Convergence failed at  89  side 1    Res =  0.2454E-01
 Side 1  free  transition at x/c =  0.0159   17
 Side 2 forced transition at x/c =  1.0000   73

 150   rms: 0.2845E+07   max: -.4714E+08   C at   89  1   RLX: 0.000
       a = 13.000      CL =  4.2011
      Cm = -0.9545     CD =  0.30257   =>   CDf =  0.00259    CDp =  0.29998

 MRCHDU: Convergence failed at  18  side 1    Res =  0.9789E-01
 MRCHDU: Convergence failed at  19  side 1    Res =  0.3099E-01
 MRCHDU: Convergence failed at  86  side 1    Res =  0.1829E+02
 MRCHDU: Convergence failed at  87  side 1    Res =  0.1641E+02
 MRCHDU: Convergence failed at  88  side 1    Res =  0.1318E+02
 MRCHDU: Convergence failed at  89  side 1    Res =  0.2470E-01
 Side 1  free  transition at x/c =  0.0159   17
 Side 2 forced transition at x/c =  1.0000   73

 151   rms: 0.2959E+07   max: -.4900E+08   C at   89  1   RLX: 0.000
       a = 13.000      CL =  4.2011
      Cm = -0.9545     CD =  0.30257   =>   CDf =  0.00259    CDp =  0.29998

 MRCHDU: Convergence failed at  18  side 1    Res =  0.9789E-01
 MRCHDU: Convergence failed at  19  side 1    Res =  0.3099E-01
 MRCHDU: Convergence failed at  86  side 1    Res =  0.1831E+02
 MRCHDU: Convergence failed at  87  side 1    Res =  0.1643E+02
 MRCHDU: Convergence failed at  88  side 1    Res =  0.1319E+02
 MRCHDU: Convergence failed at  89  side 1    Res =  0.2471E-01
 Side 1  free  transition at x/c =  0.0159   17
 Side 2 forced transition at x/c =  1.0000   73

 152   rms: 0.2819E+07   max: -.4661E+08   C at   89  1   RLX: 0.000
       a = 13.000      CL =  4.2011
      Cm = -0.9545     CD =  0.30257   =>   CDf =  0.00259    CDp =  0.29998

 MRCHDU: Convergence failed at  18  side 1    Res =  0.9789E-01
 MRCHDU: Convergence failed at  19  side 1    Res =  0.3099E-01
 MRCHDU: Convergence failed at  86  side 1    Res =  0.1834E+02
 MRCHDU: Convergence failed at  87  side 1    Res =  0.1645E+02
 MRCHDU: Convergence failed at  88  side 1    Res =  0.1321E+02
 MRCHDU: Convergence failed at  89  side 1    Res =  0.2482E-01
 Side 1  free  transition at x/c =  0.0159   17
 Side 2 forced transition at x/c =  1.0000   73

 153   rms: 0.2843E+07   max: -.4704E+08   C at   89  1   RLX: 0.000
       a = 13.000      CL =  4.2011
      Cm = -0.9545     CD =  0.30257   =>   CDf =  0.00259    CDp =  0.29998

 MRCHDU: Convergence failed at  18  side 1    Res =  0.9789E-01
 MRCHDU: Convergence failed at  19  side 1    Res =  0.3099E-01
 MRCHDU: Convergence failed at  86  side 1    Res =  0.1836E+02
 MRCHDU: Convergence failed at  87  side 1    Res =  0.1647E+02
 MRCHDU: Convergence failed at  88  side 1    Res =  0.1322E+02
 MRCHDU: Convergence failed at  89  side 1    Res =  0.2477E-01
 Side 1  free  transition at x/c =  0.0159   17
 Side 2 forced transition at x/c =  1.0000   73

 154   rms: 0.2873E+07   max: -.4754E+08   C at   89  1   RLX: 0.000
       a = 13.000      CL =  4.2011
      Cm = -0.9545     CD =  0.30257   =>   CDf =  0.00259    CDp =  0.29998

 MRCHDU: Convergence failed at  18  side 1    Res =  0.9789E-01
 MRCHDU: Convergence failed at  19  side 1    Res =  0.3099E-01
 MRCHDU: Convergence failed at  86  side 1    Res =  0.1840E+02
 MRCHDU: Convergence failed at  87  side 1    Res =  0.1650E+02
 MRCHDU: Convergence failed at  88  side 1    Res =  0.1325E+02
 MRCHDU: Convergence failed at  89  side 1    Res =  0.2489E-01
 Side 1  free  transition at x/c =  0.0159   17
 Side 2 forced transition at x/c =  1.0000   73

 155   rms: 0.2809E+07   max: -.4643E+08   C at   89  1   RLX: 0.000
       a = 13.000      CL =  4.2011
      Cm = -0.9545     CD =  0.30257   =>   CDf =  0.00259    CDp =  0.29998
 VISCAL:  Convergence failed

 Sequence halted since previous  4 points did not converge
 Last-converged  alpha =  12.000    CL =   1.17464

.OPERva   c>  
 Polar accumulation disabled

.OPERv   c>  
 XFOIL   c>  
 XFOIL   c>  