  
       XFOIL         Version 6.99
  
 Calculated polar for: S7075 (9%)                                      
  
 1 1 Reynolds number fixed          Mach number fixed         
  
 xtrf =   1.000 (top)        1.000 (bottom)  
 Mach =   0.000     Re =     0.400 e 6     Ncrit =   9.000
  
   alpha    CL        CD       CDp       CM     Top_Xtr  Bot_Xtr
  ------ -------- --------- --------- -------- -------- --------
-4.000  -0.0298   0.00255  -0.00340  -0.0945   0.9445   0.0235
-3.500   0.0267   0.00199  -0.00409  -0.0948   0.9366   0.0255
-3.000   0.0866   0.00158  -0.00459  -0.0957   0.9298   0.0342
-2.500   0.1390   0.00126  -0.00442  -0.0955   0.9201   0.1709
-2.000   0.1944   0.00106  -0.00398  -0.0959   0.9120   0.3798
-1.500   0.2439   0.00091  -0.00338  -0.0948   0.9004   0.6261
-1.000   0.2898   0.00084  -0.00299  -0.0919   0.8872   0.8060
-0.500   0.3375   0.00081  -0.00300  -0.0893   0.8725   0.8709
0.000   0.3833   0.00077  -0.00302  -0.0862   0.8564   0.9193
0.500   0.4487   0.00077  -0.00305  -0.0876   0.8371   0.9805
1.000   0.5084   0.00079  -0.00317  -0.0884   0.8123   1.0000
1.500   0.5608   0.00081  -0.00327  -0.0876   0.7769   1.0000
2.000   0.6130   0.00085  -0.00343  -0.0867   0.7330   1.0000
2.500   0.6637   0.00092  -0.00361  -0.0856   0.6820   1.0000
3.000   0.7128   0.00101  -0.00377  -0.0842   0.6251   1.0000
3.500   0.7611   0.00112  -0.00389  -0.0829   0.5669   1.0000
4.000   0.8081   0.00125  -0.00399  -0.0814   0.5032   1.0000
4.500   0.8538   0.00143  -0.00407  -0.0798   0.4359   1.0000
5.000   0.8990   0.00165  -0.00411  -0.0782   0.3657   1.0000
5.500   0.9423   0.00198  -0.00410  -0.0764   0.2908   1.0000
6.000   0.9856   0.00238  -0.00396  -0.0748   0.2242   1.0000
6.500   1.0276   0.00291  -0.00368  -0.0730   0.1638   1.0000
7.000   1.0680   0.00360  -0.00324  -0.0710   0.1109   1.0000
7.500   1.1060   0.00451  -0.00251  -0.0686   0.0718   1.0000
8.000   1.1421   0.00556  -0.00146  -0.0658   0.0536   1.0000
8.500   1.1732   0.00695  -0.00000  -0.0623   0.0452   1.0000
9.000   1.2061   0.00805   0.00126  -0.0590   0.0406   1.0000
9.500   1.2256   0.00984   0.00314  -0.0539   0.0371   1.0000
10.000   1.2440   0.01222   0.00573  -0.0490   0.0352   1.0000
10.250   1.2559   0.01315   0.00679  -0.0470   0.0344   1.0000
10.500   1.2675   0.01405   0.00780  -0.0451   0.0332   1.0000
10.750   1.2781   0.01507   0.00893  -0.0433   0.0322   1.0000
11.000   1.2877   0.01611   0.01005  -0.0414   0.0310   1.0000
11.250   1.2960   0.01711   0.01111  -0.0395   0.0298   1.0000
11.500   1.3016   0.01872   0.01278  -0.0376   0.0286   1.0000
11.750   1.3045   0.02228   0.01649  -0.0355   0.0273   1.0000
12.000   1.3109   0.02327   0.01761  -0.0338   0.0268   1.0000
12.250   1.3163   0.02465   0.01915  -0.0322   0.0261   1.0000
12.500   1.3205   0.02649   0.02113  -0.0307   0.0254   1.0000
12.750   1.3230   0.02866   0.02345  -0.0293   0.0246   1.0000
13.000   1.3243   0.03104   0.02595  -0.0280   0.0239   1.0000
13.250   1.3246   0.03361   0.02864  -0.0270   0.0232   1.0000
13.500   1.3239   0.03644   0.03157  -0.0262   0.0225   1.0000
13.750   1.3211   0.03984   0.03508  -0.0256   0.0220   1.0000
14.000   1.3155   0.04391   0.03927  -0.0252   0.0214   1.0000
14.250   1.3053   0.04916   0.04466  -0.0251   0.0208   1.0000
14.500   1.2885   0.05578   0.05150  -0.0252   0.0203   1.0000
14.750   1.2816   0.06028   0.05616  -0.0261   0.0200   1.0000
15.000   1.2723   0.06544   0.06150  -0.0274   0.0197   1.0000
15.250   1.2617   0.07095   0.06720  -0.0291   0.0193   1.0000
15.500   1.2486   0.07698   0.07341  -0.0311   0.0189   1.0000
15.750   1.2332   0.08347   0.08008  -0.0337   0.0185   1.0000
16.000   1.2170   0.09003   0.08681  -0.0367   0.0181   1.0000
