
 ===================================================
  XFOIL Version 6.99
  Copyright (C) 2000   Mark Drela, Harold Youngren

  This software comes with ABSOLUTELY NO WARRANTY,
    subject to the GNU General Public License.

  Caveat computor
 ===================================================

 File  xfoil.def  not found

   QUIT    Exit program

  .OPER    Direct operating point(s)
  .MDES    Complex mapping design routine
  .QDES    Surface speed design routine
  .GDES    Geometry design routine

   SAVE f  Write airfoil to labeled coordinate file
   PSAV f  Write airfoil to plain coordinate file
   ISAV f  Write airfoil to ISES coordinate file
   MSAV f  Write airfoil to MSES coordinate file
   REVE    Reverse written-airfoil node ordering

   LOAD f  Read buffer airfoil from coordinate file
   NACA i  Set NACA 4,5-digit airfoil and buffer airfoil
   INTE    Set buffer airfoil by interpolating two airfoils
   NORM    Buffer airfoil normalization toggle
   XYCM rr Change CM reference location, currently  0.25000 0.00000

   BEND    Display structural properties of current airfoil

   PCOP    Set current-airfoil panel nodes directly from buffer airfoil points
   PANE    Set current-airfoil panel nodes ( 160 ) based on curvature
  .PPAR    Show/change paneling

  .PLOP    Plotting options

   WDEF f  Write  current-settings file
   RDEF f  Reread current-settings file
   NAME s  Specify new airfoil name
   NINC    Increment name version number

   Z       Zoom    | (available in all menus)
   U       Unzoom  | 

 XFOIL   c>  
 Labeled airfoil file.  Name:  S8037 (16%)                                     

 Number of input coordinate points:  81
 Counterclockwise ordering
 Max thickness =     0.160061  at x =   0.340
 Max camber    =     0.026525  at x =   0.340

  LE  x,y  =  -0.00013  -0.00042  |   Chord =   1.00013
  TE  x,y  =   1.00000   0.00000  |

 Current airfoil nodes set from buffer airfoil nodes (  81 )

 XFOIL   c>  
 XFOIL   c>  
 Sharp trailing edge

 Paneling parameters used...
   Number of panel nodes       160
   Panel bunching parameter    1.000
   TE/LE panel density ratio   0.150
   Refined-area/LE panel density ratio    0.200
   Top    side refined area x/c limits  1.000 1.000
   Bottom side refined area x/c limits  1.000 1.000

 XFOIL   c>  
.OPERi   c>  
 Xtr/c     =  1.0000    top    side
 Xtr/c     =  1.0000    bottom side
 Ncrit     =    9.00   ( 0.070 % turb. level )
 Vacc      =  0.0100

 Klag  =  5.6000     Uxwt  =    1.00
 A     =  6.7000     B     =  0.7500       KCt = 0.01485
 CtiniK=  1.8000     CtiniX=  3.3000

..VPAR   c>  
..VPAR   c>  
.OPERi   c>  
 M  =    0.0000
 Re =    400000

.OPERv   c>  
.OPERv   c>  
.OPERv   c>  
 Polar  1 newly created for accumulation
 Airfoil archived with polar: S8037 (16%)                                     

Enter  polar save filename  OR  <return> for no file   s>  
 New polar save file available

Enter  polar dump filename  OR  <return> for no file   s>  
 Polar dump file will NOT be written

 Polar accumulation enabled

.OPERva   c>   Calculating unit vorticity distributions ...
 Calculating wake trajectory ...
 Calculating source influence matrix ...

 Solving BL system ...

 Initializing BL ...
    side            1  ...
 MRCHUE: Inverse mode at  47     Hk =   4.034
 MRCHUE: Inverse mode at  48     Hk =   4.694
 MRCHUE: Inverse mode at  49     Hk =   5.338
 MRCHUE: Inverse mode at  50     Hk =   5.971
 MRCHUE: Inverse mode at  51     Hk =   6.598
 MRCHUE: Inverse mode at  52     Hk =   7.223
 MRCHUE: Inverse mode at  53     Hk =   7.847
 MRCHUE: Inverse mode at  54     Hk =   8.469
 MRCHUE: Inverse mode at  55     Hk =   9.088
 MRCHUE: Inverse mode at  56     Hk =   7.822
 MRCHUE: Inverse mode at  57     Hk =   5.513
 MRCHUE: Inverse mode at  58     Hk =   4.053
 MRCHUE: Inverse mode at  59     Hk =   2.991
 MRCHUE: Inverse mode at  75     Hk =   2.500
    side            2  ...
 MRCHUE: Inverse mode at  18     Hk =   3.843
 MRCHUE: Inverse mode at  19     Hk =   4.589
 MRCHUE: Inverse mode at  20     Hk =   5.321
 MRCHUE: Inverse mode at  21     Hk =   6.058
 MRCHUE: Inverse mode at  22     Hk =   6.822
 MRCHUE: Inverse mode at  23     Hk =   7.626
 MRCHUE: Inverse mode at  24     Hk =   8.488
 MRCHUE: Inverse mode at  25     Hk =   9.424
 MRCHUE: Inverse mode at  26     Hk =   9.142
 MRCHUE: Inverse mode at  27     Hk =   4.322
 MRCHUE: Inverse mode at  28     Hk =   2.500
 MRCHUE: Inverse mode at  85     Hk =   2.500
 MRCHUE: Inverse mode at  86     Hk =   2.500
 MRCHUE: Convergence failed at  87  side 2    Res =  0.4359E+01

 MRCHDU: Convergence failed at  87  side 2    Res =  0.1400E+01
 Side 1  free  transition at x/c =  0.7022   56
 Side 2  free  transition at x/c =  0.0437   26

   1   rms: 0.3894E+00   max: -.4612E+01   T at   26  2   RLX: 0.108
       a = -4.000      CL = -0.1943
      Cm = -0.0374     CD =  0.01058   =>   CDf =  0.00784    CDp =  0.00274

 MRCHDU: Convergence failed at  27  side 2    Res =  0.6869E+01
 MRCHDU: Convergence failed at  28  side 2    Res =  0.1277E+02
 Side 1  free  transition at x/c =  0.7050   56
 Side 2  free  transition at x/c =  0.0496   27

   2   rms: 0.3457E+00   max: -.3280E+01   T at   27  2   RLX: 0.152
       a = -4.000      CL = -0.1727
      Cm = -0.0454     CD =  0.01011   =>   CDf =  0.00770    CDp =  0.00241

 Side 1  free  transition at x/c =  0.7088   56
 Side 2  free  transition at x/c =  0.0644   29

   3   rms: 0.4009E+00   max: -.2508E+01   C at   29  2   RLX: 0.199
       a = -4.000      CL = -0.1405
      Cm = -0.0508     CD =  0.01024   =>   CDf =  0.00799    CDp =  0.00225

 Side 1  free  transition at x/c =  0.7154   57
 Side 2  free  transition at x/c =  0.0953   31

   4   rms: 0.1661E+00   max: -.1488E+01   T at   31  2   RLX: 0.336
       a = -4.000      CL = -0.1107
      Cm = -0.0586     CD =  0.00999   =>   CDf =  0.00779    CDp =  0.00220

 Side 1  free  transition at x/c =  0.7194   58
 Side 2  free  transition at x/c =  0.1103   31

   5   rms: 0.1239E+00   max: -.1338E+01   T at   31  2   RLX: 0.374
       a = -4.000      CL = -0.0994
      Cm = -0.0600     CD =  0.01051   =>   CDf =  0.00761    CDp =  0.00290

 Side 1  free  transition at x/c =  0.7231   58
 Side 2  free  transition at x/c =  0.1403   33

   6   rms: 0.1073E+00   max: -.1276E+01   T at   33  2   RLX: 0.392
       a = -4.000      CL = -0.1026
      Cm = -0.0584     CD =  0.01072   =>   CDf =  0.00742    CDp =  0.00330

 Side 1  free  transition at x/c =  0.7257   58
 Side 2  free  transition at x/c =  0.2369   39

   7   rms: 0.4647E+00   max: -.9812E+01   C at   39  2   RLX: 0.051
       a = -4.000      CL = -0.1132
      Cm = -0.0584     CD =  0.01022   =>   CDf =  0.00694    CDp =  0.00328

 Side 1  free  transition at x/c =  0.7259   58
 Side 2  free  transition at x/c =  0.2382   39

   8   rms: 0.1336E+00   max: -.2802E+01   C at   39  2   RLX: 0.178
       a = -4.000      CL = -0.1169
      Cm = -0.0571     CD =  0.01034   =>   CDf =  0.00698    CDp =  0.00336

 Side 1  free  transition at x/c =  0.7266   58
 Side 2  free  transition at x/c =  0.2547   40

   9   rms: 0.1079E+00   max: -.2214E+01   C at   40  2   RLX: 0.226
       a = -4.000      CL = -0.1221
      Cm = -0.0556     CD =  0.01035   =>   CDf =  0.00688    CDp =  0.00347

 Side 1  free  transition at x/c =  0.7270   59
 Side 2  free  transition at x/c =  0.2818   42

  10   rms: 0.2229E+00   max: -.4650E+01   C at   42  2   RLX: 0.108
       a = -4.000      CL = -0.1265
      Cm = -0.0546     CD =  0.01025   =>   CDf =  0.00671    CDp =  0.00354

 Side 1  free  transition at x/c =  0.7273   59
 Side 2  free  transition at x/c =  0.2887   43
 idif Ue xi dudx           1  0.10248747      2.86293030E-03   35.798100    
 Uenew xinew           2  1.36558909E-03  3.81469727E-05

  11   rms: 0.1442E+00   max: -.2798E+01   C at   43  2   RLX: 0.179
       a = -4.000      CL = -0.1320
      Cm = -0.0533     CD =  0.01022   =>   CDf =  0.00660    CDp =  0.00362

 Side 1  free  transition at x/c =  0.7277   58
 Side 2  free  transition at x/c =  0.3030   44

  12   rms: 0.1588E+00   max: -.3245E+01   C at   44  2   RLX: 0.154
       a = -4.000      CL = -0.1358
      Cm = -0.0525     CD =  0.01020   =>   CDf =  0.00657    CDp =  0.00362

 Side 1  free  transition at x/c =  0.7279   58
 Side 2  free  transition at x/c =  0.3121   45

  13   rms: 0.1017E+00   max: -.2078E+01   C at   45  2   RLX: 0.241
       a = -4.000      CL = -0.1408
      Cm = -0.0513     CD =  0.01017   =>   CDf =  0.00652    CDp =  0.00365

 Side 1  free  transition at x/c =  0.7283   58
 Side 2  free  transition at x/c =  0.3227   46

  14   rms: 0.6441E-01   max: -.1256E+01   C at   46  2   RLX: 0.398
       a = -4.000      CL = -0.1472
      Cm = -0.0499     CD =  0.01014   =>   CDf =  0.00645    CDp =  0.00369

 Side 1  free  transition at x/c =  0.7287   58
 Side 2  free  transition at x/c =  0.3336   46

  15   rms: 0.3102E-01   max: -.6194E+00   C at   46  2   RLX: 0.807
       a = -4.000      CL = -0.1533
      Cm = -0.0485     CD =  0.01018   =>   CDf =  0.00639    CDp =  0.00380

 Side 1  free  transition at x/c =  0.7292   58
 Side 2  free  transition at x/c =  0.3455   47

  16   rms: 0.4623E-02   max: -.8730E-01   C at   47  2
       a = -4.000      CL = -0.1545
      Cm = -0.0482     CD =  0.01021   =>   CDf =  0.00631    CDp =  0.00390

 Side 1  free  transition at x/c =  0.7293   58
 Side 2  free  transition at x/c =  0.3483   47

  17   rms: 0.3372E-03   max: -.6801E-02   C at   47  2
       a = -4.000      CL = -0.1545
      Cm = -0.0482     CD =  0.01021   =>   CDf =  0.00630    CDp =  0.00391

 Side 1  free  transition at x/c =  0.7293   58
 Side 2  free  transition at x/c =  0.3484   47

  18   rms: 0.3604E-05   max: 0.7343E-04   C at   47  2
       a = -4.000      CL = -0.1545
      Cm = -0.0482     CD =  0.01021   =>   CDf =  0.00630    CDp =  0.00391
 plradd ia,ip,cpol            1           0  2.47252593E-03

 Point added to stored polar  1
 Point written to save file  s8037_Re400k.base.pol                           
 Dump file unspecified or not available
 Calculating wake trajectory ...
 Calculating source influence matrix ...

 Solving BL system ...

 Side 1  free  transition at x/c =  0.7293   58
 Side 2  free  transition at x/c =  0.3484   47

   1   rms: 0.2453E+00   max: -.4797E+01   C at   47  2   RLX: 0.104
       a = -3.500      CL = -0.1508
      Cm = -0.0478     CD =  0.01012   =>   CDf =  0.00630    CDp =  0.00382

 Side 1  free  transition at x/c =  0.7284   58
 Side 2  free  transition at x/c =  0.3672   48

   2   rms: 0.1869E+00   max: -.3547E+01   C at   48  2   RLX: 0.141
       a = -3.500      CL = -0.1457
      Cm = -0.0474     CD =  0.01003   =>   CDf =  0.00624    CDp =  0.00379

 Side 1  free  transition at x/c =  0.7273   58
 Side 2  free  transition at x/c =  0.3943   50

   3   rms: 0.1718E+00   max: -.3114E+01   C at   50  2   RLX: 0.161
       a = -3.500      CL = -0.1420
      Cm = -0.0469     CD =  0.00989   =>   CDf =  0.00621    CDp =  0.00368

 Side 1  free  transition at x/c =  0.7263   58
 Side 2  free  transition at x/c =  0.4147   50

   4   rms: 0.1013E+00   max: -.1735E+01   C at   50  2   RLX: 0.288
       a = -3.500      CL = -0.1352
      Cm = -0.0462     CD =  0.00977   =>   CDf =  0.00608    CDp =  0.00369

 Side 1  free  transition at x/c =  0.7242   58
 Side 2  free  transition at x/c =  0.4488   52

   5   rms: 0.4632E-01   max: -.5307E+00   C at   52  2   RLX: 0.942
       a = -3.500      CL = -0.1185
      Cm = -0.0446     CD =  0.00959   =>   CDf =  0.00595    CDp =  0.00365

 Side 1  free  transition at x/c =  0.7190   58
 Side 2  free  transition at x/c =  0.5254   57

   6   rms: 0.1681E-01   max: 0.1976E+00   D at   53  2
       a = -3.500      CL = -0.1227
      Cm = -0.0434     CD =  0.00942   =>   CDf =  0.00568    CDp =  0.00373

 Side 1  free  transition at x/c =  0.7191   58
 Side 2  free  transition at x/c =  0.5044   56

   7   rms: 0.2596E-02   max: -.2941E-01   C at   56  2
       a = -3.500      CL = -0.1214
      Cm = -0.0437     CD =  0.00945   =>   CDf =  0.00575    CDp =  0.00370

 Side 1  free  transition at x/c =  0.7191   58
 Side 2  free  transition at x/c =  0.5041   56

   8   rms: 0.4377E-04   max: 0.7042E-03   C at   56  2
       a = -3.500      CL = -0.1214
      Cm = -0.0437     CD =  0.00945   =>   CDf =  0.00574    CDp =  0.00371
 plradd ia,ip,cpol            2           0  3.94245610E-03

 Point added to stored polar  1
 Point written to save file  s8037_Re400k.base.pol                           
 Dump file unspecified or not available
 Calculating wake trajectory ...
 Calculating source influence matrix ...

 Solving BL system ...

 Side 1  free  transition at x/c =  0.7191   58
 Side 2  free  transition at x/c =  0.5041   56

   1   rms: 0.1770E+00   max: -.2779E+01   C at   56  2   RLX: 0.180
       a = -3.000      CL = -0.1162
      Cm = -0.0427     CD =  0.00931   =>   CDf =  0.00574    CDp =  0.00357

 Side 1  free  transition at x/c =  0.7171   58
 Side 2  free  transition at x/c =  0.5197   56

   2   rms: 0.8347E-01   max: -.3621E+00   T at   56  2
       a = -3.000      CL = -0.0744
      Cm = -0.0417     CD =  0.00938   =>   CDf =  0.00579    CDp =  0.00359

 MRCHDU: Convergence failed at  59  side 2    Res =  0.1113E+01
 MRCHDU: Convergence failed at  60  side 2    Res =  0.1162E+01
 MRCHDU: Convergence failed at  61  side 2    Res =  0.1507E+01
 MRCHDU: Convergence failed at  62  side 2    Res =  0.1790E+01
 MRCHDU: Convergence failed at  63  side 2    Res =  0.1935E+01
 MRCHDU: Convergence failed at  64  side 2    Res =  0.2008E+01
 MRCHDU: Convergence failed at  65  side 2    Res =  0.2002E+01
 MRCHDU: Convergence failed at  66  side 2    Res =  0.1971E+01
 MRCHDU: Convergence failed at  67  side 2    Res =  0.1934E+01
 MRCHDU: Convergence failed at  68  side 2    Res =  0.1902E+01
 MRCHDU: Convergence failed at  69  side 2    Res =  0.1873E+01
 MRCHDU: Convergence failed at  70  side 2    Res =  0.1553E+01
 MRCHDU: Convergence failed at  71  side 2    Res =  0.1687E+01
 MRCHDU: Convergence failed at  72  side 2    Res =  0.1833E+01
 MRCHDU: Convergence failed at  73  side 2    Res =  0.1998E+01
 MRCHDU: Convergence failed at  74  side 2    Res =  0.2181E+01
 MRCHDU: Convergence failed at  75  side 2    Res =  0.2407E+01
 MRCHDU: Convergence failed at  76  side 2    Res =  0.2657E+01
 MRCHDU: Convergence failed at  77  side 2    Res =  0.2930E+01
 MRCHDU: Convergence failed at  78  side 2    Res =  0.3267E+01
 MRCHDU: Convergence failed at  79  side 2    Res =  0.3734E+01
 MRCHDU: Convergence failed at  80  side 2    Res =  0.4556E+01
 MRCHDU: Convergence failed at  81  side 2    Res =  0.6090E+01
 MRCHDU: Convergence failed at  82  side 2    Res =  0.1471E+02
 MRCHDU: Convergence failed at  83  side 2    Res =  0.1889E+02
 MRCHDU: Convergence failed at  84  side 2    Res =  0.5709E+01
 MRCHDU: Convergence failed at  85  side 2    Res =  0.1416E+02
 Side 1  free  transition at x/c =  0.7092   58
 Side 2 forced transition at x/c =  1.0000   85
 idif Ue xi dudx           1  0.11121076      2.80034542E-03   39.713230    
 Uenew xinew           2  7.71672325E-03  1.94311142E-04

   3   rms: 0.2517E+00   max: 0.1941E+01   C at   85  2   RLX: 0.773
       a = -3.000      CL = -0.1397
      Cm = -0.0145     CD =  0.00621   =>   CDf =  0.00523    CDp =  0.00098

 Side 1  free  transition at x/c =  0.7096   57
 Side 2  free  transition at x/c =  0.6768   66

   4   rms: 0.1116E+00   max: 0.1359E+01   C at   66  2   RLX: 0.706
       a = -3.000      CL = -0.1025
      Cm = -0.0318     CD =  0.00857   =>   CDf =  0.00539    CDp =  0.00318

 Side 1  free  transition at x/c =  0.7096   58
 Side 2  free  transition at x/c =  0.6152   61

   5   rms: 0.3659E-01   max: 0.2790E+00   D at   64  2
       a = -3.000      CL = -0.0807
      Cm = -0.0403     CD =  0.00915   =>   CDf =  0.00553    CDp =  0.00362

 Side 1  free  transition at x/c =  0.7096   58
 Side 2  free  transition at x/c =  0.5981   60

   6   rms: 0.4327E-02   max: -.4937E-01   C at   60  2
       a = -3.000      CL = -0.0798
      Cm = -0.0405     CD =  0.00921   =>   CDf =  0.00556    CDp =  0.00364

 Side 1  free  transition at x/c =  0.7096   58
 Side 2  free  transition at x/c =  0.5984   60

   7   rms: 0.1455E-03   max: -.2398E-02   D at   63  2
       a = -3.000      CL = -0.0798
      Cm = -0.0405     CD =  0.00921   =>   CDf =  0.00555    CDp =  0.00366

 Side 1  free  transition at x/c =  0.7096   58
 Side 2  free  transition at x/c =  0.5984   60

   8   rms: 0.7117E-06   max: -.4619E-05   D at    4  1
       a = -3.000      CL = -0.0798
      Cm = -0.0405     CD =  0.00921   =>   CDf =  0.00555    CDp =  0.00366
 plradd ia,ip,cpol            3           0  3.94245610E-03

 Point added to stored polar  1
 Point written to save file  s8037_Re400k.base.pol                           
 Dump file unspecified or not available
 Calculating wake trajectory ...
 Calculating source influence matrix ...

 Solving BL system ...

 Side 1  free  transition at x/c =  0.7096   58
 Side 2  free  transition at x/c =  0.5984   60

   1   rms: 0.8698E-01   max: -.5246E+00   C at   60  2   RLX: 0.953
       a = -2.500      CL = -0.0384
      Cm = -0.0378     CD =  0.00909   =>   CDf =  0.00555    CDp =  0.00354

 Side 1  free  transition at x/c =  0.6979   58
 Side 2  free  transition at x/c =  0.6293   62

   2   rms: 0.2061E-01   max: -.2540E+00   C at   62  2
       a = -2.500      CL = -0.0330
      Cm = -0.0383     CD =  0.00907   =>   CDf =  0.00560    CDp =  0.00348

 Side 1  free  transition at x/c =  0.6992   58
 Side 2  free  transition at x/c =  0.6418   63

   3   rms: 0.6279E-02   max: -.9504E-01   C at   63  2
       a = -2.500      CL = -0.0331
      Cm = -0.0383     CD =  0.00909   =>   CDf =  0.00553    CDp =  0.00356

 Side 1  free  transition at x/c =  0.6991   58
 Side 2  free  transition at x/c =  0.6441   63

   4   rms: 0.2689E-03   max: -.4204E-02   D at   63  2
       a = -2.500      CL = -0.0332
      Cm = -0.0383     CD =  0.00909   =>   CDf =  0.00549    CDp =  0.00360

 Side 1  free  transition at x/c =  0.6991   58
 Side 2  free  transition at x/c =  0.6441   63

   5   rms: 0.2356E-05   max: 0.1330E-04   C at   63  2
       a = -2.500      CL = -0.0332
      Cm = -0.0383     CD =  0.00909   =>   CDf =  0.00549    CDp =  0.00360
 plradd ia,ip,cpol            4           0  5.68402978E-03

 Point added to stored polar  1
 Point written to save file  s8037_Re400k.base.pol                           
 Dump file unspecified or not available
 Calculating wake trajectory ...
 Calculating source influence matrix ...

 Solving BL system ...

 Side 1  free  transition at x/c =  0.6991   58
 Side 2  free  transition at x/c =  0.6441   63

   1   rms: 0.8669E-01   max: -.4913E+00   C at   63  2
       a = -2.000      CL =  0.0153
      Cm = -0.0364     CD =  0.00900   =>   CDf =  0.00553    CDp =  0.00346

 Side 1  free  transition at x/c =  0.6902   58
 Side 2  free  transition at x/c =  0.6689   63

   2   rms: 0.2257E-01   max: -.1944E+00   D at   64  2
       a = -2.000      CL =  0.0155
      Cm = -0.0365     CD =  0.00912   =>   CDf =  0.00568    CDp =  0.00344

 Side 1  free  transition at x/c =  0.6896   58
 Side 2  free  transition at x/c =  0.6868   64

   3   rms: 0.2051E-01   max: 0.3537E+00   C at   64  2
       a = -2.000      CL =  0.0161
      Cm = -0.0366     CD =  0.00905   =>   CDf =  0.00544    CDp =  0.00361

 Side 1  free  transition at x/c =  0.6895   58
 Side 2  free  transition at x/c =  0.6825   64

   4   rms: 0.2699E-02   max: -.3593E-01   D at   67  2
       a = -2.000      CL =  0.0160
      Cm = -0.0366     CD =  0.00906   =>   CDf =  0.00550    CDp =  0.00356

 Side 1  free  transition at x/c =  0.6895   58
 Side 2  free  transition at x/c =  0.6811   64

   5   rms: 0.6751E-04   max: -.7246E-03   D at   64  2
       a = -2.000      CL =  0.0160
      Cm = -0.0366     CD =  0.00906   =>   CDf =  0.00551    CDp =  0.00355
 plradd ia,ip,cpol            5           0  5.68402978E-03

 Point added to stored polar  1
 Point written to save file  s8037_Re400k.base.pol                           
 Dump file unspecified or not available
 Calculating wake trajectory ...
 Calculating source influence matrix ...

 Solving BL system ...

 Side 1  free  transition at x/c =  0.6895   58
 Side 2  free  transition at x/c =  0.6811   64

   1   rms: 0.8211E-01   max: 0.3717E+00   D at   65  2
       a = -1.500      CL =  0.0626
      Cm = -0.0343     CD =  0.00900   =>   CDf =  0.00554    CDp =  0.00346

 Side 1  free  transition at x/c =  0.6776   59
 Side 2  free  transition at x/c =  0.7057   64

   2   rms: 0.1951E-01   max: -.1644E+00   D at   59  1
       a = -1.500      CL =  0.0642
      Cm = -0.0347     CD =  0.00906   =>   CDf =  0.00567    CDp =  0.00339

 Side 1  free  transition at x/c =  0.6796   59
 Side 2  free  transition at x/c =  0.7198   65

   3   rms: 0.1609E-01   max: 0.2617E+00   C at   65  2
       a = -1.500      CL =  0.0652
      Cm = -0.0349     CD =  0.00900   =>   CDf =  0.00545    CDp =  0.00355

 Side 1  free  transition at x/c =  0.6795   59
 Side 2  free  transition at x/c =  0.7164   65

   4   rms: 0.2043E-02   max: -.2790E-01   D at   67  2
       a = -1.500      CL =  0.0654
      Cm = -0.0349     CD =  0.00901   =>   CDf =  0.00550    CDp =  0.00351

 Side 1  free  transition at x/c =  0.6795   59
 Side 2  free  transition at x/c =  0.7154   65

   5   rms: 0.4082E-04   max: -.5052E-03   D at   67  2
       a = -1.500      CL =  0.0654
      Cm = -0.0349     CD =  0.00901   =>   CDf =  0.00551    CDp =  0.00350
 plradd ia,ip,cpol            6           0  0.30778641    

 Point added to stored polar  1
 Point written to save file  s8037_Re400k.base.pol                           
 Dump file unspecified or not available
 Calculating wake trajectory ...
 Calculating source influence matrix ...

 Solving BL system ...

 Side 1  free  transition at x/c =  0.6795   59
 Side 2  free  transition at x/c =  0.7154   65

   1   rms: 0.8105E-01   max: 0.3031E+00   D at   66  2
       a = -1.000      CL =  0.1168
      Cm = -0.0337     CD =  0.00902   =>   CDf =  0.00553    CDp =  0.00350

 Side 1  free  transition at x/c =  0.6713   59
 Side 2  free  transition at x/c =  0.7451   66

   2   rms: 0.1335E-01   max: -.1213E+00   C at   66  2
       a = -1.000      CL =  0.1150
      Cm = -0.0333     CD =  0.00897   =>   CDf =  0.00555    CDp =  0.00341

 Side 1  free  transition at x/c =  0.6692   59
 Side 2  free  transition at x/c =  0.7486   66

   3   rms: 0.9715E-03   max: 0.7674E-02   D at    4  1
       a = -1.000      CL =  0.1147
      Cm = -0.0332     CD =  0.00898   =>   CDf =  0.00548    CDp =  0.00351

 Side 1  free  transition at x/c =  0.6693   59
 Side 2  free  transition at x/c =  0.7486   66

   4   rms: 0.3353E-05   max: 0.2729E-04   C at   66  2
       a = -1.000      CL =  0.1147
      Cm = -0.0332     CD =  0.00898   =>   CDf =  0.00548    CDp =  0.00351
 plradd ia,ip,cpol            7           0  0.30778641    

 Point added to stored polar  1
 Point written to save file  s8037_Re400k.base.pol                           
 Dump file unspecified or not available
 Calculating wake trajectory ...
 Calculating source influence matrix ...

 Solving BL system ...

 Side 1  free  transition at x/c =  0.6693   59
 Side 2  free  transition at x/c =  0.7486   66

   1   rms: 0.8348E-01   max: 0.3911E+00   D at   67  2
       a = -0.500      CL =  0.1639
      Cm = -0.0314     CD =  0.00893   =>   CDf =  0.00548    CDp =  0.00345

 Side 1  free  transition at x/c =  0.6588   58
 Side 2  free  transition at x/c =  0.7669   67

   2   rms: 0.2778E-01   max: -.2087E+00   T at   67  2
       a = -0.500      CL =  0.1654
      Cm = -0.0319     CD =  0.00897   =>   CDf =  0.00562    CDp =  0.00334

 Side 1  free  transition at x/c =  0.6598   59
 Side 2  free  transition at x/c =  0.7802   68

   3   rms: 0.4430E-02   max: -.5373E-01   D at   67  2
       a = -0.500      CL =  0.1666
      Cm = -0.0321     CD =  0.00899   =>   CDf =  0.00554    CDp =  0.00345

 Side 1  free  transition at x/c =  0.6599   59
 Side 2  free  transition at x/c =  0.7787   68

   4   rms: 0.4468E-03   max: 0.4436E-02   C at   68  2
       a = -0.500      CL =  0.1666
      Cm = -0.0321     CD =  0.00899   =>   CDf =  0.00552    CDp =  0.00347

 Side 1  free  transition at x/c =  0.6599   59
 Side 2  free  transition at x/c =  0.7786   68

   5   rms: 0.1902E-05   max: -.2188E-04   D at   70  2
       a = -0.500      CL =  0.1666
      Cm = -0.0321     CD =  0.00899   =>   CDf =  0.00552    CDp =  0.00347
 plradd ia,ip,cpol            8           0  0.29217541    

 Point added to stored polar  1
 Point written to save file  s8037_Re400k.base.pol                           
 Dump file unspecified or not available
 Calculating wake trajectory ...
 Calculating source influence matrix ...

 Solving BL system ...

 Side 1  free  transition at x/c =  0.6599   59
 Side 2  free  transition at x/c =  0.7786   68

   1   rms: 0.8675E-01   max: 0.3535E+00   D at   69  2
       a =  0.000      CL =  0.2264
      Cm = -0.0327     CD =  0.00910   =>   CDf =  0.00552    CDp =  0.00358

 Side 1  free  transition at x/c =  0.6510   59
 Side 2  free  transition at x/c =  0.7948   68

   2   rms: 0.4562E-01   max: -.4100E+00   T at   68  2
       a =  0.000      CL =  0.2166
      Cm = -0.0308     CD =  0.00872   =>   CDf =  0.00562    CDp =  0.00309

 Side 1  free  transition at x/c =  0.6490   59
 Side 2  free  transition at x/c =  0.8078   68

   3   rms: 0.1486E-01   max: -.2194E+00   C at   68  2
       a =  0.000      CL =  0.2173
      Cm = -0.0309     CD =  0.00890   =>   CDf =  0.00550    CDp =  0.00340

 Side 1  free  transition at x/c =  0.6491   59
 Side 2  free  transition at x/c =  0.8059   68

   4   rms: 0.1080E-02   max: 0.1451E-01   C at   68  2
       a =  0.000      CL =  0.2174
      Cm = -0.0309     CD =  0.00892   =>   CDf =  0.00544    CDp =  0.00347

 Side 1  free  transition at x/c =  0.6491   59
 Side 2  free  transition at x/c =  0.8053   68

   5   rms: 0.1015E-04   max: -.1340E-03   D at   70  2
       a =  0.000      CL =  0.2174
      Cm = -0.0309     CD =  0.00892   =>   CDf =  0.00545    CDp =  0.00347
 plradd ia,ip,cpol            9           0  0.26106411    

 Point added to stored polar  1
 Point written to save file  s8037_Re400k.base.pol                           
 Dump file unspecified or not available
 Calculating wake trajectory ...
 Calculating source influence matrix ...

 Solving BL system ...

 Side 1  free  transition at x/c =  0.6491   59
 Side 2  free  transition at x/c =  0.8053   68

   1   rms: 0.7643E-01   max: -.2966E+00   T at   68  2
       a =  0.500      CL =  0.2673
      Cm = -0.0294     CD =  0.00890   =>   CDf =  0.00544    CDp =  0.00346

 Side 1  free  transition at x/c =  0.6399   59
 Side 2  free  transition at x/c =  0.8299   69

   2   rms: 0.1341E-01   max: -.1295E+00   C at   69  2
       a =  0.500      CL =  0.2714
      Cm = -0.0303     CD =  0.00888   =>   CDf =  0.00551    CDp =  0.00337

 Side 1  free  transition at x/c =  0.6391   59
 Side 2  free  transition at x/c =  0.8324   69

   3   rms: 0.1636E-02   max: 0.2165E-01   C at   69  2
       a =  0.500      CL =  0.2711
      Cm = -0.0302     CD =  0.00890   =>   CDf =  0.00542    CDp =  0.00347

 Side 1  free  transition at x/c =  0.6391   59
 Side 2  free  transition at x/c =  0.8317   69

   4   rms: 0.2409E-04   max: -.4406E-03   D at   71  2
       a =  0.500      CL =  0.2711
      Cm = -0.0302     CD =  0.00890   =>   CDf =  0.00543    CDp =  0.00347
 plradd ia,ip,cpol           10           0  0.23031498    

 Point added to stored polar  1
 Point written to save file  s8037_Re400k.base.pol                           
 Dump file unspecified or not available
 Calculating wake trajectory ...
 Calculating source influence matrix ...

 Solving BL system ...

 Side 1  free  transition at x/c =  0.6391   59
 Side 2  free  transition at x/c =  0.8317   69

   1   rms: 0.8260E-01   max: -.3511E+00   C at   69  2
       a =  1.000      CL =  0.3273
      Cm = -0.0301     CD =  0.00880   =>   CDf =  0.00542    CDp =  0.00338

 Side 1  free  transition at x/c =  0.6257   59
 Side 2  free  transition at x/c =  0.8529   69

   2   rms: 0.2364E-01   max: -.2366E+00   D at   60  1
       a =  1.000      CL =  0.3261
      Cm = -0.0299     CD =  0.00889   =>   CDf =  0.00552    CDp =  0.00337

 Side 1  free  transition at x/c =  0.6288   60
 Side 2  free  transition at x/c =  0.8612   69

   3   rms: 0.5388E-02   max: 0.8806E-01   D at   60  1
       a =  1.000      CL =  0.3271
      Cm = -0.0301     CD =  0.00888   =>   CDf =  0.00543    CDp =  0.00344

 Side 1  free  transition at x/c =  0.6280   60
 Side 2  free  transition at x/c =  0.8605   69

   4   rms: 0.3598E-03   max: 0.4444E-02   D at   60  1
       a =  1.000      CL =  0.3269
      Cm = -0.0300     CD =  0.00888   =>   CDf =  0.00543    CDp =  0.00345

 Side 1  free  transition at x/c =  0.6280   60
 Side 2  free  transition at x/c =  0.8605   69

   5   rms: 0.4118E-05   max: -.1966E-04   D at   78  2
       a =  1.000      CL =  0.3269
      Cm = -0.0300     CD =  0.00888   =>   CDf =  0.00543    CDp =  0.00345
 plradd ia,ip,cpol           11           0  0.20008495    

 Point added to stored polar  1
 Point written to save file  s8037_Re400k.base.pol                           
 Dump file unspecified or not available
 Calculating wake trajectory ...
 Calculating source influence matrix ...

 Solving BL system ...

 Side 1  free  transition at x/c =  0.6280   60
 Side 2  free  transition at x/c =  0.8605   69

   1   rms: 0.7823E-01   max: -.2869E+00   T at   69  2
       a =  1.500      CL =  0.3771
      Cm = -0.0287     CD =  0.00900   =>   CDf =  0.00543    CDp =  0.00357

 Side 1  free  transition at x/c =  0.6184   59
 Side 2  free  transition at x/c =  0.8968   72

   2   rms: 0.1712E-01   max: -.1614E+00   D at   59  1
       a =  1.500      CL =  0.3849
      Cm = -0.0304     CD =  0.00887   =>   CDf =  0.00537    CDp =  0.00351

 Side 1  free  transition at x/c =  0.6153   59
 Side 2  free  transition at x/c =  0.8942   71

   3   rms: 0.8107E-02   max: 0.5341E-01   C at   71  2
       a =  1.500      CL =  0.3924
      Cm = -0.0320     CD =  0.00889   =>   CDf =  0.00532    CDp =  0.00357

 Side 1  free  transition at x/c =  0.6155   60
 Side 2  free  transition at x/c =  0.8887   70

   4   rms: 0.1731E-02   max: -.1773E-01   C at   70  2
       a =  1.500      CL =  0.3918
      Cm = -0.0319     CD =  0.00889   =>   CDf =  0.00535    CDp =  0.00354

 Side 1  free  transition at x/c =  0.6155   60
 Side 2  free  transition at x/c =  0.8894   70

   5   rms: 0.7538E-03   max: 0.9672E-02   D at    4  1
       a =  1.500      CL =  0.3919
      Cm = -0.0319     CD =  0.00889   =>   CDf =  0.00535    CDp =  0.00354

 Side 1  free  transition at x/c =  0.6155   60
 Side 2  free  transition at x/c =  0.8893   70

   6   rms: 0.1650E-04   max: 0.2164E-03   D at    4  1
       a =  1.500      CL =  0.3919
      Cm = -0.0319     CD =  0.00889   =>   CDf =  0.00535    CDp =  0.00354
 plradd ia,ip,cpol           12           0  0.17060101    

 Point added to stored polar  1
 Point written to save file  s8037_Re400k.base.pol                           
 Dump file unspecified or not available
 Calculating wake trajectory ...
 Calculating source influence matrix ...

 Solving BL system ...

 Side 1  free  transition at x/c =  0.6155   60
 Side 2  free  transition at x/c =  0.8893   70

   1   rms: 0.1012E+00   max: 0.9775E+00   D at    3  1
       a =  2.000      CL =  0.4609
      Cm = -0.0346     CD =  0.00895   =>   CDf =  0.00535    CDp =  0.00360

 Side 1  free  transition at x/c =  0.6039   59
 Side 2  free  transition at x/c =  0.9131   71

   2   rms: 0.1964E-01   max: -.1908E+00   D at    4  1
       a =  2.000      CL =  0.4623
      Cm = -0.0350     CD =  0.00901   =>   CDf =  0.00538    CDp =  0.00363

 Side 1  free  transition at x/c =  0.6029   59
 Side 2  free  transition at x/c =  0.9160   72

   3   rms: 0.4275E-02   max: -.4524E-01   D at   71  2
       a =  2.000      CL =  0.4662
      Cm = -0.0358     CD =  0.00903   =>   CDf =  0.00534    CDp =  0.00369

 Side 1  free  transition at x/c =  0.6028   59
 Side 2  free  transition at x/c =  0.9141   72

   4   rms: 0.5496E-03   max: 0.4611E-02   C at   72  2
       a =  2.000      CL =  0.4664
      Cm = -0.0358     CD =  0.00903   =>   CDf =  0.00535    CDp =  0.00368

 Side 1  free  transition at x/c =  0.6027   59
 Side 2  free  transition at x/c =  0.9139   72

   5   rms: 0.2300E-05   max: -.3610E-04   D at   76  2
       a =  2.000      CL =  0.4664
      Cm = -0.0358     CD =  0.00903   =>   CDf =  0.00535    CDp =  0.00368
 plradd ia,ip,cpol           13           0  0.15625210    

 Point added to stored polar  1
 Point written to save file  s8037_Re400k.base.pol                           
 Dump file unspecified or not available
 Calculating wake trajectory ...
 Calculating source influence matrix ...

 Solving BL system ...

 Side 1  free  transition at x/c =  0.6027   59
 Side 2  free  transition at x/c =  0.9139   72

   1   rms: 0.1053E+00   max: 0.3239E+00   D at   75  2
       a =  2.500      CL =  0.5586
      Cm = -0.0437     CD =  0.00920   =>   CDf =  0.00532    CDp =  0.00388

 Side 1  free  transition at x/c =  0.5875   59
 Side 2  free  transition at x/c =  0.9250   71

   2   rms: 0.2306E-01   max: -.1525E+00   D at   59  1
       a =  2.500      CL =  0.5446
      Cm = -0.0406     CD =  0.00924   =>   CDf =  0.00544    CDp =  0.00380

 Side 1  free  transition at x/c =  0.5892   59
 Side 2  free  transition at x/c =  0.9321   72

   3   rms: 0.6579E-02   max: 0.6274E-01   D at   76  2
       a =  2.500      CL =  0.5476
      Cm = -0.0413     CD =  0.00925   =>   CDf =  0.00538    CDp =  0.00387

 Side 1  free  transition at x/c =  0.5887   59
 Side 2  free  transition at x/c =  0.9301   72

   4   rms: 0.2364E-03   max: 0.2600E-02   D at   77  2
       a =  2.500      CL =  0.5478
      Cm = -0.0413     CD =  0.00925   =>   CDf =  0.00539    CDp =  0.00387

 Side 1  free  transition at x/c =  0.5887   59
 Side 2  free  transition at x/c =  0.9301   72

   5   rms: 0.7585E-06   max: 0.5473E-05   D at    4  2
       a =  2.500      CL =  0.5478
      Cm = -0.0413     CD =  0.00925   =>   CDf =  0.00539    CDp =  0.00387
 plradd ia,ip,cpol           14           0  0.14221132    

 Point added to stored polar  1
 Point written to save file  s8037_Re400k.base.pol                           
 Dump file unspecified or not available
 Calculating wake trajectory ...
 Calculating source influence matrix ...

 Solving BL system ...

 Side 1  free  transition at x/c =  0.5887   59
 Side 2  free  transition at x/c =  0.9301   72

   1   rms: 0.1028E+00   max: 0.2735E+00   D at   74  2
       a =  3.000      CL =  0.6385
      Cm = -0.0490     CD =  0.00945   =>   CDf =  0.00535    CDp =  0.00410

 Side 1  free  transition at x/c =  0.5716   59
 Side 2  free  transition at x/c =  0.9372   71

   2   rms: 0.1883E-01   max: -.1524E+00   D at   59  1
       a =  3.000      CL =  0.6276
      Cm = -0.0465     CD =  0.00953   =>   CDf =  0.00550    CDp =  0.00404

 Side 1  free  transition at x/c =  0.5743   59
 Side 2  free  transition at x/c =  0.9403   71

   3   rms: 0.2635E-02   max: -.1860E-01   D at   74  2
       a =  3.000      CL =  0.6262
      Cm = -0.0462     CD =  0.00954   =>   CDf =  0.00543    CDp =  0.00412

 Side 1  free  transition at x/c =  0.5738   59
 Side 2  free  transition at x/c =  0.9413   71

   4   rms: 0.1848E-03   max: -.1450E-02   D at   75  2
       a =  3.000      CL =  0.6260
      Cm = -0.0461     CD =  0.00954   =>   CDf =  0.00543    CDp =  0.00411

 Side 1  free  transition at x/c =  0.5738   59
 Side 2  free  transition at x/c =  0.9414   71

   5   rms: 0.2785E-05   max: -.2124E-04   T at   71  2
       a =  3.000      CL =  0.6260
      Cm = -0.0461     CD =  0.00954   =>   CDf =  0.00543    CDp =  0.00411
 plradd ia,ip,cpol           15           0  0.10252976    

 Point added to stored polar  1
 Point written to save file  s8037_Re400k.base.pol                           
 Dump file unspecified or not available
 Calculating wake trajectory ...
 Calculating source influence matrix ...

 Solving BL system ...

 Side 1  free  transition at x/c =  0.5738   59
 Side 2  free  transition at x/c =  0.9414   71

   1   rms: 0.8112E-01   max: -.3112E+00   T at   71  2
       a =  3.500      CL =  0.6791
      Cm = -0.0455     CD =  0.00979   =>   CDf =  0.00539    CDp =  0.00440

 Side 1  free  transition at x/c =  0.5572   59
 Side 2  free  transition at x/c =  0.9671   72

   2   rms: 0.4789E-01   max: 0.4487E+00   D at   74  2
       a =  3.500      CL =  0.6880
      Cm = -0.0474     CD =  0.00977   =>   CDf =  0.00553    CDp =  0.00424

 Side 1  free  transition at x/c =  0.5592   59
 Side 2  free  transition at x/c =  0.9582   71

   3   rms: 0.4242E-01   max: 0.3875E+00   T at   71  2
       a =  3.500      CL =  0.7240
      Cm = -0.0553     CD =  0.00981   =>   CDf =  0.00546    CDp =  0.00435

 Side 1  free  transition at x/c =  0.5565   59
 Side 2  free  transition at x/c =  0.9376   70

   4   rms: 0.5701E-01   max: -.4281E+00   T at   70  2
       a =  3.500      CL =  0.6799
      Cm = -0.0457     CD =  0.00978   =>   CDf =  0.00547    CDp =  0.00430

 Side 1  free  transition at x/c =  0.5589   59
 Side 2  free  transition at x/c =  0.9685   72

   5   rms: 0.5971E-01   max: 0.5677E+00   D at   74  2
       a =  3.500      CL =  0.6858
      Cm = -0.0469     CD =  0.00974   =>   CDf =  0.00548    CDp =  0.00426

 Side 1  free  transition at x/c =  0.5589   59
 Side 2  free  transition at x/c =  0.9599   72

   6   rms: 0.1130E-01   max: 0.8735E-01   T at   72  2
       a =  3.500      CL =  0.6918
      Cm = -0.0482     CD =  0.00987   =>   CDf =  0.00547    CDp =  0.00441

 Side 1  free  transition at x/c =  0.5586   59
 Side 2  free  transition at x/c =  0.9566   71

   7   rms: 0.1961E-01   max: 0.1757E+00   T at   71  2
       a =  3.500      CL =  0.7082
      Cm = -0.0518     CD =  0.00985   =>   CDf =  0.00547    CDp =  0.00439

 Side 1  free  transition at x/c =  0.5576   59
 Side 2  free  transition at x/c =  0.9460   71

   8   rms: 0.1760E-01   max: -.1369E+00   D at   74  2
       a =  3.500      CL =  0.7006
      Cm = -0.0502     CD =  0.00986   =>   CDf =  0.00547    CDp =  0.00439

 Side 1  free  transition at x/c =  0.5581   59
 Side 2  free  transition at x/c =  0.9507   71

   9   rms: 0.4411E-02   max: -.3536E-01   D at   73  2
       a =  3.500      CL =  0.6991
      Cm = -0.0499     CD =  0.00987   =>   CDf =  0.00547    CDp =  0.00440

 Side 1  free  transition at x/c =  0.5582   59
 Side 2  free  transition at x/c =  0.9522   71

  10   rms: 0.1167E-03   max: -.9808E-03   D at   73  2
       a =  3.500      CL =  0.6991
      Cm = -0.0498     CD =  0.00987   =>   CDf =  0.00547    CDp =  0.00440

 Side 1  free  transition at x/c =  0.5582   59
 Side 2  free  transition at x/c =  0.9523   71

  11   rms: 0.7418E-06   max: 0.6318E-05   T at   71  2
       a =  3.500      CL =  0.6991
      Cm = -0.0498     CD =  0.00987   =>   CDf =  0.00547    CDp =  0.00440
 plradd ia,ip,cpol           16           0  0.10252976    

 Point added to stored polar  1
 Point written to save file  s8037_Re400k.base.pol                           
 Dump file unspecified or not available
 Calculating wake trajectory ...
 Calculating source influence matrix ...

 Solving BL system ...

 Side 1  free  transition at x/c =  0.5582   59
 Side 2  free  transition at x/c =  0.9523   71

   1   rms: 0.8797E-01   max: -.2092E+00   T at   71  2
       a =  4.000      CL =  0.7687
      Cm = -0.0529     CD =  0.01012   =>   CDf =  0.00541    CDp =  0.00472

 Side 1  free  transition at x/c =  0.5371   59
 Side 2  free  transition at x/c =  0.9654   71

   2   rms: 0.1664E-01   max: -.2043E+00   D at   59  1
       a =  4.000      CL =  0.7698
      Cm = -0.0532     CD =  0.01014   =>   CDf =  0.00558    CDp =  0.00457

 Side 1  free  transition at x/c =  0.5413   59
 Side 2  free  transition at x/c =  0.9645   71

   3   rms: 0.2181E-02   max: 0.2261E-01   C at   59  1
       a =  4.000      CL =  0.7702
      Cm = -0.0533     CD =  0.01016   =>   CDf =  0.00548    CDp =  0.00468

 Side 1  free  transition at x/c =  0.5402   59
 Side 2  free  transition at x/c =  0.9644   71

   4   rms: 0.6012E-04   max: -.6595E-03   D at   59  1
       a =  4.000      CL =  0.7701
      Cm = -0.0533     CD =  0.01016   =>   CDf =  0.00549    CDp =  0.00467
 plradd ia,ip,cpol           17           0  9.04570520E-02

 Point added to stored polar  1
 Point written to save file  s8037_Re400k.base.pol                           
 Dump file unspecified or not available
 Calculating wake trajectory ...
 Calculating source influence matrix ...

 Solving BL system ...

 Side 1  free  transition at x/c =  0.5403   59
 Side 2  free  transition at x/c =  0.9644   71

   1   rms: 0.8998E-01   max: -.2271E+00   T at   71  2
       a =  4.500      CL =  0.8432
      Cm = -0.0572     CD =  0.01040   =>   CDf =  0.00549    CDp =  0.00492

 Side 1  free  transition at x/c =  0.5178   58
 Side 2  free  transition at x/c =  0.9748   72

   2   rms: 0.1940E-01   max: -.2554E+00   D at   58  1
       a =  4.500      CL =  0.8409
      Cm = -0.0567     CD =  0.01044   =>   CDf =  0.00560    CDp =  0.00484

 Side 1  free  transition at x/c =  0.5217   58
 Side 2  free  transition at x/c =  0.9765   72

   3   rms: 0.3799E-02   max: 0.4776E-01   C at   58  1
       a =  4.500      CL =  0.8416
      Cm = -0.0569     CD =  0.01045   =>   CDf =  0.00549    CDp =  0.00496

 Side 1  free  transition at x/c =  0.5204   58
 Side 2  free  transition at x/c =  0.9760   72

   4   rms: 0.1084E-03   max: -.1559E-02   D at   60  1
       a =  4.500      CL =  0.8416
      Cm = -0.0569     CD =  0.01045   =>   CDf =  0.00551    CDp =  0.00494

 Side 1  free  transition at x/c =  0.5203   58
 Side 2  free  transition at x/c =  0.9760   72

   5   rms: 0.1299E-05   max: 0.9876E-05   T at   72  2
       a =  4.500      CL =  0.8416
      Cm = -0.0569     CD =  0.01045   =>   CDf =  0.00551    CDp =  0.00494
 plradd ia,ip,cpol           18           0  7.91066587E-02

 Point added to stored polar  1
 Point written to save file  s8037_Re400k.base.pol                           
 Dump file unspecified or not available
 Calculating wake trajectory ...
 Calculating source influence matrix ...

 Solving BL system ...

 Side 1  free  transition at x/c =  0.5203   58
 Side 2  free  transition at x/c =  0.9760   72

   1   rms: 0.9286E-01   max: -.2513E+00   T at   72  2
       a =  5.000      CL =  0.9166
      Cm = -0.0614     CD =  0.01074   =>   CDf =  0.00542    CDp =  0.00532

 Side 1  free  transition at x/c =  0.4981   58
 Side 2  free  transition at x/c =  0.9850   72

   2   rms: 0.2525E-01   max: -.3401E+00   D at   58  1
       a =  5.000      CL =  0.9143
      Cm = -0.0609     CD =  0.01070   =>   CDf =  0.00559    CDp =  0.00510

 Side 1  free  transition at x/c =  0.5009   58
 Side 2  free  transition at x/c =  0.9868   72

   3   rms: 0.6654E-02   max: 0.8692E-01   C at   58  1
       a =  5.000      CL =  0.9147
      Cm = -0.0610     CD =  0.01074   =>   CDf =  0.00552    CDp =  0.00522

 Side 1  free  transition at x/c =  0.4990   58
 Side 2  free  transition at x/c =  0.9863   72

   4   rms: 0.3098E-03   max: -.4057E-02   D at   59  1
       a =  5.000      CL =  0.9147
      Cm = -0.0610     CD =  0.01075   =>   CDf =  0.00556    CDp =  0.00518

 Side 1  free  transition at x/c =  0.4989   58
 Side 2  free  transition at x/c =  0.9863   72

   5   rms: 0.2857E-05   max: 0.2476E-04   T at   72  2
       a =  5.000      CL =  0.9147
      Cm = -0.0610     CD =  0.01075   =>   CDf =  0.00557    CDp =  0.00518
 plradd ia,ip,cpol           19           0  5.88850714E-02

 Point added to stored polar  1
 Point written to save file  s8037_Re400k.base.pol                           
 Dump file unspecified or not available
 Calculating wake trajectory ...
 Calculating source influence matrix ...

 Solving BL system ...

 Side 1  free  transition at x/c =  0.4989   58
 Side 2  free  transition at x/c =  0.9863   72

   1   rms: 0.9740E-01   max: -.2631E+00   T at   72  2
       a =  5.500      CL =  0.9914
      Cm = -0.0661     CD =  0.01111   =>   CDf =  0.00546    CDp =  0.00565

 Side 1  free  transition at x/c =  0.4751   57
 Side 2  free  transition at x/c =  0.9935   71

   2   rms: 0.1990E-01   max: 0.2836E+00   D at   58  1
       a =  5.500      CL =  0.9882
      Cm = -0.0654     CD =  0.01103   =>   CDf =  0.00558    CDp =  0.00545

 Side 1  free  transition at x/c =  0.4746   57
 Side 2  free  transition at x/c =  0.9962   72

   3   rms: 0.8638E-02   max: 0.1576E+00   D at   71  2
       a =  5.500      CL =  0.9902
      Cm = -0.0659     CD =  0.01096   =>   CDf =  0.00556    CDp =  0.00540

 Side 1  free  transition at x/c =  0.4735   57
 Side 2  free  transition at x/c =  0.9951   72

   4   rms: 0.1942E-03   max: -.4208E-02   D at   72  2
       a =  5.500      CL =  0.9902
      Cm = -0.0659     CD =  0.01097   =>   CDf =  0.00557    CDp =  0.00540

 Side 1  free  transition at x/c =  0.4735   57
 Side 2  free  transition at x/c =  0.9951   72

   5   rms: 0.6347E-06   max: 0.5678E-05   D at    4  2
       a =  5.500      CL =  0.9902
      Cm = -0.0659     CD =  0.01097   =>   CDf =  0.00557    CDp =  0.00540
 plradd ia,ip,cpol           20           0  5.02522737E-02

 Point added to stored polar  1
 Point written to save file  s8037_Re400k.base.pol                           
 Dump file unspecified or not available
 Calculating wake trajectory ...
 Calculating source influence matrix ...

 Solving BL system ...

 Side 1  free  transition at x/c =  0.4735   57
 Side 2  free  transition at x/c =  0.9951   72

   1   rms: 0.9523E-01   max: -.3238E+00   T at   72  2
       a =  6.000      CL =  1.0686
      Cm = -0.0714     CD =  0.01111   =>   CDf =  0.00545    CDp =  0.00567

 Side 1  free  transition at x/c =  0.4393   56
 Side 2 forced transition at x/c =  1.0000   71

   2   rms: 0.2956E-01   max: 0.3183E+00   D at   57  1
       a =  6.000      CL =  1.0493
      Cm = -0.0675     CD =  0.01122   =>   CDf =  0.00571    CDp =  0.00551

 Side 1  free  transition at x/c =  0.4475   56
 Side 2 forced transition at x/c =  1.0000   71

   3   rms: 0.2110E-02   max: 0.1817E-01   C at   56  1
       a =  6.000      CL =  1.0497
      Cm = -0.0675     CD =  0.01120   =>   CDf =  0.00562    CDp =  0.00558

 Side 1  free  transition at x/c =  0.4459   56
 Side 2 forced transition at x/c =  1.0000   71

   4   rms: 0.1200E-03   max: -.1865E-02   C at   56  1
       a =  6.000      CL =  1.0496
      Cm = -0.0675     CD =  0.01121   =>   CDf =  0.00563    CDp =  0.00558

 Side 1  free  transition at x/c =  0.4460   56
 Side 2 forced transition at x/c =  1.0000   71

   5   rms: 0.1011E-05   max: 0.4283E-05   D at   65  2
       a =  6.000      CL =  1.0496
      Cm = -0.0675     CD =  0.01121   =>   CDf =  0.00563    CDp =  0.00558
 plradd ia,ip,cpol           21           0  4.26322185E-02

 Point added to stored polar  1
 Point written to save file  s8037_Re400k.base.pol                           
 Dump file unspecified or not available
 Calculating wake trajectory ...
 Calculating source influence matrix ...

 Solving BL system ...

 Side 1  free  transition at x/c =  0.4460   56
 Side 2 forced transition at x/c =  1.0000   71

   1   rms: 0.7293E-01   max: -.2458E+00   D at   64  2
       a =  6.500      CL =  1.0780
      Cm = -0.0627     CD =  0.01146   =>   CDf =  0.00563    CDp =  0.00583

 Side 1  free  transition at x/c =  0.4133   54
 Side 2 forced transition at x/c =  1.0000   71

   2   rms: 0.1332E-01   max: -.1710E+00   C at   54  1
       a =  6.500      CL =  1.0741
      Cm = -0.0619     CD =  0.01159   =>   CDf =  0.00579    CDp =  0.00580

 Side 1  free  transition at x/c =  0.4182   54
 Side 2 forced transition at x/c =  1.0000   71

   3   rms: 0.3504E-02   max: -.6258E-01   C at   54  1
       a =  6.500      CL =  1.0744
      Cm = -0.0619     CD =  0.01159   =>   CDf =  0.00574    CDp =  0.00585

 Side 1  free  transition at x/c =  0.4179   54
 Side 2 forced transition at x/c =  1.0000   71

   4   rms: 0.8589E-04   max: 0.1357E-02   C at   54  1
       a =  6.500      CL =  1.0744
      Cm = -0.0620     CD =  0.01159   =>   CDf =  0.00572    CDp =  0.00587
 plradd ia,ip,cpol           22           0  4.26322185E-02

 Point added to stored polar  1
 Point written to save file  s8037_Re400k.base.pol                           
 Dump file unspecified or not available
 Calculating wake trajectory ...
 Calculating source influence matrix ...

 Solving BL system ...

 Side 1  free  transition at x/c =  0.4179   54
 Side 2 forced transition at x/c =  1.0000   71

   1   rms: 0.6998E-01   max: -.2052E+00   D at   65  2
       a =  7.000      CL =  1.1067
      Cm = -0.0578     CD =  0.01183   =>   CDf =  0.00557    CDp =  0.00626

 Side 1  free  transition at x/c =  0.3839   53
 Side 2 forced transition at x/c =  1.0000   70

   2   rms: 0.1179E-01   max: -.1584E+00   C at   53  1
       a =  7.000      CL =  1.0981
      Cm = -0.0561     CD =  0.01210   =>   CDf =  0.00587    CDp =  0.00623

 Side 1  free  transition at x/c =  0.3892   54
 Side 2 forced transition at x/c =  1.0000   70

   3   rms: 0.2486E-02   max: -.3372E-01   D at   53  1
       a =  7.000      CL =  1.0996
      Cm = -0.0564     CD =  0.01207   =>   CDf =  0.00580    CDp =  0.00627

 Side 1  free  transition at x/c =  0.3889   54
 Side 2 forced transition at x/c =  1.0000   70

   4   rms: 0.1186E-03   max: 0.1860E-02   C at   54  1
       a =  7.000      CL =  1.0996
      Cm = -0.0564     CD =  0.01207   =>   CDf =  0.00579    CDp =  0.00628

 Side 1  free  transition at x/c =  0.3888   54
 Side 2 forced transition at x/c =  1.0000   70

   5   rms: 0.8925E-06   max: -.8281E-05   D at   55  1
       a =  7.000      CL =  1.0996
      Cm = -0.0564     CD =  0.01207   =>   CDf =  0.00579    CDp =  0.00628
 plradd ia,ip,cpol           23           0  3.59710827E-02

 Point added to stored polar  1
 Point written to save file  s8037_Re400k.base.pol                           
 Dump file unspecified or not available
 Calculating wake trajectory ...
 Calculating source influence matrix ...

 Solving BL system ...

 Side 1  free  transition at x/c =  0.3888   54
 Side 2 forced transition at x/c =  1.0000   70

   1   rms: 0.7848E-01   max: 0.6083E+00   C at   54  1
       a =  7.500      CL =  1.1185
      Cm = -0.0497     CD =  0.01280   =>   CDf =  0.00579    CDp =  0.00701

 Side 1  free  transition at x/c =  0.3590   52
 Side 2 forced transition at x/c =  1.0000   70

   2   rms: 0.1659E-01   max: 0.2273E+00   D at   53  1
       a =  7.500      CL =  1.1217
      Cm = -0.0503     CD =  0.01268   =>   CDf =  0.00590    CDp =  0.00678

 Side 1  free  transition at x/c =  0.3594   52
 Side 2 forced transition at x/c =  1.0000   70

   3   rms: 0.2036E-02   max: 0.3093E-01   C at   52  1
       a =  7.500      CL =  1.1220
      Cm = -0.0503     CD =  0.01268   =>   CDf =  0.00587    CDp =  0.00681

 Side 1  free  transition at x/c =  0.3586   52
 Side 2 forced transition at x/c =  1.0000   70

   4   rms: 0.3259E-04   max: -.5638E-03   D at   53  1
       a =  7.500      CL =  1.1219
      Cm = -0.0503     CD =  0.01268   =>   CDf =  0.00588    CDp =  0.00680
 plradd ia,ip,cpol           24           0  2.09468864E-02

 Point added to stored polar  1
 Point written to save file  s8037_Re400k.base.pol                           
 Dump file unspecified or not available
 Calculating wake trajectory ...
 Calculating source influence matrix ...

 Solving BL system ...

 Side 1  free  transition at x/c =  0.3586   52
 Side 2 forced transition at x/c =  1.0000   70

   1   rms: 0.7833E-01   max: 0.6788E+00   C at   52  1
       a =  8.000      CL =  1.1380
      Cm = -0.0431     CD =  0.01352   =>   CDf =  0.00571    CDp =  0.00780

 Side 1  free  transition at x/c =  0.3308   51
 Side 2 forced transition at x/c =  1.0000   69

   2   rms: 0.1456E-01   max: 0.1951E+00   D at   52  1
       a =  8.000      CL =  1.1408
      Cm = -0.0436     CD =  0.01339   =>   CDf =  0.00597    CDp =  0.00742

 Side 1  free  transition at x/c =  0.3299   51
 Side 2 forced transition at x/c =  1.0000   69

   3   rms: 0.1292E-02   max: 0.2040E-01   C at   51  1
       a =  8.000      CL =  1.1409
      Cm = -0.0436     CD =  0.01339   =>   CDf =  0.00596    CDp =  0.00743

 Side 1  free  transition at x/c =  0.3293   51
 Side 2 forced transition at x/c =  1.0000   69

   4   rms: 0.1876E-04   max: -.1202E-03   D at   52  1
       a =  8.000      CL =  1.1409
      Cm = -0.0436     CD =  0.01339   =>   CDf =  0.00596    CDp =  0.00743
 plradd ia,ip,cpol           25           0  2.09468864E-02

 Point added to stored polar  1
 Point written to save file  s8037_Re400k.base.pol                           
 Dump file unspecified or not available
 Calculating wake trajectory ...
 Calculating source influence matrix ...

 Solving BL system ...

 Side 1  free  transition at x/c =  0.3293   51
 Side 2 forced transition at x/c =  1.0000   69

   1   rms: 0.7443E-01   max: 0.6621E+00   C at   51  1
       a =  8.500      CL =  1.1558
      Cm = -0.0363     CD =  0.01423   =>   CDf =  0.00597    CDp =  0.00826

 Side 1  free  transition at x/c =  0.3000   49
 Side 2 forced transition at x/c =  1.0000   69

   2   rms: 0.1433E-01   max: 0.2201E+00   D at   50  1
       a =  8.500      CL =  1.1500
      Cm = -0.0351     CD =  0.01416   =>   CDf =  0.00609    CDp =  0.00807

 Side 1  free  transition at x/c =  0.3031   49
 Side 2 forced transition at x/c =  1.0000   69

   3   rms: 0.1784E-02   max: 0.3112E-01   C at   49  1
       a =  8.500      CL =  1.1504
      Cm = -0.0352     CD =  0.01415   =>   CDf =  0.00605    CDp =  0.00810

 Side 1  free  transition at x/c =  0.3023   49
 Side 2 forced transition at x/c =  1.0000   69

   4   rms: 0.3792E-04   max: -.2084E-03   D at   50  1
       a =  8.500      CL =  1.1504
      Cm = -0.0352     CD =  0.01415   =>   CDf =  0.00605    CDp =  0.00810
 plradd ia,ip,cpol           26           0  1.72915719E-02

 Point added to stored polar  1
 Point written to save file  s8037_Re400k.base.pol                           
 Dump file unspecified or not available
 Calculating wake trajectory ...
 Calculating source influence matrix ...

 Solving BL system ...

 Side 1  free  transition at x/c =  0.3023   49
 Side 2 forced transition at x/c =  1.0000   69

   1   rms: 0.6744E-01   max: 0.5581E+00   C at   49  1
       a =  9.000      CL =  1.1580
      Cm = -0.0263     CD =  0.01486   =>   CDf =  0.00587    CDp =  0.00899

 Side 1  free  transition at x/c =  0.2755   48
 Side 2 forced transition at x/c =  1.0000   68

   2   rms: 0.1091E-01   max: 0.1420E+00   D at   49  1
       a =  9.000      CL =  1.1539
      Cm = -0.0259     CD =  0.01508   =>   CDf =  0.00620    CDp =  0.00888

 Side 1  free  transition at x/c =  0.2769   49
 Side 2 forced transition at x/c =  1.0000   68

   3   rms: 0.5457E-02   max: -.6212E-01   C at   49  1
       a =  9.000      CL =  1.1551
      Cm = -0.0261     CD =  0.01504   =>   CDf =  0.00619    CDp =  0.00885

 Side 1  free  transition at x/c =  0.2775   49
 Side 2 forced transition at x/c =  1.0000   68

   4   rms: 0.6511E-03   max: 0.8826E-02   C at   49  1
       a =  9.000      CL =  1.1551
      Cm = -0.0261     CD =  0.01505   =>   CDf =  0.00614    CDp =  0.00890

 Side 1  free  transition at x/c =  0.2773   49
 Side 2 forced transition at x/c =  1.0000   68

   5   rms: 0.1739E-04   max: 0.5792E-04   D at   89  1
       a =  9.000      CL =  1.1551
      Cm = -0.0261     CD =  0.01505   =>   CDf =  0.00615    CDp =  0.00890
 plradd ia,ip,cpol           27           0  1.72915719E-02

 Point added to stored polar  1
 Point written to save file  s8037_Re400k.base.pol                           
 Dump file unspecified or not available
 Calculating wake trajectory ...
 Calculating source influence matrix ...

 Solving BL system ...

 Side 1  free  transition at x/c =  0.2773   49
 Side 2 forced transition at x/c =  1.0000   68

   1   rms: 0.7610E-01   max: 0.4731E+00   C at   49  1
       a =  9.500      CL =  1.1558
      Cm = -0.0169     CD =  0.01631   =>   CDf =  0.00615    CDp =  0.01016

 Side 1  free  transition at x/c =  0.2551   47
 Side 2 forced transition at x/c =  1.0000   68

   2   rms: 0.1772E-01   max: 0.2063E+00   D at   48  1
       a =  9.500      CL =  1.1667
      Cm = -0.0190     CD =  0.01609   =>   CDf =  0.00620    CDp =  0.00989

 Side 1  free  transition at x/c =  0.2536   47
 Side 2 forced transition at x/c =  1.0000   68

   3   rms: 0.1455E-02   max: 0.2337E-01   C at   47  1
       a =  9.500      CL =  1.1671
      Cm = -0.0191     CD =  0.01608   =>   CDf =  0.00619    CDp =  0.00989

 Side 1  free  transition at x/c =  0.2530   47
 Side 2 forced transition at x/c =  1.0000   68

   4   rms: 0.3905E-04   max: -.2204E-03   C at   47  1
       a =  9.500      CL =  1.1670
      Cm = -0.0191     CD =  0.01608   =>   CDf =  0.00619    CDp =  0.00989
 plradd ia,ip,cpol           28           0  1.72915719E-02

 Point added to stored polar  1
 Point written to save file  s8037_Re400k.base.pol                           
 Dump file unspecified or not available
 Calculating wake trajectory ...
 Calculating source influence matrix ...

 Solving BL system ...

 Side 1  free  transition at x/c =  0.2530   47
 Side 2 forced transition at x/c =  1.0000   68

   1   rms: 0.7310E-01   max: 0.5543E+00   C at   47  1
       a = 10.000      CL =  1.1792
      Cm = -0.0124     CD =  0.01731   =>   CDf =  0.00599    CDp =  0.01132

 Side 1  free  transition at x/c =  0.2301   46
 Side 2 forced transition at x/c =  1.0000   67

   2   rms: 0.1183E-01   max: 0.1693E+00   D at   47  1
       a = 10.000      CL =  1.1763
      Cm = -0.0124     CD =  0.01750   =>   CDf =  0.00630    CDp =  0.01120

 Side 1  free  transition at x/c =  0.2304   46
 Side 2 forced transition at x/c =  1.0000   67

   3   rms: 0.6067E-02   max: -.1187E+00   C at   46  1
       a = 10.000      CL =  1.1765
      Cm = -0.0124     CD =  0.01748   =>   CDf =  0.00630    CDp =  0.01118

 Side 1  free  transition at x/c =  0.2302   46
 Side 2 forced transition at x/c =  1.0000   67

   4   rms: 0.6298E-02   max: -.1239E+00   C at   46  1
       a = 10.000      CL =  1.1763
      Cm = -0.0124     CD =  0.01749   =>   CDf =  0.00630    CDp =  0.01118

 Side 1  free  transition at x/c =  0.2302   46
 Side 2 forced transition at x/c =  1.0000   67

   5   rms: 0.6245E-02   max: -.1229E+00   C at   46  1
       a = 10.000      CL =  1.1763
      Cm = -0.0124     CD =  0.01749   =>   CDf =  0.00630    CDp =  0.01118

 Side 1  free  transition at x/c =  0.2302   46
 Side 2 forced transition at x/c =  1.0000   67

   6   rms: 0.6253E-02   max: -.1231E+00   C at   46  1
       a = 10.000      CL =  1.1763
      Cm = -0.0124     CD =  0.01749   =>   CDf =  0.00630    CDp =  0.01118

 Side 1  free  transition at x/c =  0.2302   46
 Side 2 forced transition at x/c =  1.0000   67

   7   rms: 0.6252E-02   max: -.1231E+00   C at   46  1
       a = 10.000      CL =  1.1763
      Cm = -0.0124     CD =  0.01749   =>   CDf =  0.00630    CDp =  0.01118

 Side 1  free  transition at x/c =  0.2302   46
 Side 2 forced transition at x/c =  1.0000   67

   8   rms: 0.6252E-02   max: -.1231E+00   C at   46  1
       a = 10.000      CL =  1.1763
      Cm = -0.0124     CD =  0.01749   =>   CDf =  0.00630    CDp =  0.01118

 Side 1  free  transition at x/c =  0.2302   46
 Side 2 forced transition at x/c =  1.0000   67

   9   rms: 0.6252E-02   max: -.1231E+00   C at   46  1
       a = 10.000      CL =  1.1763
      Cm = -0.0124     CD =  0.01749   =>   CDf =  0.00630    CDp =  0.01118

 Side 1  free  transition at x/c =  0.2302   46
 Side 2 forced transition at x/c =  1.0000   67

  10   rms: 0.6252E-02   max: -.1231E+00   C at   46  1
       a = 10.000      CL =  1.1763
      Cm = -0.0124     CD =  0.01749   =>   CDf =  0.00630    CDp =  0.01118

 Side 1  free  transition at x/c =  0.2302   46
 Side 2 forced transition at x/c =  1.0000   67

  11   rms: 0.6252E-02   max: -.1231E+00   C at   46  1
       a = 10.000      CL =  1.1763
      Cm = -0.0124     CD =  0.01749   =>   CDf =  0.00630    CDp =  0.01118

 Side 1  free  transition at x/c =  0.2302   46
 Side 2 forced transition at x/c =  1.0000   67

  12   rms: 0.6252E-02   max: -.1231E+00   C at   46  1
       a = 10.000      CL =  1.1763
      Cm = -0.0124     CD =  0.01749   =>   CDf =  0.00630    CDp =  0.01118

 Side 1  free  transition at x/c =  0.2302   46
 Side 2 forced transition at x/c =  1.0000   67

  13   rms: 0.6252E-02   max: -.1231E+00   C at   46  1
       a = 10.000      CL =  1.1763
      Cm = -0.0124     CD =  0.01749   =>   CDf =  0.00630    CDp =  0.01118

 Side 1  free  transition at x/c =  0.2302   46
 Side 2 forced transition at x/c =  1.0000   67

  14   rms: 0.6252E-02   max: -.1231E+00   C at   46  1
       a = 10.000      CL =  1.1763
      Cm = -0.0124     CD =  0.01749   =>   CDf =  0.00630    CDp =  0.01118

 Side 1  free  transition at x/c =  0.2302   46
 Side 2 forced transition at x/c =  1.0000   67

  15   rms: 0.6252E-02   max: -.1231E+00   C at   46  1
       a = 10.000      CL =  1.1763
      Cm = -0.0124     CD =  0.01749   =>   CDf =  0.00630    CDp =  0.01118

 Side 1  free  transition at x/c =  0.2302   46
 Side 2 forced transition at x/c =  1.0000   67

  16   rms: 0.6252E-02   max: -.1231E+00   C at   46  1
       a = 10.000      CL =  1.1763
      Cm = -0.0124     CD =  0.01749   =>   CDf =  0.00630    CDp =  0.01118

 Side 1  free  transition at x/c =  0.2302   46
 Side 2 forced transition at x/c =  1.0000   67

  17   rms: 0.6252E-02   max: -.1231E+00   C at   46  1
       a = 10.000      CL =  1.1763
      Cm = -0.0124     CD =  0.01749   =>   CDf =  0.00630    CDp =  0.01118

 Side 1  free  transition at x/c =  0.2302   46
 Side 2 forced transition at x/c =  1.0000   67

  18   rms: 0.6252E-02   max: -.1231E+00   C at   46  1
       a = 10.000      CL =  1.1763
      Cm = -0.0124     CD =  0.01749   =>   CDf =  0.00630    CDp =  0.01118

 Side 1  free  transition at x/c =  0.2302   46
 Side 2 forced transition at x/c =  1.0000   67

  19   rms: 0.6252E-02   max: -.1231E+00   C at   46  1
       a = 10.000      CL =  1.1763
      Cm = -0.0124     CD =  0.01749   =>   CDf =  0.00630    CDp =  0.01118

 Side 1  free  transition at x/c =  0.2302   46
 Side 2 forced transition at x/c =  1.0000   67

  20   rms: 0.6252E-02   max: -.1231E+00   C at   46  1
       a = 10.000      CL =  1.1763
      Cm = -0.0124     CD =  0.01749   =>   CDf =  0.00630    CDp =  0.01118

 Side 1  free  transition at x/c =  0.2302   46
 Side 2 forced transition at x/c =  1.0000   67

  21   rms: 0.6252E-02   max: -.1231E+00   C at   46  1
       a = 10.000      CL =  1.1763
      Cm = -0.0124     CD =  0.01749   =>   CDf =  0.00630    CDp =  0.01118

 Side 1  free  transition at x/c =  0.2302   46
 Side 2 forced transition at x/c =  1.0000   67

  22   rms: 0.6252E-02   max: -.1231E+00   C at   46  1
       a = 10.000      CL =  1.1763
      Cm = -0.0124     CD =  0.01749   =>   CDf =  0.00630    CDp =  0.01118

 Side 1  free  transition at x/c =  0.2302   46
 Side 2 forced transition at x/c =  1.0000   67

  23   rms: 0.6252E-02   max: -.1231E+00   C at   46  1
       a = 10.000      CL =  1.1763
      Cm = -0.0124     CD =  0.01749   =>   CDf =  0.00630    CDp =  0.01118

 Side 1  free  transition at x/c =  0.2302   46
 Side 2 forced transition at x/c =  1.0000   67

  24   rms: 0.6252E-02   max: -.1231E+00   C at   46  1
       a = 10.000      CL =  1.1763
      Cm = -0.0124     CD =  0.01749   =>   CDf =  0.00630    CDp =  0.01118

 Side 1  free  transition at x/c =  0.2302   46
 Side 2 forced transition at x/c =  1.0000   67

  25   rms: 0.6252E-02   max: -.1231E+00   C at   46  1
       a = 10.000      CL =  1.1763
      Cm = -0.0124     CD =  0.01749   =>   CDf =  0.00630    CDp =  0.01118

 Side 1  free  transition at x/c =  0.2302   46
 Side 2 forced transition at x/c =  1.0000   67

  26   rms: 0.6252E-02   max: -.1231E+00   C at   46  1
       a = 10.000      CL =  1.1763
      Cm = -0.0124     CD =  0.01749   =>   CDf =  0.00630    CDp =  0.01118

 Side 1  free  transition at x/c =  0.2302   46
 Side 2 forced transition at x/c =  1.0000   67

  27   rms: 0.6252E-02   max: -.1231E+00   C at   46  1
       a = 10.000      CL =  1.1763
      Cm = -0.0124     CD =  0.01749   =>   CDf =  0.00630    CDp =  0.01118

 Side 1  free  transition at x/c =  0.2302   46
 Side 2 forced transition at x/c =  1.0000   67

  28   rms: 0.6252E-02   max: -.1231E+00   C at   46  1
       a = 10.000      CL =  1.1763
      Cm = -0.0124     CD =  0.01749   =>   CDf =  0.00630    CDp =  0.01118

 Side 1  free  transition at x/c =  0.2302   46
 Side 2 forced transition at x/c =  1.0000   67

  29   rms: 0.6252E-02   max: -.1231E+00   C at   46  1
       a = 10.000      CL =  1.1763
      Cm = -0.0124     CD =  0.01749   =>   CDf =  0.00630    CDp =  0.01118

 Side 1  free  transition at x/c =  0.2302   46
 Side 2 forced transition at x/c =  1.0000   67

  30   rms: 0.6252E-02   max: -.1231E+00   C at   46  1
       a = 10.000      CL =  1.1763
      Cm = -0.0124     CD =  0.01749   =>   CDf =  0.00630    CDp =  0.01118

 Side 1  free  transition at x/c =  0.2302   46
 Side 2 forced transition at x/c =  1.0000   67

  31   rms: 0.6252E-02   max: -.1231E+00   C at   46  1
       a = 10.000      CL =  1.1763
      Cm = -0.0124     CD =  0.01749   =>   CDf =  0.00630    CDp =  0.01118

 Side 1  free  transition at x/c =  0.2302   46
 Side 2 forced transition at x/c =  1.0000   67

  32   rms: 0.6252E-02   max: -.1231E+00   C at   46  1
       a = 10.000      CL =  1.1763
      Cm = -0.0124     CD =  0.01749   =>   CDf =  0.00630    CDp =  0.01118

 Side 1  free  transition at x/c =  0.2302   46
 Side 2 forced transition at x/c =  1.0000   67

  33   rms: 0.6252E-02   max: -.1231E+00   C at   46  1
       a = 10.000      CL =  1.1763
      Cm = -0.0124     CD =  0.01749   =>   CDf =  0.00630    CDp =  0.01118

 Side 1  free  transition at x/c =  0.2302   46
 Side 2 forced transition at x/c =  1.0000   67

  34   rms: 0.6252E-02   max: -.1231E+00   C at   46  1
       a = 10.000      CL =  1.1763
      Cm = -0.0124     CD =  0.01749   =>   CDf =  0.00630    CDp =  0.01118

 Side 1  free  transition at x/c =  0.2302   46
 Side 2 forced transition at x/c =  1.0000   67

  35   rms: 0.6252E-02   max: -.1231E+00   C at   46  1
       a = 10.000      CL =  1.1763
      Cm = -0.0124     CD =  0.01749   =>   CDf =  0.00630    CDp =  0.01118

 Side 1  free  transition at x/c =  0.2302   46
 Side 2 forced transition at x/c =  1.0000   67

  36   rms: 0.6252E-02   max: -.1231E+00   C at   46  1
       a = 10.000      CL =  1.1763
      Cm = -0.0124     CD =  0.01749   =>   CDf =  0.00630    CDp =  0.01118

 Side 1  free  transition at x/c =  0.2302   46
 Side 2 forced transition at x/c =  1.0000   67

  37   rms: 0.6252E-02   max: -.1231E+00   C at   46  1
       a = 10.000      CL =  1.1763
      Cm = -0.0124     CD =  0.01749   =>   CDf =  0.00630    CDp =  0.01118

 Side 1  free  transition at x/c =  0.2302   46
 Side 2 forced transition at x/c =  1.0000   67

  38   rms: 0.6252E-02   max: -.1231E+00   C at   46  1
       a = 10.000      CL =  1.1763
      Cm = -0.0124     CD =  0.01749   =>   CDf =  0.00630    CDp =  0.01118

 Side 1  free  transition at x/c =  0.2302   46
 Side 2 forced transition at x/c =  1.0000   67

  39   rms: 0.6252E-02   max: -.1231E+00   C at   46  1
       a = 10.000      CL =  1.1763
      Cm = -0.0124     CD =  0.01749   =>   CDf =  0.00630    CDp =  0.01118

 Side 1  free  transition at x/c =  0.2302   46
 Side 2 forced transition at x/c =  1.0000   67

  40   rms: 0.6252E-02   max: -.1231E+00   C at   46  1
       a = 10.000      CL =  1.1763
      Cm = -0.0124     CD =  0.01749   =>   CDf =  0.00630    CDp =  0.01118

 Side 1  free  transition at x/c =  0.2302   46
 Side 2 forced transition at x/c =  1.0000   67

  41   rms: 0.6252E-02   max: -.1231E+00   C at   46  1
       a = 10.000      CL =  1.1763
      Cm = -0.0124     CD =  0.01749   =>   CDf =  0.00630    CDp =  0.01118

 Side 1  free  transition at x/c =  0.2302   46
 Side 2 forced transition at x/c =  1.0000   67

  42   rms: 0.6252E-02   max: -.1231E+00   C at   46  1
       a = 10.000      CL =  1.1763
      Cm = -0.0124     CD =  0.01749   =>   CDf =  0.00630    CDp =  0.01118

 Side 1  free  transition at x/c =  0.2302   46
 Side 2 forced transition at x/c =  1.0000   67

  43   rms: 0.6252E-02   max: -.1231E+00   C at   46  1
       a = 10.000      CL =  1.1763
      Cm = -0.0124     CD =  0.01749   =>   CDf =  0.00630    CDp =  0.01118

 Side 1  free  transition at x/c =  0.2302   46
 Side 2 forced transition at x/c =  1.0000   67

  44   rms: 0.6252E-02   max: -.1231E+00   C at   46  1
       a = 10.000      CL =  1.1763
      Cm = -0.0124     CD =  0.01749   =>   CDf =  0.00630    CDp =  0.01118

 Side 1  free  transition at x/c =  0.2302   46
 Side 2 forced transition at x/c =  1.0000   67

  45   rms: 0.6252E-02   max: -.1231E+00   C at   46  1
       a = 10.000      CL =  1.1763
      Cm = -0.0124     CD =  0.01749   =>   CDf =  0.00630    CDp =  0.01118

 Side 1  free  transition at x/c =  0.2302   46
 Side 2 forced transition at x/c =  1.0000   67

  46   rms: 0.6252E-02   max: -.1231E+00   C at   46  1
       a = 10.000      CL =  1.1763
      Cm = -0.0124     CD =  0.01749   =>   CDf =  0.00630    CDp =  0.01118

 Side 1  free  transition at x/c =  0.2302   46
 Side 2 forced transition at x/c =  1.0000   67

  47   rms: 0.6252E-02   max: -.1231E+00   C at   46  1
       a = 10.000      CL =  1.1763
      Cm = -0.0124     CD =  0.01749   =>   CDf =  0.00630    CDp =  0.01118

 Side 1  free  transition at x/c =  0.2302   46
 Side 2 forced transition at x/c =  1.0000   67

  48   rms: 0.6252E-02   max: -.1231E+00   C at   46  1
       a = 10.000      CL =  1.1763
      Cm = -0.0124     CD =  0.01749   =>   CDf =  0.00630    CDp =  0.01118

 Side 1  free  transition at x/c =  0.2302   46
 Side 2 forced transition at x/c =  1.0000   67

  49   rms: 0.6252E-02   max: -.1231E+00   C at   46  1
       a = 10.000      CL =  1.1763
      Cm = -0.0124     CD =  0.01749   =>   CDf =  0.00630    CDp =  0.01118

 Side 1  free  transition at x/c =  0.2302   46
 Side 2 forced transition at x/c =  1.0000   67

  50   rms: 0.6252E-02   max: -.1231E+00   C at   46  1
       a = 10.000      CL =  1.1763
      Cm = -0.0124     CD =  0.01749   =>   CDf =  0.00630    CDp =  0.01118

 Side 1  free  transition at x/c =  0.2302   46
 Side 2 forced transition at x/c =  1.0000   67

  51   rms: 0.6252E-02   max: -.1231E+00   C at   46  1
       a = 10.000      CL =  1.1763
      Cm = -0.0124     CD =  0.01749   =>   CDf =  0.00630    CDp =  0.01118

 Side 1  free  transition at x/c =  0.2302   46
 Side 2 forced transition at x/c =  1.0000   67

  52   rms: 0.6252E-02   max: -.1231E+00   C at   46  1
       a = 10.000      CL =  1.1763
      Cm = -0.0124     CD =  0.01749   =>   CDf =  0.00630    CDp =  0.01118

 Side 1  free  transition at x/c =  0.2302   46
 Side 2 forced transition at x/c =  1.0000   67

  53   rms: 0.6252E-02   max: -.1231E+00   C at   46  1
       a = 10.000      CL =  1.1763
      Cm = -0.0124     CD =  0.01749   =>   CDf =  0.00630    CDp =  0.01118

 Side 1  free  transition at x/c =  0.2302   46
 Side 2 forced transition at x/c =  1.0000   67

  54   rms: 0.6252E-02   max: -.1231E+00   C at   46  1
       a = 10.000      CL =  1.1763
      Cm = -0.0124     CD =  0.01749   =>   CDf =  0.00630    CDp =  0.01118

 Side 1  free  transition at x/c =  0.2302   46
 Side 2 forced transition at x/c =  1.0000   67

  55   rms: 0.6252E-02   max: -.1231E+00   C at   46  1
       a = 10.000      CL =  1.1763
      Cm = -0.0124     CD =  0.01749   =>   CDf =  0.00630    CDp =  0.01118

 Side 1  free  transition at x/c =  0.2302   46
 Side 2 forced transition at x/c =  1.0000   67

  56   rms: 0.6252E-02   max: -.1231E+00   C at   46  1
       a = 10.000      CL =  1.1763
      Cm = -0.0124     CD =  0.01749   =>   CDf =  0.00630    CDp =  0.01118

 Side 1  free  transition at x/c =  0.2302   46
 Side 2 forced transition at x/c =  1.0000   67

  57   rms: 0.6252E-02   max: -.1231E+00   C at   46  1
       a = 10.000      CL =  1.1763
      Cm = -0.0124     CD =  0.01749   =>   CDf =  0.00630    CDp =  0.01118

 Side 1  free  transition at x/c =  0.2302   46
 Side 2 forced transition at x/c =  1.0000   67

  58   rms: 0.6252E-02   max: -.1231E+00   C at   46  1
       a = 10.000      CL =  1.1763
      Cm = -0.0124     CD =  0.01749   =>   CDf =  0.00630    CDp =  0.01118

 Side 1  free  transition at x/c =  0.2302   46
 Side 2 forced transition at x/c =  1.0000   67

  59   rms: 0.6252E-02   max: -.1231E+00   C at   46  1
       a = 10.000      CL =  1.1763
      Cm = -0.0124     CD =  0.01749   =>   CDf =  0.00630    CDp =  0.01118

 Side 1  free  transition at x/c =  0.2302   46
 Side 2 forced transition at x/c =  1.0000   67

  60   rms: 0.6252E-02   max: -.1231E+00   C at   46  1
       a = 10.000      CL =  1.1763
      Cm = -0.0124     CD =  0.01749   =>   CDf =  0.00630    CDp =  0.01118

 Side 1  free  transition at x/c =  0.2302   46
 Side 2 forced transition at x/c =  1.0000   67

  61   rms: 0.6252E-02   max: -.1231E+00   C at   46  1
       a = 10.000      CL =  1.1763
      Cm = -0.0124     CD =  0.01749   =>   CDf =  0.00630    CDp =  0.01118

 Side 1  free  transition at x/c =  0.2302   46
 Side 2 forced transition at x/c =  1.0000   67

  62   rms: 0.6252E-02   max: -.1231E+00   C at   46  1
       a = 10.000      CL =  1.1763
      Cm = -0.0124     CD =  0.01749   =>   CDf =  0.00630    CDp =  0.01118

 Side 1  free  transition at x/c =  0.2302   46
 Side 2 forced transition at x/c =  1.0000   67

  63   rms: 0.6252E-02   max: -.1231E+00   C at   46  1
       a = 10.000      CL =  1.1763
      Cm = -0.0124     CD =  0.01749   =>   CDf =  0.00630    CDp =  0.01118

 Side 1  free  transition at x/c =  0.2302   46
 Side 2 forced transition at x/c =  1.0000   67

  64   rms: 0.6252E-02   max: -.1231E+00   C at   46  1
       a = 10.000      CL =  1.1763
      Cm = -0.0124     CD =  0.01749   =>   CDf =  0.00630    CDp =  0.01118

 Side 1  free  transition at x/c =  0.2302   46
 Side 2 forced transition at x/c =  1.0000   67

  65   rms: 0.6252E-02   max: -.1231E+00   C at   46  1
       a = 10.000      CL =  1.1763
      Cm = -0.0124     CD =  0.01749   =>   CDf =  0.00630    CDp =  0.01118

 Side 1  free  transition at x/c =  0.2302   46
 Side 2 forced transition at x/c =  1.0000   67

  66   rms: 0.6252E-02   max: -.1231E+00   C at   46  1
       a = 10.000      CL =  1.1763
      Cm = -0.0124     CD =  0.01749   =>   CDf =  0.00630    CDp =  0.01118

 Side 1  free  transition at x/c =  0.2302   46
 Side 2 forced transition at x/c =  1.0000   67

  67   rms: 0.6252E-02   max: -.1231E+00   C at   46  1
       a = 10.000      CL =  1.1763
      Cm = -0.0124     CD =  0.01749   =>   CDf =  0.00630    CDp =  0.01118

 Side 1  free  transition at x/c =  0.2302   46
 Side 2 forced transition at x/c =  1.0000   67

  68   rms: 0.6252E-02   max: -.1231E+00   C at   46  1
       a = 10.000      CL =  1.1763
      Cm = -0.0124     CD =  0.01749   =>   CDf =  0.00630    CDp =  0.01118

 Side 1  free  transition at x/c =  0.2302   46
 Side 2 forced transition at x/c =  1.0000   67

  69   rms: 0.6252E-02   max: -.1231E+00   C at   46  1
       a = 10.000      CL =  1.1763
      Cm = -0.0124     CD =  0.01749   =>   CDf =  0.00630    CDp =  0.01118

 Side 1  free  transition at x/c =  0.2302   46
 Side 2 forced transition at x/c =  1.0000   67

  70   rms: 0.6252E-02   max: -.1231E+00   C at   46  1
       a = 10.000      CL =  1.1763
      Cm = -0.0124     CD =  0.01749   =>   CDf =  0.00630    CDp =  0.01118

 Side 1  free  transition at x/c =  0.2302   46
 Side 2 forced transition at x/c =  1.0000   67

  71   rms: 0.6252E-02   max: -.1231E+00   C at   46  1
       a = 10.000      CL =  1.1763
      Cm = -0.0124     CD =  0.01749   =>   CDf =  0.00630    CDp =  0.01118

 Side 1  free  transition at x/c =  0.2302   46
 Side 2 forced transition at x/c =  1.0000   67

  72   rms: 0.6252E-02   max: -.1231E+00   C at   46  1
       a = 10.000      CL =  1.1763
      Cm = -0.0124     CD =  0.01749   =>   CDf =  0.00630    CDp =  0.01118

 Side 1  free  transition at x/c =  0.2302   46
 Side 2 forced transition at x/c =  1.0000   67

  73   rms: 0.6252E-02   max: -.1231E+00   C at   46  1
       a = 10.000      CL =  1.1763
      Cm = -0.0124     CD =  0.01749   =>   CDf =  0.00630    CDp =  0.01118

 Side 1  free  transition at x/c =  0.2302   46
 Side 2 forced transition at x/c =  1.0000   67

  74   rms: 0.6252E-02   max: -.1231E+00   C at   46  1
       a = 10.000      CL =  1.1763
      Cm = -0.0124     CD =  0.01749   =>   CDf =  0.00630    CDp =  0.01118

 Side 1  free  transition at x/c =  0.2302   46
 Side 2 forced transition at x/c =  1.0000   67

  75   rms: 0.6252E-02   max: -.1231E+00   C at   46  1
       a = 10.000      CL =  1.1763
      Cm = -0.0124     CD =  0.01749   =>   CDf =  0.00630    CDp =  0.01118

 Side 1  free  transition at x/c =  0.2302   46
 Side 2 forced transition at x/c =  1.0000   67

  76   rms: 0.6252E-02   max: -.1231E+00   C at   46  1
       a = 10.000      CL =  1.1763
      Cm = -0.0124     CD =  0.01749   =>   CDf =  0.00630    CDp =  0.01118

 Side 1  free  transition at x/c =  0.2302   46
 Side 2 forced transition at x/c =  1.0000   67

  77   rms: 0.6252E-02   max: -.1231E+00   C at   46  1
       a = 10.000      CL =  1.1763
      Cm = -0.0124     CD =  0.01749   =>   CDf =  0.00630    CDp =  0.01118

 Side 1  free  transition at x/c =  0.2302   46
 Side 2 forced transition at x/c =  1.0000   67

  78   rms: 0.6252E-02   max: -.1231E+00   C at   46  1
       a = 10.000      CL =  1.1763
      Cm = -0.0124     CD =  0.01749   =>   CDf =  0.00630    CDp =  0.01118

 Side 1  free  transition at x/c =  0.2302   46
 Side 2 forced transition at x/c =  1.0000   67

  79   rms: 0.6252E-02   max: -.1231E+00   C at   46  1
       a = 10.000      CL =  1.1763
      Cm = -0.0124     CD =  0.01749   =>   CDf =  0.00630    CDp =  0.01118

 Side 1  free  transition at x/c =  0.2302   46
 Side 2 forced transition at x/c =  1.0000   67

  80   rms: 0.6252E-02   max: -.1231E+00   C at   46  1
       a = 10.000      CL =  1.1763
      Cm = -0.0124     CD =  0.01749   =>   CDf =  0.00630    CDp =  0.01118

 Side 1  free  transition at x/c =  0.2302   46
 Side 2 forced transition at x/c =  1.0000   67

  81   rms: 0.6252E-02   max: -.1231E+00   C at   46  1
       a = 10.000      CL =  1.1763
      Cm = -0.0124     CD =  0.01749   =>   CDf =  0.00630    CDp =  0.01118

 Side 1  free  transition at x/c =  0.2302   46
 Side 2 forced transition at x/c =  1.0000   67

  82   rms: 0.6252E-02   max: -.1231E+00   C at   46  1
       a = 10.000      CL =  1.1763
      Cm = -0.0124     CD =  0.01749   =>   CDf =  0.00630    CDp =  0.01118

 Side 1  free  transition at x/c =  0.2302   46
 Side 2 forced transition at x/c =  1.0000   67

  83   rms: 0.6252E-02   max: -.1231E+00   C at   46  1
[...]

 Side 1  free  transition at x/c =  0.1406   42
 Side 2 forced transition at x/c =  1.0000   65

   2   rms: 0.6474E-02   max: -.6570E-01   C at   42  1
       a = 12.750      CL =  1.2538
      Cm =  0.0088     CD =  0.02913   =>   CDf =  0.00624    CDp =  0.02288

 Side 1  free  transition at x/c =  0.1393   42
 Side 2 forced transition at x/c =  1.0000   65

   3   rms: 0.4589E-03   max: 0.2066E-02   D at   42  1
       a = 12.750      CL =  1.2534
      Cm =  0.0088     CD =  0.02916   =>   CDf =  0.00622    CDp =  0.02293

 Side 1  free  transition at x/c =  0.1394   42
 Side 2 forced transition at x/c =  1.0000   65

   4   rms: 0.1448E-04   max: 0.7185E-04   D at   75  2
       a = 12.750      CL =  1.2534
      Cm =  0.0088     CD =  0.02916   =>   CDf =  0.00622    CDp =  0.02293
 plradd ia,ip,cpol           39           0  9.24496911E-03

 Point added to stored polar  1
 Point written to save file  s8037_Re400k.base.pol                           
 Dump file unspecified or not available
 Calculating wake trajectory ...
 Calculating source influence matrix ...

 Solving BL system ...

 Side 1  free  transition at x/c =  0.1394   42
 Side 2 forced transition at x/c =  1.0000   65

   1   rms: 0.3315E-01   max: 0.1161E+00   T at   42  1   RLX: 0.851
       a = 13.000      CL =  1.2623
      Cm =  0.0097     CD =  0.03020   =>   CDf =  0.00623    CDp =  0.02398

 Side 1  free  transition at x/c =  0.1331   42
 Side 2 forced transition at x/c =  1.0000   65

   2   rms: 0.6813E-02   max: -.3937E-01   D at   42  1
       a = 13.000      CL =  1.2598
      Cm =  0.0100     CD =  0.03060   =>   CDf =  0.00622    CDp =  0.02438

 Side 1  free  transition at x/c =  0.1329   42
 Side 2 forced transition at x/c =  1.0000   65

   3   rms: 0.4649E-03   max: 0.3870E-02   D at   77  1
       a = 13.000      CL =  1.2595
      Cm =  0.0101     CD =  0.03058   =>   CDf =  0.00621    CDp =  0.02438

 Side 1  free  transition at x/c =  0.1329   42
 Side 2 forced transition at x/c =  1.0000   65

   4   rms: 0.1222E-04   max: 0.1194E-03   D at   75  2
       a = 13.000      CL =  1.2594
      Cm =  0.0101     CD =  0.03058   =>   CDf =  0.00621    CDp =  0.02437
 plradd ia,ip,cpol           40           0  9.24496911E-03

 Point added to stored polar  1
 Point written to save file  s8037_Re400k.base.pol                           
 Dump file unspecified or not available
 Calculating wake trajectory ...
 Calculating source influence matrix ...

 Solving BL system ...

 Side 1  free  transition at x/c =  0.1329   42
 Side 2 forced transition at x/c =  1.0000   65

   1   rms: 0.3746E-01   max: -.1704E+00   D at   42  1   RLX: 0.810
       a = 13.250      CL =  1.2634
      Cm =  0.0110     CD =  0.03199   =>   CDf =  0.00621    CDp =  0.02578

 Side 1  free  transition at x/c =  0.1285   41
 Side 2 forced transition at x/c =  1.0000   65

   2   rms: 0.6803E-02   max: -.3663E-01   C at   41  1
       a = 13.250      CL =  1.2635
      Cm =  0.0114     CD =  0.03223   =>   CDf =  0.00623    CDp =  0.02600

 Side 1  free  transition at x/c =  0.1275   41
 Side 2 forced transition at x/c =  1.0000   65

   3   rms: 0.6167E-03   max: 0.4074E-02   D at   76  1
       a = 13.250      CL =  1.2630
      Cm =  0.0114     CD =  0.03223   =>   CDf =  0.00620    CDp =  0.02603

 Side 1  free  transition at x/c =  0.1275   41
 Side 2 forced transition at x/c =  1.0000   65

   4   rms: 0.2575E-04   max: 0.1420E-03   D at   75  2
       a = 13.250      CL =  1.2630
      Cm =  0.0114     CD =  0.03222   =>   CDf =  0.00620    CDp =  0.02602
 plradd ia,ip,cpol           41           0  9.24496911E-03

 Point added to stored polar  1
 Point written to save file  s8037_Re400k.base.pol                           
 Dump file unspecified or not available
 Calculating wake trajectory ...
 Calculating source influence matrix ...

 Solving BL system ...

 Side 1  free  transition at x/c =  0.1275   41
 Side 2 forced transition at x/c =  1.0000   65

   1   rms: 0.3277E-01   max: 0.1289E+00   T at   41  1   RLX: 0.786
       a = 13.500      CL =  1.2723
      Cm =  0.0120     CD =  0.03316   =>   CDf =  0.00620    CDp =  0.02695

 Side 1  free  transition at x/c =  0.1226   41
 Side 2 forced transition at x/c =  1.0000   65

   2   rms: 0.8098E-02   max: -.3747E-01   D at   41  1
       a = 13.500      CL =  1.2709
      Cm =  0.0124     CD =  0.03364   =>   CDf =  0.00616    CDp =  0.02748

 Side 1  free  transition at x/c =  0.1218   41
 Side 2 forced transition at x/c =  1.0000   65

   3   rms: 0.5044E-03   max: 0.2779E-02   D at   76  2
       a = 13.500      CL =  1.2705
      Cm =  0.0124     CD =  0.03361   =>   CDf =  0.00614    CDp =  0.02747

 Side 1  free  transition at x/c =  0.1219   41
 Side 2 forced transition at x/c =  1.0000   65

   4   rms: 0.1044E-04   max: 0.8134E-04   D at   76  2
       a = 13.500      CL =  1.2705
      Cm =  0.0124     CD =  0.03361   =>   CDf =  0.00614    CDp =  0.02747
 plradd ia,ip,cpol           42           0 -3.26068657E-05

 Point added to stored polar  1
 Point written to save file  s8037_Re400k.base.pol                           
 Dump file unspecified or not available
 Calculating wake trajectory ...
 Calculating source influence matrix ...

 Solving BL system ...

 Side 1  free  transition at x/c =  0.1219   41
 Side 2 forced transition at x/c =  1.0000   65

   1   rms: 0.3579E-01   max: -.1597E+00   D at   41  1   RLX: 0.753
       a = 13.750      CL =  1.2752
      Cm =  0.0131     CD =  0.03491   =>   CDf =  0.00614    CDp =  0.02876

 Side 1  free  transition at x/c =  0.1169   41
 Side 2 forced transition at x/c =  1.0000   65

   2   rms: 0.1132E-01   max: 0.5775E-01   D at   75  1
       a = 13.750      CL =  1.2717
      Cm =  0.0135     CD =  0.03564   =>   CDf =  0.00618    CDp =  0.02946

 Side 1  free  transition at x/c =  0.1161   41
 Side 2 forced transition at x/c =  1.0000   65

   3   rms: 0.6599E-03   max: 0.4433E-02   D at   76  2
       a = 13.750      CL =  1.2712
      Cm =  0.0136     CD =  0.03558   =>   CDf =  0.00617    CDp =  0.02941

 Side 1  free  transition at x/c =  0.1161   41
 Side 2 forced transition at x/c =  1.0000   65

   4   rms: 0.1002E-04   max: 0.1023E-03   D at   76  2
       a = 13.750      CL =  1.2711
      Cm =  0.0136     CD =  0.03558   =>   CDf =  0.00617    CDp =  0.02941
 plradd ia,ip,cpol           43           0 -1.32801855E-04

 Point added to stored polar  1
 Point written to save file  s8037_Re400k.base.pol                           
 Dump file unspecified or not available
 Calculating wake trajectory ...
 Calculating source influence matrix ...

 Solving BL system ...

 Side 1  free  transition at x/c =  0.1161   41
 Side 2 forced transition at x/c =  1.0000   65

   1   rms: 0.3993E-01   max: -.1528E+00   D at   41  1   RLX: 0.714
       a = 14.000      CL =  1.2707
      Cm =  0.0144     CD =  0.03729   =>   CDf =  0.00590    CDp =  0.03139

 Side 1  free  transition at x/c =  0.1128   41
 Side 2 forced transition at x/c =  1.0000   64

   2   rms: 0.4662E+00   max: 0.8245E+01   T at    2  1   RLX: 0.142
       a = 14.000      CL =  1.2711
      Cm =  0.0144     CD =  0.03703   =>   CDf =  0.00612    CDp =  0.03091

 Side 1  free  transition at x/c =  0.1126   41
 Side 2 forced transition at x/c =  1.0000   64

   3   rms: 0.1266E-01   max: -.1196E+00   D at   41  1
       a = 14.000      CL =  1.2790
      Cm =  0.0144     CD =  0.03701   =>   CDf =  0.00611    CDp =  0.03089

 Side 1  free  transition at x/c =  0.1113   41
 Side 2 forced transition at x/c =  1.0000   64

   4   rms: 0.6794E-03   max: 0.7056E-02   C at   41  1
       a = 14.000      CL =  1.2786
      Cm =  0.0145     CD =  0.03705   =>   CDf =  0.00608    CDp =  0.03096

 Side 1  free  transition at x/c =  0.1113   41
 Side 2 forced transition at x/c =  1.0000   64

   5   rms: 0.2934E-04   max: 0.1330E-03   D at   75  1
       a = 14.000      CL =  1.2785
      Cm =  0.0145     CD =  0.03705   =>   CDf =  0.00608    CDp =  0.03096
 plradd ia,ip,cpol           44           0 -1.32801855E-04

 Point added to stored polar  1
 Point written to save file  s8037_Re400k.base.pol                           
 Dump file unspecified or not available
 Calculating wake trajectory ...
 Calculating source influence matrix ...

 Solving BL system ...

 Side 1  free  transition at x/c =  0.1113   41
 Side 2 forced transition at x/c =  1.0000   64

   1   rms: 0.3307E-01   max: 0.1165E+00   T at   41  1   RLX: 0.700
       a = 14.250      CL =  1.2841
      Cm =  0.0149     CD =  0.03822   =>   CDf =  0.00609    CDp =  0.03214

 Side 1  free  transition at x/c =  0.1075   41
 Side 2 forced transition at x/c =  1.0000   64

   2   rms: 0.1071E-01   max: -.5568E-01   D at   41  1
       a = 14.250      CL =  1.2832
      Cm =  0.0153     CD =  0.03888   =>   CDf =  0.00607    CDp =  0.03281

 Side 1  free  transition at x/c =  0.1064   41
 Side 2 forced transition at x/c =  1.0000   64

   3   rms: 0.1210E-02   max: 0.8313E-02   D at   74  1
       a = 14.250      CL =  1.2823
      Cm =  0.0153     CD =  0.03886   =>   CDf =  0.00607    CDp =  0.03280

 Side 1  free  transition at x/c =  0.1064   41
 Side 2 forced transition at x/c =  1.0000   64

   4   rms: 0.4041E-04   max: 0.2538E-03   D at   75  2
       a = 14.250      CL =  1.2823
      Cm =  0.0153     CD =  0.03886   =>   CDf =  0.00606    CDp =  0.03279
 plradd ia,ip,cpol           45           0 -1.32801855E-04

 Point added to stored polar  1
 Point written to save file  s8037_Re400k.base.pol                           
 Dump file unspecified or not available
 Calculating wake trajectory ...
 Calculating source influence matrix ...

 Solving BL system ...

 Side 1  free  transition at x/c =  0.1064   41
 Side 2 forced transition at x/c =  1.0000   64

   1   rms: 0.3592E-01   max: -.1658E+00   D at   41  1   RLX: 0.671
       a = 14.500      CL =  1.2839
      Cm =  0.0158     CD =  0.04041   =>   CDf =  0.00607    CDp =  0.03434

 Side 1  free  transition at x/c =  0.1034   41
 Side 2 forced transition at x/c =  1.0000   64

   2   rms: 0.1418E-01   max: 0.6005E-01   D at   73  1
       a = 14.500      CL =  1.2805
      Cm =  0.0163     CD =  0.04136   =>   CDf =  0.00608    CDp =  0.03528

 Side 1  free  transition at x/c =  0.1019   40
 Side 2 forced transition at x/c =  1.0000   64

   3   rms: 0.3982E-02   max: -.4695E-01   C at   40  1
       a = 14.500      CL =  1.2820
      Cm =  0.0163     CD =  0.04105   =>   CDf =  0.00607    CDp =  0.03498

 Side 1  free  transition at x/c =  0.1020   40
 Side 2 forced transition at x/c =  1.0000   64

   4   rms: 0.4430E-03   max: -.2023E-02   D at   73  1
       a = 14.500      CL =  1.2823
      Cm =  0.0163     CD =  0.04104   =>   CDf =  0.00606    CDp =  0.03498

 Side 1  free  transition at x/c =  0.1020   40
 Side 2 forced transition at x/c =  1.0000   64

   5   rms: 0.2741E-04   max: -.1582E-03   D at   76  2
       a = 14.500      CL =  1.2823
      Cm =  0.0163     CD =  0.04104   =>   CDf =  0.00606    CDp =  0.03498
 plradd ia,ip,cpol           46           0 -1.32801855E-04

 Point added to stored polar  1
 Point written to save file  s8037_Re400k.base.pol                           
 Dump file unspecified or not available
 Calculating wake trajectory ...
 Calculating source influence matrix ...

 Solving BL system ...

 Side 1  free  transition at x/c =  0.1020   40
 Side 2 forced transition at x/c =  1.0000   64

   1   rms: 0.3259E-01   max: -.1374E+00   C at   40  1   RLX: 0.652
       a = 14.750      CL =  1.2895
      Cm =  0.0166     CD =  0.04203   =>   CDf =  0.00606    CDp =  0.03597

 Side 1  free  transition at x/c =  0.0991   40
 Side 2 forced transition at x/c =  1.0000   64

   2   rms: 0.1135E-01   max: -.4777E-01   D at   40  1
       a = 14.750      CL =  1.2903
      Cm =  0.0168     CD =  0.04272   =>   CDf =  0.00600    CDp =  0.03672

 Side 1  free  transition at x/c =  0.0977   40
 Side 2 forced transition at x/c =  1.0000   64

   3   rms: 0.1100E-02   max: 0.5090E-02   D at   76  2
       a = 14.750      CL =  1.2894
      Cm =  0.0169     CD =  0.04269   =>   CDf =  0.00597    CDp =  0.03672

 Side 1  free  transition at x/c =  0.0978   40
 Side 2 forced transition at x/c =  1.0000   64

   4   rms: 0.2927E-04   max: 0.3586E-03   D at   76  2
       a = 14.750      CL =  1.2894
      Cm =  0.0169     CD =  0.04268   =>   CDf =  0.00597    CDp =  0.03671
 plradd ia,ip,cpol           47           0 -1.32801855E-04

 Point added to stored polar  1
 Point written to save file  s8037_Re400k.base.pol                           
 Dump file unspecified or not available
 Calculating wake trajectory ...
 Calculating source influence matrix ...

 Solving BL system ...

 Side 1  free  transition at x/c =  0.0978   40
 Side 2 forced transition at x/c =  1.0000   64

   1   rms: 0.3282E-01   max: 0.1191E+00   T at   40  1   RLX: 0.630
       a = 15.000      CL =  1.2933
      Cm =  0.0172     CD =  0.04396   =>   CDf =  0.00597    CDp =  0.03799

 Side 1  free  transition at x/c =  0.0949   40
 Side 2 forced transition at x/c =  1.0000   64

   2   rms: 0.1324E-01   max: -.5998E-01   D at   40  1
       a = 15.000      CL =  1.2924
      Cm =  0.0174     CD =  0.04489   =>   CDf =  0.00596    CDp =  0.03892

 Side 1  free  transition at x/c =  0.0937   40
 Side 2 forced transition at x/c =  1.0000   64

   3   rms: 0.1465E-02   max: 0.7042E-02   D at   76  2
       a = 15.000      CL =  1.2912
      Cm =  0.0175     CD =  0.04483   =>   CDf =  0.00596    CDp =  0.03888

 Side 1  free  transition at x/c =  0.0938   40
 Side 2 forced transition at x/c =  1.0000   64

   4   rms: 0.4842E-04   max: 0.3678E-03   D at   76  2
       a = 15.000      CL =  1.2912
      Cm =  0.0175     CD =  0.04482   =>   CDf =  0.00595    CDp =  0.03887
 plradd ia,ip,cpol           48           0 -1.32801855E-04

 Point added to stored polar  1
 Point written to save file  s8037_Re400k.base.pol                           
 Dump file unspecified or not available
 Calculating wake trajectory ...
 Calculating source influence matrix ...

 Solving BL system ...

 Side 1  free  transition at x/c =  0.0938   40
 Side 2 forced transition at x/c =  1.0000   64

   1   rms: 0.3675E-01   max: -.1649E+00   D at   40  1   RLX: 0.605
       a = 15.250      CL =  1.2921
      Cm =  0.0178     CD =  0.04640   =>   CDf =  0.00596    CDp =  0.04044

 Side 1  free  transition at x/c =  0.0914   40
 Side 2 forced transition at x/c =  1.0000   64

   2   rms: 0.1686E-01   max: 0.6973E-01   D at   71  1
       a = 15.250      CL =  1.2883
      Cm =  0.0181     CD =  0.04766   =>   CDf =  0.00596    CDp =  0.04170

 Side 1  free  transition at x/c =  0.0899   39
 Side 2 forced transition at x/c =  1.0000   64

   3   rms: 0.4409E-02   max: -.4872E-01   C at   39  1
       a = 15.250      CL =  1.2897
      Cm =  0.0182     CD =  0.04729   =>   CDf =  0.00595    CDp =  0.04134

 Side 1  free  transition at x/c =  0.0900   39
 Side 2 forced transition at x/c =  1.0000   64

   4   rms: 0.5884E-03   max: -.2735E-02   D at   71  1
       a = 15.250      CL =  1.2901
      Cm =  0.0181     CD =  0.04727   =>   CDf =  0.00594    CDp =  0.04133

 Side 1  free  transition at x/c =  0.0900   39
 Side 2 forced transition at x/c =  1.0000   64

   5   rms: 0.4655E-04   max: -.2499E-03   D at   76  2
       a = 15.250      CL =  1.2901
      Cm =  0.0181     CD =  0.04728   =>   CDf =  0.00594    CDp =  0.04134
 plradd ia,ip,cpol           49           0 -1.32801855E-04

 Point added to stored polar  1
 Point written to save file  s8037_Re400k.base.pol                           
 Dump file unspecified or not available
 Calculating wake trajectory ...
 Calculating source influence matrix ...

 Solving BL system ...

 Side 1  free  transition at x/c =  0.0900   39
 Side 2 forced transition at x/c =  1.0000   64

   1   rms: 0.3189E-01   max: -.1612E+00   C at   39  1   RLX: 0.589
       a = 15.500      CL =  1.2961
      Cm =  0.0182     CD =  0.04833   =>   CDf =  0.00594    CDp =  0.04238

 Side 1  free  transition at x/c =  0.0878   39
 Side 2 forced transition at x/c =  1.0000   64

   2   rms: 0.1291E-01   max: 0.4991E-01   T at   39  1
       a = 15.500      CL =  1.2976
      Cm =  0.0184     CD =  0.04918   =>   CDf =  0.00588    CDp =  0.04330

 Side 1  free  transition at x/c =  0.0862   39
 Side 2 forced transition at x/c =  1.0000   64

   3   rms: 0.1466E-02   max: 0.6294E-02   D at   77  2
       a = 15.500      CL =  1.2964
      Cm =  0.0185     CD =  0.04913   =>   CDf =  0.00585    CDp =  0.04329

 Side 1  free  transition at x/c =  0.0864   39
 Side 2 forced transition at x/c =  1.0000   64

   4   rms: 0.4758E-04   max: 0.3804E-03   D at   77  2
       a = 15.500      CL =  1.2964
      Cm =  0.0185     CD =  0.04912   =>   CDf =  0.00584    CDp =  0.04328
 plradd ia,ip,cpol           50           0 -1.32801855E-04

 Point added to stored polar  1
 Point written to save file  s8037_Re400k.base.pol                           
 Dump file unspecified or not available
 Calculating wake trajectory ...
 Calculating source influence matrix ...

 Solving BL system ...

 Side 1  free  transition at x/c =  0.0864   39
 Side 2 forced transition at x/c =  1.0000   64

   1   rms: 0.3233E-01   max: 0.1217E+00   T at   39  1   RLX: 0.571
       a = 15.750      CL =  1.2994
      Cm =  0.0186     CD =  0.05046   =>   CDf =  0.00554    CDp =  0.04492

 Side 1  free  transition at x/c =  0.0842   40
 Side 2 forced transition at x/c =  1.0000   63

   2   rms: 0.1462E-01   max: -.5934E-01   D at   40  1
       a = 15.750      CL =  1.2989
      Cm =  0.0187     CD =  0.05162   =>   CDf =  0.00582    CDp =  0.04580

 Side 1  free  transition at x/c =  0.0829   40
 Side 2 forced transition at x/c =  1.0000   63

   3   rms: 0.1608E-02   max: 0.8394E-02   D at   76  2
       a = 15.750      CL =  1.2975
      Cm =  0.0188     CD =  0.05152   =>   CDf =  0.00581    CDp =  0.04571

 Side 1  free  transition at x/c =  0.0830   40
 Side 2 forced transition at x/c =  1.0000   63

   4   rms: 0.6047E-04   max: 0.8148E-03   D at   76  2
       a = 15.750      CL =  1.2975
      Cm =  0.0188     CD =  0.05150   =>   CDf =  0.00580    CDp =  0.04569
 plradd ia,ip,cpol           51           0 -1.32801855E-04

 Point added to stored polar  1
 Point written to save file  s8037_Re400k.base.pol                           
 Dump file unspecified or not available
 Calculating wake trajectory ...
 Calculating source influence matrix ...

 Solving BL system ...

 Side 1  free  transition at x/c =  0.0830   40
 Side 2 forced transition at x/c =  1.0000   63

   1   rms: 0.3322E-01   max: -.1423E+00   D at   40  1   RLX: 0.551
       a = 16.000      CL =  1.2985
      Cm =  0.0189     CD =  0.05306   =>   CDf =  0.00581    CDp =  0.04725

 Side 1  free  transition at x/c =  0.0810   40
 Side 2 forced transition at x/c =  1.0000   63

   2   rms: 0.1708E-01   max: 0.7605E-01   D at   70  1
       a = 16.000      CL =  1.2953
      Cm =  0.0190     CD =  0.05457   =>   CDf =  0.00581    CDp =  0.04876

 Side 1  free  transition at x/c =  0.0796   40
 Side 2 forced transition at x/c =  1.0000   63

   3   rms: 0.2341E-02   max: 0.1125E-01   D at   76  2
       a = 16.000      CL =  1.2934
      Cm =  0.0192     CD =  0.05445   =>   CDf =  0.00581    CDp =  0.04864

 Side 1  free  transition at x/c =  0.0796   40
 Side 2 forced transition at x/c =  1.0000   63

   4   rms: 0.8500E-04   max: 0.5966E-03   D at   76  2
       a = 16.000      CL =  1.2933
      Cm =  0.0192     CD =  0.05442   =>   CDf =  0.00581    CDp =  0.04861
 plradd ia,ip,cpol           52           0 -1.32801855E-04

 Point added to stored polar  1
 Point written to save file  s8037_Re400k.base.pol                           
 Dump file unspecified or not available

.OPERva   c>  
 Polar accumulation disabled

.OPERv   c>  
 XFOIL   c>  
 XFOIL   c>  