
 ===================================================
  XFOIL Version 6.99
  Copyright (C) 2000   Mark Drela, Harold Youngren

  This software comes with ABSOLUTELY NO WARRANTY,
    subject to the GNU General Public License.

  Caveat computor
 ===================================================

 File  xfoil.def  not found

   QUIT    Exit program

  .OPER    Direct operating point(s)
  .MDES    Complex mapping design routine
  .QDES    Surface speed design routine
  .GDES    Geometry design routine

   SAVE f  Write airfoil to labeled coordinate file
   PSAV f  Write airfoil to plain coordinate file
   ISAV f  Write airfoil to ISES coordinate file
   MSAV f  Write airfoil to MSES coordinate file
   REVE    Reverse written-airfoil node ordering

   LOAD f  Read buffer airfoil from coordinate file
   NACA i  Set NACA 4,5-digit airfoil and buffer airfoil
   INTE    Set buffer airfoil by interpolating two airfoils
   NORM    Buffer airfoil normalization toggle
   XYCM rr Change CM reference location, currently  0.25000 0.00000

   BEND    Display structural properties of current airfoil

   PCOP    Set current-airfoil panel nodes directly from buffer airfoil points
   PANE    Set current-airfoil panel nodes ( 160 ) based on curvature
  .PPAR    Show/change paneling

  .PLOP    Plotting options

   WDEF f  Write  current-settings file
   RDEF f  Reread current-settings file
   NAME s  Specify new airfoil name
   NINC    Increment name version number

   Z       Zoom    | (available in all menus)
   U       Unzoom  | 

 XFOIL   c>  
 Labeled airfoil file.  Name:  S8055 (12%)                                     

 Number of input coordinate points:  81
 Counterclockwise ordering
 Max thickness =     0.120016  at x =   0.343
 Max camber    =     0.020773  at x =   0.411

  LE  x,y  =  -0.00005  -0.00049  |   Chord =   1.00005
  TE  x,y  =   1.00000   0.00000  |

 Current airfoil nodes set from buffer airfoil nodes (  81 )

 XFOIL   c>  
 XFOIL   c>  
 Sharp trailing edge

 Paneling parameters used...
   Number of panel nodes       160
   Panel bunching parameter    1.000
   TE/LE panel density ratio   0.150
   Refined-area/LE panel density ratio    0.200
   Top    side refined area x/c limits  1.000 1.000
   Bottom side refined area x/c limits  1.000 1.000

 XFOIL   c>  
.OPERi   c>  
 Xtr/c     =  1.0000    top    side
 Xtr/c     =  1.0000    bottom side
 Ncrit     =    9.00   ( 0.070 % turb. level )
 Vacc      =  0.0100

 Klag  =  5.6000     Uxwt  =    1.00
 A     =  6.7000     B     =  0.7500       KCt = 0.01485
 CtiniK=  1.8000     CtiniX=  3.3000

..VPAR   c>  
..VPAR   c>  
.OPERi   c>  
 M  =    0.0000
 Re =    400000

.OPERv   c>  
.OPERv   c>  
.OPERv   c>  
 Polar  1 newly created for accumulation
 Airfoil archived with polar: S8055 (12%)                                     

Enter  polar save filename  OR  <return> for no file   s>  
 New polar save file available

Enter  polar dump filename  OR  <return> for no file   s>  
 Polar dump file will NOT be written

 Polar accumulation enabled

.OPERva   c>   Calculating unit vorticity distributions ...
 Calculating wake trajectory ...
 Calculating source influence matrix ...

 Solving BL system ...

 Initializing BL ...
    side            1  ...
 MRCHUE: Inverse mode at  56     Hk =   3.800
 MRCHUE: Inverse mode at  57     Hk =   4.326
 MRCHUE: Inverse mode at  58     Hk =   4.847
 MRCHUE: Inverse mode at  59     Hk =   5.367
 MRCHUE: Inverse mode at  60     Hk =   5.884
 MRCHUE: Inverse mode at  61     Hk =   6.398
 MRCHUE: Inverse mode at  62     Hk =   6.909
 MRCHUE: Inverse mode at  63     Hk =   7.415
 MRCHUE: Inverse mode at  64     Hk =   7.917
 MRCHUE: Inverse mode at  65     Hk =   8.415
 MRCHUE: Inverse mode at  66     Hk =   8.909
 MRCHUE: Inverse mode at  67     Hk =   9.397
 MRCHUE: Inverse mode at  68     Hk =   7.817
 MRCHUE: Inverse mode at  69     Hk =   6.143
 MRCHUE: Inverse mode at  70     Hk =   4.988
 MRCHUE: Inverse mode at  71     Hk =   4.110
 MRCHUE: Inverse mode at  72     Hk =   3.420
 MRCHUE: Inverse mode at  73     Hk =   2.877
 MRCHUE: Inverse mode at  74     Hk =   2.500
 MRCHUE: Inverse mode at  75     Hk =   2.500
 MRCHUE: Inverse mode at  76     Hk =   2.500
    side            2  ...
 MRCHUE: Inverse mode at  13     Hk =   4.024
 MRCHUE: Inverse mode at  14     Hk =   4.978
 MRCHUE: Inverse mode at  15     Hk =   5.842
 MRCHUE: Inverse mode at  16     Hk =   6.673
 MRCHUE: Inverse mode at  17     Hk =   7.509
 MRCHUE: Inverse mode at  18     Hk =   8.382
 MRCHUE: Inverse mode at  19     Hk =   9.322
 MRCHUE: Inverse mode at  20     Hk =  10.359
 MRCHUE: Inverse mode at  21     Hk =   4.844
 MRCHUE: Inverse mode at  22     Hk =   2.500
 MRCHUE: Inverse mode at  85     Hk =   2.500
 MRCHUE: Inverse mode at  86     Hk =   2.500

 Side 1  free  transition at x/c =  0.8870   68
 Side 2  free  transition at x/c =  0.0255   21

   1   rms: 0.3948E+00   max: -.3252E+01   T at   21  2   RLX: 0.154
       a = -4.000      CL = -0.2184
      Cm = -0.0548     CD =  0.01365   =>   CDf =  0.00679    CDp =  0.00686

 Side 1  free  transition at x/c =  0.8869   68
 Side 2  free  transition at x/c =  0.0274   21

   2   rms: 0.2465E+00   max: -.2079E+01   T at   21  2   RLX: 0.240
       a = -4.000      CL = -0.2019
      Cm = -0.0556     CD =  0.01347   =>   CDf =  0.00672    CDp =  0.00675

 Side 1  free  transition at x/c =  0.8861   68
 Side 2  free  transition at x/c =  0.0316   22

   3   rms: 0.2582E+00   max: -.2301E+01   T at   22  2   RLX: 0.217
       a = -4.000      CL = -0.1985
      Cm = -0.0544     CD =  0.01234   =>   CDf =  0.00678    CDp =  0.00555

 Side 1  free  transition at x/c =  0.8841   68
 Side 2  free  transition at x/c =  0.0345   22

   4   rms: 0.1743E+00   max: -.1727E+01   T at   22  2   RLX: 0.289
       a = -4.000      CL = -0.1936
      Cm = -0.0533     CD =  0.01240   =>   CDf =  0.00675    CDp =  0.00565

 Side 1  free  transition at x/c =  0.8819   67
 Side 2  free  transition at x/c =  0.0415   23

   5   rms: 0.1125E+00   max: -.9626E+00   T at   23  2   RLX: 0.519
       a = -4.000      CL = -0.1941
      Cm = -0.0516     CD =  0.01171   =>   CDf =  0.00682    CDp =  0.00490

 Side 1  free  transition at x/c =  0.8711   67
 Side 2  free  transition at x/c =  0.0521   24

   6   rms: 0.9367E-01   max: -.8118E+00   C at   24  2   RLX: 0.616
       a = -4.000      CL = -0.1885
      Cm = -0.0511     CD =  0.01157   =>   CDf =  0.00679    CDp =  0.00478

 Side 1  free  transition at x/c =  0.8698   67
 Side 2  free  transition at x/c =  0.0676   25

   7   rms: 0.4020E-01   max: -.4656E+00   T at   25  2
       a = -4.000      CL = -0.1812
      Cm = -0.0519     CD =  0.01153   =>   CDf =  0.00677    CDp =  0.00476

 MRCHDU: Convergence failed at  26  side 2    Res =  0.5750E+01
 MRCHDU: Convergence failed at  27  side 2    Res =  0.1275E+01
 MRCHDU: Convergence failed at  28  side 2    Res =  0.1678E+01
 MRCHDU: Convergence failed at  29  side 2    Res =  0.1560E+01
 MRCHDU: Convergence failed at  30  side 2    Res =  0.1483E+01
 MRCHDU: Convergence failed at  31  side 2    Res =  0.1335E+01
 MRCHDU: Convergence failed at  32  side 2    Res =  0.1508E+01
 MRCHDU: Convergence failed at  33  side 2    Res =  0.1675E+01
 MRCHDU: Convergence failed at  34  side 2    Res =  0.1831E+01
 MRCHDU: Convergence failed at  35  side 2    Res =  0.2000E+01
 MRCHDU: Convergence failed at  36  side 2    Res =  0.2186E+01
 MRCHDU: Convergence failed at  37  side 2    Res =  0.2370E+01
 MRCHDU: Convergence failed at  38  side 2    Res =  0.2536E+01
 MRCHDU: Convergence failed at  39  side 2    Res =  0.2716E+01
 MRCHDU: Convergence failed at  40  side 2    Res =  0.2906E+01
 MRCHDU: Convergence failed at  41  side 2    Res =  0.3095E+01
 MRCHDU: Convergence failed at  42  side 2    Res =  0.3282E+01
 MRCHDU: Convergence failed at  43  side 2    Res =  0.3460E+01
 MRCHDU: Convergence failed at  44  side 2    Res =  0.3630E+01
 MRCHDU: Convergence failed at  45  side 2    Res =  0.3805E+01
 MRCHDU: Convergence failed at  46  side 2    Res =  0.3998E+01
 MRCHDU: Convergence failed at  47  side 2    Res =  0.4236E+01
 MRCHDU: Convergence failed at  48  side 2    Res =  0.4480E+01
 MRCHDU: Convergence failed at  49  side 2    Res =  0.4692E+01
 MRCHDU: Convergence failed at  50  side 2    Res =  0.4865E+01
 MRCHDU: Convergence failed at  51  side 2    Res =  0.5059E+01
 MRCHDU: Convergence failed at  52  side 2    Res =  0.5271E+01
 MRCHDU: Convergence failed at  53  side 2    Res =  0.5479E+01
 MRCHDU: Convergence failed at  54  side 2    Res =  0.5693E+01
 MRCHDU: Convergence failed at  55  side 2    Res =  0.5888E+01
 MRCHDU: Convergence failed at  56  side 2    Res =  0.6093E+01
 MRCHDU: Convergence failed at  57  side 2    Res =  0.6321E+01
 MRCHDU: Convergence failed at  58  side 2    Res =  0.6598E+01
 MRCHDU: Convergence failed at  59  side 2    Res =  0.6996E+01
 MRCHDU: Convergence failed at  60  side 2    Res =  0.7467E+01
 MRCHDU: Convergence failed at  61  side 2    Res =  0.8023E+01
 MRCHDU: Convergence failed at  62  side 2    Res =  0.8686E+01
 MRCHDU: Convergence failed at  63  side 2    Res =  0.9582E+01
 MRCHDU: Convergence failed at  64  side 2    Res =  0.1174E+02
 MRCHDU: Convergence failed at  65  side 2    Res =  0.1389E+02
 MRCHDU: Convergence failed at  66  side 2    Res =  0.1707E+02
 MRCHDU: Convergence failed at  67  side 2    Res =  0.2228E+02
 MRCHDU: Convergence failed at  68  side 2    Res =  0.3366E+02
 MRCHDU: Convergence failed at  69  side 2    Res =  0.7179E+02
 MRCHDU: Convergence failed at  70  side 2    Res =  0.4572E+03
 MRCHDU: Convergence failed at  71  side 2    Res =  0.6223E+02
 MRCHDU: Convergence failed at  72  side 2    Res =  0.3349E+02
 MRCHDU: Convergence failed at  73  side 2    Res =  0.2325E+02
 MRCHDU: Convergence failed at  74  side 2    Res =  0.1802E+02
 MRCHDU: Convergence failed at  75  side 2    Res =  0.1522E+02
 MRCHDU: Convergence failed at  76  side 2    Res =  0.1312E+02
 MRCHDU: Convergence failed at  77  side 2    Res =  0.1158E+02
 MRCHDU: Convergence failed at  78  side 2    Res =  0.1036E+02
 MRCHDU: Convergence failed at  79  side 2    Res =  0.9483E+01
 MRCHDU: Convergence failed at  80  side 2    Res =  0.8576E+01
 MRCHDU: Convergence failed at  81  side 2    Res =  0.7906E+01
 MRCHDU: Convergence failed at  82  side 2    Res =  0.7268E+01
 MRCHDU: Convergence failed at  83  side 2    Res =  0.6459E+01
 MRCHDU: Convergence failed at  84  side 2    Res =  0.6681E+01
 MRCHDU: Convergence failed at  85  side 2    Res =  0.7996E+01
 MRCHDU: Convergence failed at  86  side 2    Res =  0.2374E+03
 Side 1  free  transition at x/c =  0.8685   67
 Side 2 forced transition at x/c =  1.0000   86

   8   rms: 0.4604E+00   max: -.5827E+00   U at   86  2   RLX: 0.644
       a = -4.000      CL = -0.4635
      Cm =  0.0424     CD =  0.00553   =>   CDf =  0.00682    CDp = -0.00129

 Side 1  free  transition at x/c =  0.8673   67
 Side 2  free  transition at x/c =  0.1821   33

   9   rms: 0.2032E+00   max: 0.1897E+01   C at   33  2   RLX: 0.791
       a = -4.000      CL = -0.2500
      Cm = -0.0319     CD =  0.00983   =>   CDf =  0.00749    CDp =  0.00234

 Side 1  free  transition at x/c =  0.8675   67
 Side 2  free  transition at x/c =  0.1147   29

  10   rms: 0.4577E-01   max: 0.7502E-01   D at   93  2
       a = -4.000      CL = -0.1839
      Cm = -0.0517     CD =  0.01112   =>   CDf =  0.00678    CDp =  0.00433

 Side 1  free  transition at x/c =  0.8682   67
 Side 2  free  transition at x/c =  0.1129   29

  11   rms: 0.5406E-02   max: 0.9969E-01   C at   29  2
       a = -4.000      CL = -0.1832
      Cm = -0.0518     CD =  0.01121   =>   CDf =  0.00653    CDp =  0.00469

 Side 1  free  transition at x/c =  0.8682   67
 Side 2  free  transition at x/c =  0.1097   29

  12   rms: 0.1786E-03   max: -.2785E-02   C at   29  2
       a = -4.000      CL = -0.1832
      Cm = -0.0518     CD =  0.01121   =>   CDf =  0.00655    CDp =  0.00467

 Side 1  free  transition at x/c =  0.8682   67
 Side 2  free  transition at x/c =  0.1098   29

  13   rms: 0.1567E-05   max: 0.8680E-05   C at   29  2
       a = -4.000      CL = -0.1832
      Cm = -0.0518     CD =  0.01121   =>   CDf =  0.00655    CDp =  0.00467
 plradd ia,ip,cpol            1           0  1.02626148E-03

 Point added to stored polar  1
 Point written to save file  s8055_Re400k.base.pol                           
 Dump file unspecified or not available
 Calculating wake trajectory ...
 Calculating source influence matrix ...

 Solving BL system ...

 Side 1  free  transition at x/c =  0.8682   67
 Side 2  free  transition at x/c =  0.1098   29

   1   rms: 0.2264E+00   max: -.3418E+01   C at   29  2   RLX: 0.146
       a = -3.500      CL = -0.1768
      Cm = -0.0515     CD =  0.01103   =>   CDf =  0.00655    CDp =  0.00448

 Side 1  free  transition at x/c =  0.8673   67
 Side 2  free  transition at x/c =  0.1216   29

   2   rms: 0.8959E-01   max: -.5164E+00   T at   29  2   RLX: 0.968
       a = -3.500      CL = -0.1334
      Cm = -0.0508     CD =  0.01090   =>   CDf =  0.00659    CDp =  0.00431

 MRCHDU: Convergence failed at  30  side 2    Res =  0.2092E+01
 MRCHDU: Convergence failed at  31  side 2    Res =  0.1567E+01
 MRCHDU: Convergence failed at  32  side 2    Res =  0.2161E+01
 MRCHDU: Convergence failed at  33  side 2    Res =  0.2391E+01
 MRCHDU: Convergence failed at  34  side 2    Res =  0.2522E+01
 MRCHDU: Convergence failed at  35  side 2    Res =  0.2545E+01
 MRCHDU: Convergence failed at  36  side 2    Res =  0.2392E+01
 MRCHDU: Convergence failed at  37  side 2    Res =  0.2387E+01
 MRCHDU: Convergence failed at  38  side 2    Res =  0.2346E+01
 MRCHDU: Convergence failed at  39  side 2    Res =  0.2850E+01
 MRCHDU: Convergence failed at  40  side 2    Res =  0.2662E+01
 MRCHDU: Convergence failed at  41  side 2    Res =  0.2511E+01
 MRCHDU: Convergence failed at  42  side 2    Res =  0.2402E+01
 MRCHDU: Convergence failed at  43  side 2    Res =  0.2320E+01
 MRCHDU: Convergence failed at  44  side 2    Res =  0.2259E+01
 MRCHDU: Convergence failed at  45  side 2    Res =  0.2210E+01
 MRCHDU: Convergence failed at  46  side 2    Res =  0.2171E+01
 MRCHDU: Convergence failed at  47  side 2    Res =  0.2141E+01
 MRCHDU: Convergence failed at  48  side 2    Res =  0.2117E+01
 MRCHDU: Convergence failed at  49  side 2    Res =  0.2104E+01
 MRCHDU: Convergence failed at  50  side 2    Res =  0.1422E+01
 MRCHDU: Convergence failed at  51  side 2    Res =  0.1484E+01
 MRCHDU: Convergence failed at  52  side 2    Res =  0.1545E+01
 MRCHDU: Convergence failed at  53  side 2    Res =  0.1607E+01
 MRCHDU: Convergence failed at  54  side 2    Res =  0.1670E+01
 MRCHDU: Convergence failed at  55  side 2    Res =  0.1735E+01
 MRCHDU: Convergence failed at  56  side 2    Res =  0.1806E+01
 MRCHDU: Convergence failed at  57  side 2    Res =  0.1884E+01
 MRCHDU: Convergence failed at  58  side 2    Res =  0.1975E+01
 MRCHDU: Convergence failed at  59  side 2    Res =  0.2073E+01
 MRCHDU: Convergence failed at  60  side 2    Res =  0.2181E+01
 MRCHDU: Convergence failed at  61  side 2    Res =  0.2301E+01
 MRCHDU: Convergence failed at  62  side 2    Res =  0.2442E+01
 MRCHDU: Convergence failed at  63  side 2    Res =  0.2683E+01
 MRCHDU: Convergence failed at  64  side 2    Res =  0.2880E+01
 MRCHDU: Convergence failed at  65  side 2    Res =  0.3105E+01
 MRCHDU: Convergence failed at  66  side 2    Res =  0.3369E+01
 MRCHDU: Convergence failed at  67  side 2    Res =  0.3677E+01
 MRCHDU: Convergence failed at  68  side 2    Res =  0.4038E+01
 MRCHDU: Convergence failed at  69  side 2    Res =  0.4465E+01
 MRCHDU: Convergence failed at  70  side 2    Res =  0.5037E+01
 MRCHDU: Convergence failed at  71  side 2    Res =  0.5716E+01
 MRCHDU: Convergence failed at  72  side 2    Res =  0.6412E+01
 MRCHDU: Convergence failed at  73  side 2    Res =  0.7325E+01
 MRCHDU: Convergence failed at  74  side 2    Res =  0.8423E+01
 MRCHDU: Convergence failed at  75  side 2    Res =  0.9582E+01
 MRCHDU: Convergence failed at  76  side 2    Res =  0.1123E+02
 MRCHDU: Convergence failed at  77  side 2    Res =  0.1308E+02
 MRCHDU: Convergence failed at  78  side 2    Res =  0.1595E+02
 MRCHDU: Convergence failed at  79  side 2    Res =  0.2093E+02
 MRCHDU: Convergence failed at  80  side 2    Res =  0.2766E+02
 MRCHDU: Convergence failed at  81  side 2    Res =  0.4692E+02
 MRCHDU: Convergence failed at  82  side 2    Res =  0.1418E+04
 MRCHDU: Convergence failed at  83  side 2    Res =  0.3139E+02
 MRCHDU: Convergence failed at  84  side 2    Res =  0.1569E+02
 MRCHDU: Convergence failed at  85  side 2    Res =  0.1074E+02
 Side 1  free  transition at x/c =  0.8625   67
 Side 2  free  transition at x/c =  0.2743   38

   3   rms: 0.3886E+00   max: 0.5029E+00   D at   86  2   RLX: 0.720
       a = -3.500      CL = -0.2553
      Cm = -0.0029     CD =  0.00659   =>   CDf =  0.00379    CDp =  0.00279

 Side 1  free  transition at x/c =  0.8607   67
 Side 2  free  transition at x/c =  0.3457   43

   4   rms: 0.1603E+00   max: 0.2144E+01   C at   43  2   RLX: 0.700
       a = -3.500      CL = -0.1780
      Cm = -0.0357     CD =  0.00936   =>   CDf =  0.00624    CDp =  0.00312

 Side 1  free  transition at x/c =  0.8593   67
 Side 2  free  transition at x/c =  0.2532   37

   5   rms: 0.3747E-01   max: 0.6493E-01   D at   86  2
       a = -3.500      CL = -0.1374
      Cm = -0.0504     CD =  0.01019   =>   CDf =  0.00616    CDp =  0.00402

 Side 1  free  transition at x/c =  0.8594   67
 Side 2  free  transition at x/c =  0.2436   36

   6   rms: 0.3078E-02   max: -.5957E-01   C at   36  2
       a = -3.500      CL = -0.1365
      Cm = -0.0506     CD =  0.01026   =>   CDf =  0.00601    CDp =  0.00425

 Side 1  free  transition at x/c =  0.8595   67
 Side 2  free  transition at x/c =  0.2450   36

   7   rms: 0.2625E-04   max: -.5025E-03   D at   38  2
       a = -3.500      CL = -0.1365
      Cm = -0.0506     CD =  0.01026   =>   CDf =  0.00600    CDp =  0.00425
 plradd ia,ip,cpol            2           0  2.15730420E-03

 Point added to stored polar  1
 Point written to save file  s8055_Re400k.base.pol                           
 Dump file unspecified or not available
 Calculating wake trajectory ...
 Calculating source influence matrix ...

 Solving BL system ...

 Side 1  free  transition at x/c =  0.8595   67
 Side 2  free  transition at x/c =  0.2450   36

   1   rms: 0.2368E+00   max: -.4618E+01   C at   36  2   RLX: 0.108
       a = -3.000      CL = -0.1314
      Cm = -0.0504     CD =  0.01017   =>   CDf =  0.00600    CDp =  0.00417

 Side 1  free  transition at x/c =  0.8585   67
 Side 2  free  transition at x/c =  0.2677   38

   2   rms: 0.2736E+00   max: -.5308E+01   C at   38  2   RLX: 0.094
       a = -3.000      CL = -0.1281
      Cm = -0.0503     CD =  0.01001   =>   CDf =  0.00591    CDp =  0.00411

 Side 1  free  transition at x/c =  0.8577   67
 Side 2  free  transition at x/c =  0.2823   39

   3   rms: 0.2329E+00   max: -.4410E+01   C at   39  2   RLX: 0.113
       a = -3.000      CL = -0.1238
      Cm = -0.0501     CD =  0.00992   =>   CDf =  0.00585    CDp =  0.00407

 Side 1  free  transition at x/c =  0.8569   67
 Side 2  free  transition at x/c =  0.2988   40

   4   rms: 0.2016E+00   max: -.3792E+01   C at   40  2   RLX: 0.132
       a = -3.000      CL = -0.1193
      Cm = -0.0500     CD =  0.00983   =>   CDf =  0.00579    CDp =  0.00404

 Side 1  free  transition at x/c =  0.8562   67
 Side 2  free  transition at x/c =  0.3169   41

   5   rms: 0.1704E+00   max: -.3216E+01   C at   41  2   RLX: 0.155
       a = -3.000      CL = -0.1148
      Cm = -0.0498     CD =  0.00973   =>   CDf =  0.00572    CDp =  0.00401

 Side 1  free  transition at x/c =  0.8554   67
 Side 2  free  transition at x/c =  0.3372   42

   6   rms: 0.1247E+00   max: -.2298E+01   C at   42  2   RLX: 0.218
       a = -3.000      CL = -0.1095
      Cm = -0.0496     CD =  0.00963   =>   CDf =  0.00565    CDp =  0.00398

 Side 1  free  transition at x/c =  0.8545   67
 Side 2  free  transition at x/c =  0.3676   44

   7   rms: 0.1132E+00   max: -.2133E+01   C at   44  2   RLX: 0.234
       a = -3.000      CL = -0.1060
      Cm = -0.0493     CD =  0.00946   =>   CDf =  0.00553    CDp =  0.00394

 Side 1  free  transition at x/c =  0.8538   67
 Side 2  free  transition at x/c =  0.3907   46

   8   rms: 0.9122E-01   max: -.1666E+01   C at   46  2   RLX: 0.300
       a = -3.000      CL = -0.1024
      Cm = -0.0491     CD =  0.00932   =>   CDf =  0.00544    CDp =  0.00388

 Side 1  free  transition at x/c =  0.8531   67
 Side 2  free  transition at x/c =  0.4040   47

   9   rms: 0.6441E-01   max: -.1115E+01   C at   47  2   RLX: 0.449
       a = -3.000      CL = -0.0978
      Cm = -0.0489     CD =  0.00924   =>   CDf =  0.00543    CDp =  0.00381

 Side 1  free  transition at x/c =  0.8524   67
 Side 2  free  transition at x/c =  0.4189   47

  10   rms: 0.3360E-01   max: -.6248E+00   C at   47  2   RLX: 0.800
       a = -3.000      CL = -0.0930
      Cm = -0.0488     CD =  0.00921   =>   CDf =  0.00537    CDp =  0.00384

 Side 1  free  transition at x/c =  0.8518   67
 Side 2  free  transition at x/c =  0.4501   49

  11   rms: 0.7488E-02   max: -.1335E+00   C at   49  2
       a = -3.000      CL = -0.0928
      Cm = -0.0486     CD =  0.00912   =>   CDf =  0.00526    CDp =  0.00386

 Side 1  free  transition at x/c =  0.8516   67
 Side 2  free  transition at x/c =  0.4533   50

  12   rms: 0.1308E-02   max: -.2242E-01   C at   50  2
       a = -3.000      CL = -0.0929
      Cm = -0.0486     CD =  0.00911   =>   CDf =  0.00523    CDp =  0.00388

 Side 1  free  transition at x/c =  0.8516   67
 Side 2  free  transition at x/c =  0.4532   50

  13   rms: 0.1596E-04   max: -.2857E-03   C at   50  2
       a = -3.000      CL = -0.0929
      Cm = -0.0486     CD =  0.00911   =>   CDf =  0.00523    CDp =  0.00388
 plradd ia,ip,cpol            3           0  2.15730420E-03

 Point added to stored polar  1
 Point written to save file  s8055_Re400k.base.pol                           
 Dump file unspecified or not available
 Calculating wake trajectory ...
 Calculating source influence matrix ...

 Solving BL system ...

 Side 1  free  transition at x/c =  0.8516   67
 Side 2  free  transition at x/c =  0.4532   50

   1   rms: 0.2725E+00   max: -.4876E+01   C at   50  2   RLX: 0.103
       a = -2.500      CL = -0.0886
      Cm = -0.0483     CD =  0.00900   =>   CDf =  0.00523    CDp =  0.00377

 Side 1  free  transition at x/c =  0.8510   66
 Side 2  free  transition at x/c =  0.4673   51

   2   rms: 0.2216E+00   max: -.3823E+01   C at   51  2   RLX: 0.131
       a = -2.500      CL = -0.0830
      Cm = -0.0483     CD =  0.00893   =>   CDf =  0.00520    CDp =  0.00372

 Side 1  free  transition at x/c =  0.8497   66
 Side 2  free  transition at x/c =  0.4827   51

   3   rms: 0.1464E+00   max: -.2506E+01   C at   51  2   RLX: 0.200
       a = -2.500      CL = -0.0749
      Cm = -0.0482     CD =  0.00890   =>   CDf =  0.00520    CDp =  0.00370

 Side 1  free  transition at x/c =  0.8480   67
 Side 2  free  transition at x/c =  0.5138   52

   4   rms: 0.1149E+00   max: -.1659E+01   C at   52  2   RLX: 0.301
       a = -2.500      CL = -0.0660
      Cm = -0.0479     CD =  0.00875   =>   CDf =  0.00503    CDp =  0.00373

 Side 1  free  transition at x/c =  0.8461   67
 Side 2  free  transition at x/c =  0.5667   56

   5   rms: 0.1220E+00   max: -.2179E+01   C at   56  2   RLX: 0.229
       a = -2.500      CL = -0.0638
      Cm = -0.0470     CD =  0.00851   =>   CDf =  0.00482    CDp =  0.00369

 Side 1  free  transition at x/c =  0.8451   67
 Side 2  free  transition at x/c =  0.5802   57

   6   rms: 0.8807E-01   max: -.1544E+01   C at   57  2   RLX: 0.324
       a = -2.500      CL = -0.0590
      Cm = -0.0468     CD =  0.00844   =>   CDf =  0.00477    CDp =  0.00368

 Side 1  free  transition at x/c =  0.8440   67
 Side 2  free  transition at x/c =  0.5955   58

   7   rms: 0.6433E-01   max: -.1123E+01   C at   58  2   RLX: 0.445
       a = -2.500      CL = -0.0545
      Cm = -0.0467     CD =  0.00838   =>   CDf =  0.00472    CDp =  0.00366

 Side 1  free  transition at x/c =  0.8431   67
 Side 2  free  transition at x/c =  0.6109   59

   8   rms: 0.4495E-01   max: -.7856E+00   C at   59  2   RLX: 0.636
       a = -2.500      CL = -0.0511
      Cm = -0.0464     CD =  0.00832   =>   CDf =  0.00468    CDp =  0.00365

 Side 1  free  transition at x/c =  0.8424   67
 Side 2  free  transition at x/c =  0.6262   60

   9   rms: 0.2594E-01   max: -.4553E+00   C at   60  2
       a = -2.500      CL = -0.0494
      Cm = -0.0461     CD =  0.00828   =>   CDf =  0.00462    CDp =  0.00366

 Side 1  free  transition at x/c =  0.8421   67
 Side 2  free  transition at x/c =  0.6411   60

  10   rms: 0.6593E-02   max: -.1156E+00   C at   60  2
       a = -2.500      CL = -0.0489
      Cm = -0.0462     CD =  0.00832   =>   CDf =  0.00456    CDp =  0.00376

 Side 1  free  transition at x/c =  0.8421   67
 Side 2  free  transition at x/c =  0.6462   61

  11   rms: 0.1936E-02   max: 0.3235E-01   C at   61  2
       a = -2.500      CL = -0.0491
      Cm = -0.0462     CD =  0.00831   =>   CDf =  0.00451    CDp =  0.00380

 Side 1  free  transition at x/c =  0.8421   67
 Side 2  free  transition at x/c =  0.6450   61

  12   rms: 0.1676E-04   max: -.2437E-03   D at   64  2
       a = -2.500      CL = -0.0491
      Cm = -0.0462     CD =  0.00831   =>   CDf =  0.00452    CDp =  0.00379
 plradd ia,ip,cpol            4           0  2.15730420E-03

 Point added to stored polar  1
 Point written to save file  s8055_Re400k.base.pol                           
 Dump file unspecified or not available
 Calculating wake trajectory ...
 Calculating source influence matrix ...

 Solving BL system ...

 Side 1  free  transition at x/c =  0.8421   67
 Side 2  free  transition at x/c =  0.6450   61

   1   rms: 0.1802E+00   max: -.2831E+01   C at   61  2   RLX: 0.177
       a = -2.000      CL = -0.0411
      Cm = -0.0457     CD =  0.00822   =>   CDf =  0.00452    CDp =  0.00370

 Side 1  free  transition at x/c =  0.8406   67
 Side 2  free  transition at x/c =  0.6657   62

   2   rms: 0.9443E-01   max: -.9173E+00   C at   62  2   RLX: 0.545
       a = -2.000      CL = -0.0178
      Cm = -0.0452     CD =  0.00819   =>   CDf =  0.00448    CDp =  0.00371

 Side 1  free  transition at x/c =  0.8369   67
 Side 2  free  transition at x/c =  0.7311   66

   3   rms: 0.3891E-01   max: 0.2093E+00   D at   63  2
       a = -2.000      CL =  0.0013
      Cm = -0.0444     CD =  0.00818   =>   CDf =  0.00437    CDp =  0.00381

 Side 1  free  transition at x/c =  0.8349   67
 Side 2  free  transition at x/c =  0.7545   67

   4   rms: 0.2174E-01   max: 0.3027E+00   C at   67  2
       a = -2.000      CL =  0.0014
      Cm = -0.0444     CD =  0.00815   =>   CDf =  0.00430    CDp =  0.00386

 Side 1  free  transition at x/c =  0.8345   67
 Side 2  free  transition at x/c =  0.7453   66

   5   rms: 0.3965E-02   max: -.5351E-01   D at   69  2
       a = -2.000      CL =  0.0011
      Cm = -0.0443     CD =  0.00815   =>   CDf =  0.00434    CDp =  0.00381

 Side 1  free  transition at x/c =  0.8345   67
 Side 2  free  transition at x/c =  0.7425   66

   6   rms: 0.3596E-03   max: -.5171E-02   C at   66  2
       a = -2.000      CL =  0.0011
      Cm = -0.0443     CD =  0.00816   =>   CDf =  0.00435    CDp =  0.00380

 Side 1  free  transition at x/c =  0.8345   67
 Side 2  free  transition at x/c =  0.7427   66

   7   rms: 0.1611E-05   max: -.1164E-04   C at   66  2
       a = -2.000      CL =  0.0011
      Cm = -0.0443     CD =  0.00816   =>   CDf =  0.00435    CDp =  0.00381
 plradd ia,ip,cpol            5           0  2.15730420E-03

 Point added to stored polar  1
 Point written to save file  s8055_Re400k.base.pol                           
 Dump file unspecified or not available
 Calculating wake trajectory ...
 Calculating source influence matrix ...

 Solving BL system ...

 Side 1  free  transition at x/c =  0.8345   67
 Side 2  free  transition at x/c =  0.7427   66

   1   rms: 0.1005E+00   max: -.5349E+00   C at   66  2   RLX: 0.935
       a = -1.500      CL =  0.0482
      Cm = -0.0429     CD =  0.00813   =>   CDf =  0.00435    CDp =  0.00378

 Side 1  free  transition at x/c =  0.8210   67
 Side 2  free  transition at x/c =  0.7747   68

   2   rms: 0.3058E-01   max: -.2796E+00   D at   68  1
       a = -1.500      CL =  0.0531
      Cm = -0.0429     CD =  0.00812   =>   CDf =  0.00441    CDp =  0.00371

 Side 1  free  transition at x/c =  0.8240   67
 Side 2  free  transition at x/c =  0.7899   69

   3   rms: 0.2050E-02   max: 0.2540E-01   D at   70  2
       a = -1.500      CL =  0.0530
      Cm = -0.0428     CD =  0.00813   =>   CDf =  0.00432    CDp =  0.00380

 Side 1  free  transition at x/c =  0.8241   67
 Side 2  free  transition at x/c =  0.7897   69

   4   rms: 0.4527E-04   max: 0.5577E-03   C at   69  2
       a = -1.500      CL =  0.0530
      Cm = -0.0428     CD =  0.00813   =>   CDf =  0.00432    CDp =  0.00380
 plradd ia,ip,cpol            6           0  2.15730420E-03

 Point added to stored polar  1
 Point written to save file  s8055_Re400k.base.pol                           
 Dump file unspecified or not available
 Calculating wake trajectory ...
 Calculating source influence matrix ...

 Solving BL system ...

 Side 1  free  transition at x/c =  0.8241   67
 Side 2  free  transition at x/c =  0.7897   69

   1   rms: 0.9242E-01   max: 0.4037E+00   D at   70  2
       a = -1.000      CL =  0.1055
      Cm = -0.0412     CD =  0.00805   =>   CDf =  0.00435    CDp =  0.00370

 Side 1  free  transition at x/c =  0.8154   67
 Side 2  free  transition at x/c =  0.8125   69

   2   rms: 0.2303E-01   max: -.2233E+00   D at   70  2
       a = -1.000      CL =  0.1055
      Cm = -0.0416     CD =  0.00814   =>   CDf =  0.00445    CDp =  0.00369

 Side 1  free  transition at x/c =  0.8135   67
 Side 2  free  transition at x/c =  0.8277   70

   3   rms: 0.2040E-01   max: 0.2894E+00   C at   70  2
       a = -1.000      CL =  0.1055
      Cm = -0.0415     CD =  0.00808   =>   CDf =  0.00429    CDp =  0.00379

 Side 1  free  transition at x/c =  0.8137   67
 Side 2  free  transition at x/c =  0.8235   70

   4   rms: 0.3666E-02   max: -.5038E-01   D at   73  2
       a = -1.000      CL =  0.1055
      Cm = -0.0415     CD =  0.00811   =>   CDf =  0.00434    CDp =  0.00377

 Side 1  free  transition at x/c =  0.8137   67
 Side 2  free  transition at x/c =  0.8220   70

   5   rms: 0.1461E-03   max: -.2347E-02   D at   73  2
       a = -1.000      CL =  0.1055
      Cm = -0.0415     CD =  0.00811   =>   CDf =  0.00435    CDp =  0.00376

 Side 1  free  transition at x/c =  0.8137   67
 Side 2  free  transition at x/c =  0.8220   70

   6   rms: 0.9168E-06   max: -.5833E-05   D at   73  2
       a = -1.000      CL =  0.1055
      Cm = -0.0415     CD =  0.00811   =>   CDf =  0.00435    CDp =  0.00376
 plradd ia,ip,cpol            7           0  0.23448050    

 Point added to stored polar  1
 Point written to save file  s8055_Re400k.base.pol                           
 Dump file unspecified or not available
 Calculating wake trajectory ...
 Calculating source influence matrix ...

 Solving BL system ...

 Side 1  free  transition at x/c =  0.8137   67
 Side 2  free  transition at x/c =  0.8220   70

   1   rms: 0.8659E-01   max: -.3945E+00   T at   70  2
       a = -0.500      CL =  0.1573
      Cm = -0.0399     CD =  0.00806   =>   CDf =  0.00437    CDp =  0.00369

 Side 1  free  transition at x/c =  0.8012   67
 Side 2  free  transition at x/c =  0.8422   70

   2   rms: 0.2115E-01   max: -.1489E+00   D at   68  1
       a = -0.500      CL =  0.1586
      Cm = -0.0402     CD =  0.00805   =>   CDf =  0.00445    CDp =  0.00360

 Side 1  free  transition at x/c =  0.8037   67
 Side 2  free  transition at x/c =  0.8483   71

   3   rms: 0.4763E-02   max: -.4867E-01   D at   70  2
       a = -0.500      CL =  0.1587
      Cm = -0.0402     CD =  0.00806   =>   CDf =  0.00445    CDp =  0.00360

 Side 1  free  transition at x/c =  0.8037   67
 Side 2  free  transition at x/c =  0.8485   71

   4   rms: 0.2576E-03   max: -.2928E-02   D at   73  2
       a = -0.500      CL =  0.1587
      Cm = -0.0402     CD =  0.00806   =>   CDf =  0.00443    CDp =  0.00363

 Side 1  free  transition at x/c =  0.8037   67
 Side 2  free  transition at x/c =  0.8485   71

   5   rms: 0.2442E-05   max: -.2752E-04   C at   67  1
       a = -0.500      CL =  0.1587
      Cm = -0.0402     CD =  0.00806   =>   CDf =  0.00443    CDp =  0.00363
 plradd ia,ip,cpol            8           0  0.16040158    

 Point added to stored polar  1
 Point written to save file  s8055_Re400k.base.pol                           
 Dump file unspecified or not available
 Calculating wake trajectory ...
 Calculating source influence matrix ...

 Solving BL system ...

 Side 1  free  transition at x/c =  0.8037   67
 Side 2  free  transition at x/c =  0.8485   71

   1   rms: 0.9136E-01   max: -.3806E+00   T at   71  2
       a =  0.000      CL =  0.2089
      Cm = -0.0386     CD =  0.00791   =>   CDf =  0.00443    CDp =  0.00348

 Side 1  free  transition at x/c =  0.7828   66
 Side 2  free  transition at x/c =  0.8638   72

   2   rms: 0.5426E-01   max: -.4371E+00   D at   68  1
       a =  0.000      CL =  0.2096
      Cm = -0.0385     CD =  0.00784   =>   CDf =  0.00454    CDp =  0.00329

 Side 1  free  transition at x/c =  0.7921   67
 Side 2  free  transition at x/c =  0.8731   72

   3   rms: 0.1531E-01   max: 0.1656E+00   D at   67  1
       a =  0.000      CL =  0.2109
      Cm = -0.0387     CD =  0.00793   =>   CDf =  0.00441    CDp =  0.00352

 Side 1  free  transition at x/c =  0.7901   67
 Side 2  free  transition at x/c =  0.8702   72

   4   rms: 0.1578E-02   max: -.1580E-01   D at   73  2
       a =  0.000      CL =  0.2107
      Cm = -0.0386     CD =  0.00795   =>   CDf =  0.00443    CDp =  0.00352

 Side 1  free  transition at x/c =  0.7899   67
 Side 2  free  transition at x/c =  0.8706   72

   5   rms: 0.1960E-04   max: -.1744E-03   D at   69  1
       a =  0.000      CL =  0.2107
      Cm = -0.0386     CD =  0.00795   =>   CDf =  0.00443    CDp =  0.00352
 plradd ia,ip,cpol            9           0  0.14612429    

 Point added to stored polar  1
 Point written to save file  s8055_Re400k.base.pol                           
 Dump file unspecified or not available
 Calculating wake trajectory ...
 Calculating source influence matrix ...

 Solving BL system ...

 Side 1  free  transition at x/c =  0.7899   67
 Side 2  free  transition at x/c =  0.8706   72

   1   rms: 0.8722E-01   max: -.3418E+00   T at   72  2
       a =  0.500      CL =  0.2641
      Cm = -0.0372     CD =  0.00783   =>   CDf =  0.00443    CDp =  0.00340

 Side 1  free  transition at x/c =  0.7790   67
 Side 2  free  transition at x/c =  0.8872   72

   2   rms: 0.1588E-01   max: -.1456E+00   D at   67  1
       a =  0.500      CL =  0.2622
      Cm = -0.0371     CD =  0.00784   =>   CDf =  0.00444    CDp =  0.00341

 Side 1  free  transition at x/c =  0.7743   67
 Side 2  free  transition at x/c =  0.8911   72

   3   rms: 0.5060E-02   max: -.5361E-01   D at   67  1
       a =  0.500      CL =  0.2627
      Cm = -0.0372     CD =  0.00783   =>   CDf =  0.00447    CDp =  0.00337

 Side 1  free  transition at x/c =  0.7754   67
 Side 2  free  transition at x/c =  0.8912   72

   4   rms: 0.1377E-03   max: -.1920E-02   D at   69  1
       a =  0.500      CL =  0.2627
      Cm = -0.0372     CD =  0.00784   =>   CDf =  0.00445    CDp =  0.00339

 Side 1  free  transition at x/c =  0.7753   67
 Side 2  free  transition at x/c =  0.8911   72

   5   rms: 0.7612E-06   max: 0.5105E-05   D at   80  2
       a =  0.500      CL =  0.2627
      Cm = -0.0372     CD =  0.00784   =>   CDf =  0.00445    CDp =  0.00339
 plradd ia,ip,cpol           10           0  0.10505195    

 Point added to stored polar  1
 Point written to save file  s8055_Re400k.base.pol                           
 Dump file unspecified or not available
 Calculating wake trajectory ...
 Calculating source influence matrix ...

 Solving BL system ...

 Side 1  free  transition at x/c =  0.7753   67
 Side 2  free  transition at x/c =  0.8911   72

   1   rms: 0.8561E-01   max: -.3259E+00   T at   72  2
       a =  1.000      CL =  0.3152
      Cm = -0.0358     CD =  0.00770   =>   CDf =  0.00445    CDp =  0.00325

 Side 1  free  transition at x/c =  0.7623   67
 Side 2  free  transition at x/c =  0.9107   73

   2   rms: 0.1511E-01   max: -.1599E+00   D at   67  1
       a =  1.000      CL =  0.3143
      Cm = -0.0357     CD =  0.00772   =>   CDf =  0.00447    CDp =  0.00324

 Side 1  free  transition at x/c =  0.7586   67
 Side 2  free  transition at x/c =  0.9116   73

   3   rms: 0.3747E-02   max: -.4350E-01   D at   67  1
       a =  1.000      CL =  0.3144
      Cm = -0.0357     CD =  0.00772   =>   CDf =  0.00448    CDp =  0.00323

 Side 1  free  transition at x/c =  0.7594   67
 Side 2  free  transition at x/c =  0.9110   73

   4   rms: 0.1170E-03   max: -.1315E-02   D at   69  1
       a =  1.000      CL =  0.3144
      Cm = -0.0357     CD =  0.00772   =>   CDf =  0.00448    CDp =  0.00324

 Side 1  free  transition at x/c =  0.7594   67
 Side 2  free  transition at x/c =  0.9110   73

   5   rms: 0.5473E-06   max: -.4007E-05   D at   75  2
       a =  1.000      CL =  0.3144
      Cm = -0.0357     CD =  0.00772   =>   CDf =  0.00448    CDp =  0.00324
 plradd ia,ip,cpol           11           0  0.10505195    

 Point added to stored polar  1
 Point written to save file  s8055_Re400k.base.pol                           
 Dump file unspecified or not available
 Calculating wake trajectory ...
 Calculating source influence matrix ...

 Solving BL system ...

 Side 1  free  transition at x/c =  0.7594   67
 Side 2  free  transition at x/c =  0.9110   73

   1   rms: 0.9011E-01   max: -.3411E+00   T at   73  2
       a =  1.500      CL =  0.3703
      Cm = -0.0348     CD =  0.00752   =>   CDf =  0.00448    CDp =  0.00304

 Side 1  free  transition at x/c =  0.7435   66
 Side 2  free  transition at x/c =  0.9243   73

   2   rms: 0.2911E-01   max: -.2964E+00   D at   74  2
       a =  1.500      CL =  0.3639
      Cm = -0.0339     CD =  0.00766   =>   CDf =  0.00449    CDp =  0.00316

 Side 1  free  transition at x/c =  0.7414   66
 Side 2  free  transition at x/c =  0.9362   74

   3   rms: 0.2349E-01   max: 0.2854E+00   C at   74  2
       a =  1.500      CL =  0.3622
      Cm = -0.0333     CD =  0.00756   =>   CDf =  0.00449    CDp =  0.00307

 Side 1  free  transition at x/c =  0.7418   66
 Side 2  free  transition at x/c =  0.9323   74

   4   rms: 0.8551E-02   max: -.8145E-01   D at   79  2
       a =  1.500      CL =  0.3672
      Cm = -0.0344     CD =  0.00761   =>   CDf =  0.00448    CDp =  0.00312

 Side 1  free  transition at x/c =  0.7417   66
 Side 2  free  transition at x/c =  0.9296   74

   5   rms: 0.9077E-03   max: -.7255E-02   D at   74  2
       a =  1.500      CL =  0.3680
      Cm = -0.0346     CD =  0.00762   =>   CDf =  0.00450    CDp =  0.00312

 Side 1  free  transition at x/c =  0.7417   66
 Side 2  free  transition at x/c =  0.9294   74

   6   rms: 0.6168E-05   max: -.6949E-04   D at   74  2
       a =  1.500      CL =  0.3680
      Cm = -0.0346     CD =  0.00762   =>   CDf =  0.00450    CDp =  0.00312
 plradd ia,ip,cpol           12           0  9.23562944E-02

 Point added to stored polar  1
 Point written to save file  s8055_Re400k.base.pol                           
 Dump file unspecified or not available
 Calculating wake trajectory ...
 Calculating source influence matrix ...

 Solving BL system ...

 Side 1  free  transition at x/c =  0.7417   66
 Side 2  free  transition at x/c =  0.9294   74

   1   rms: 0.9423E-01   max: -.3087E+00   T at   74  2
       a =  2.000      CL =  0.4272
      Cm = -0.0343     CD =  0.00754   =>   CDf =  0.00448    CDp =  0.00305

 Side 1  free  transition at x/c =  0.7240   65
 Side 2  free  transition at x/c =  0.9414   73

   2   rms: 0.3651E-01   max: -.3119E+00   D at   74  2
       a =  2.000      CL =  0.4122
      Cm = -0.0318     CD =  0.00755   =>   CDf =  0.00447    CDp =  0.00307

 MRCHDU: Convergence failed at  75  side 2    Res =  0.3873E+02
 MRCHDU: Convergence failed at  76  side 2    Res =  0.3883E+01
 MRCHDU: Convergence failed at  77  side 2    Res =  0.3280E+01
 MRCHDU: Convergence failed at  78  side 2    Res =  0.3751E+01
 Side 1  free  transition at x/c =  0.7183   65
 Side 2  free  transition at x/c =  0.9597   75

   3   rms: 0.9976E-01   max: 0.9379E+00   C at   75  2
       a =  2.000      CL =  0.4343
      Cm = -0.0360     CD =  0.00732   =>   CDf =  0.00447    CDp =  0.00286

 Side 1  free  transition at x/c =  0.7175   65
 Side 2  free  transition at x/c =  0.9362   73

   4   rms: 0.4036E-01   max: -.4509E+00   D at   74  2
       a =  2.000      CL =  0.4206
      Cm = -0.0335     CD =  0.00760   =>   CDf =  0.00449    CDp =  0.00311

 Side 1  free  transition at x/c =  0.7178   65
 Side 2  free  transition at x/c =  0.9524   74

   5   rms: 0.2385E-01   max: 0.2549E+00   C at   74  2
       a =  2.000      CL =  0.4222
      Cm = -0.0337     CD =  0.00752   =>   CDf =  0.00449    CDp =  0.00303

 Side 1  free  transition at x/c =  0.7178   65
 Side 2  free  transition at x/c =  0.9486   74

   6   rms: 0.6223E-02   max: 0.4416E-01   T at   75  2
       a =  2.000      CL =  0.4256
      Cm = -0.0344     CD =  0.00755   =>   CDf =  0.00449    CDp =  0.00307

 Side 1  free  transition at x/c =  0.7176   65
 Side 2  free  transition at x/c =  0.9463   74

   7   rms: 0.4138E-03   max: -.4788E-02   D at   74  2
       a =  2.000      CL =  0.4259
      Cm = -0.0345     CD =  0.00756   =>   CDf =  0.00449    CDp =  0.00307

 Side 1  free  transition at x/c =  0.7176   65
 Side 2  free  transition at x/c =  0.9463   74

   8   rms: 0.1396E-05   max: 0.1506E-04   D at   75  2
       a =  2.000      CL =  0.4259
      Cm = -0.0345     CD =  0.00756   =>   CDf =  0.00449    CDp =  0.00307
 plradd ia,ip,cpol           13           0  9.23562944E-02

 Point added to stored polar  1
 Point written to save file  s8055_Re400k.base.pol                           
 Dump file unspecified or not available
 Calculating wake trajectory ...
 Calculating source influence matrix ...

 Solving BL system ...

 Side 1  free  transition at x/c =  0.7176   65
 Side 2  free  transition at x/c =  0.9463   74

   1   rms: 0.9339E-01   max: -.2569E+00   T at   74  2
       a =  2.500      CL =  0.4908
      Cm = -0.0359     CD =  0.00753   =>   CDf =  0.00447    CDp =  0.00307

 Side 1  free  transition at x/c =  0.6882   64
 Side 2  free  transition at x/c =  0.9563   73

   2   rms: 0.5255E-01   max: -.4220E+00   D at   75  2
       a =  2.500      CL =  0.4655
      Cm = -0.0308     CD =  0.00757   =>   CDf =  0.00457    CDp =  0.00299

 MRCHDU: Convergence failed at  75  side 2    Res =  0.2081E+01
 MRCHDU: Convergence failed at  76  side 2    Res =  0.3690E+01
 MRCHDU: Convergence failed at  77  side 2    Res =  0.6407E+01
 Side 1  free  transition at x/c =  0.6929   64
 Side 2  free  transition at x/c =  0.9842   76

   3   rms: 0.9683E-01   max: 0.1273E+01   C at   76  2
       a =  2.500      CL =  0.4849
      Cm = -0.0342     CD =  0.00733   =>   CDf =  0.00453    CDp =  0.00281

 Side 1  free  transition at x/c =  0.6905   64
 Side 2  free  transition at x/c =  0.9525   73

   4   rms: 0.4385E-01   max: -.5498E+00   D at   75  2   RLX: 0.909
       a =  2.500      CL =  0.4774
      Cm = -0.0332     CD =  0.00774   =>   CDf =  0.00453    CDp =  0.00321

 Side 1  free  transition at x/c =  0.6908   64
 Side 2  free  transition at x/c =  0.9674   74

   5   rms: 0.2875E-01   max: 0.2006E+00   C at   74  2
       a =  2.500      CL =  0.4898
      Cm = -0.0358     CD =  0.00754   =>   CDf =  0.00454    CDp =  0.00300

 Side 1  free  transition at x/c =  0.6901   64
 Side 2  free  transition at x/c =  0.9608   74

   6   rms: 0.2303E-02   max: 0.1652E-01   T at   74  2
       a =  2.500      CL =  0.4913
      Cm = -0.0362     CD =  0.00758   =>   CDf =  0.00454    CDp =  0.00304

 Side 1  free  transition at x/c =  0.6900   64
 Side 2  free  transition at x/c =  0.9600   74

   7   rms: 0.1898E-03   max: -.1565E-02   D at   75  2
       a =  2.500      CL =  0.4913
      Cm = -0.0362     CD =  0.00758   =>   CDf =  0.00454    CDp =  0.00304

 Side 1  free  transition at x/c =  0.6900   64
 Side 2  free  transition at x/c =  0.9600   74

   8   rms: 0.1060E-05   max: 0.7648E-05   D at   77  2
       a =  2.500      CL =  0.4913
      Cm = -0.0362     CD =  0.00758   =>   CDf =  0.00454    CDp =  0.00304
 plradd ia,ip,cpol           14           0  8.02626237E-02

 Point added to stored polar  1
 Point written to save file  s8055_Re400k.base.pol                           
 Dump file unspecified or not available
 Calculating wake trajectory ...
 Calculating source influence matrix ...

 Solving BL system ...

 Side 1  free  transition at x/c =  0.6900   64
 Side 2  free  transition at x/c =  0.9600   74

   1   rms: 0.9734E-01   max: 0.2113E+00   D at   77  2
       a =  3.000      CL =  0.5646
      Cm = -0.0397     CD =  0.00764   =>   CDf =  0.00451    CDp =  0.00314

 Side 1  free  transition at x/c =  0.6456   62
 Side 2  free  transition at x/c =  0.9659   73

   2   rms: 0.2899E-01   max: -.2965E+00   D at   63  1
       a =  3.000      CL =  0.5564
      Cm = -0.0380     CD =  0.00774   =>   CDf =  0.00475    CDp =  0.00298

 Side 1  free  transition at x/c =  0.6549   63
 Side 2  free  transition at x/c =  0.9723   74

   3   rms: 0.1760E-01   max: 0.2885E+00   T at    2  1
       a =  3.000      CL =  0.5584
      Cm = -0.0385     CD =  0.00770   =>   CDf =  0.00464    CDp =  0.00306

 Side 1  free  transition at x/c =  0.6529   63
 Side 2  free  transition at x/c =  0.9713   74

   4   rms: 0.1550E-02   max: 0.1797E-01   D at    4  1
       a =  3.000      CL =  0.5584
      Cm = -0.0385     CD =  0.00770   =>   CDf =  0.00466    CDp =  0.00304

 Side 1  free  transition at x/c =  0.6529   63
 Side 2  free  transition at x/c =  0.9713   74

   5   rms: 0.8681E-05   max: -.9477E-04   D at    7  1
       a =  3.000      CL =  0.5584
      Cm = -0.0385     CD =  0.00770   =>   CDf =  0.00466    CDp =  0.00304
 plradd ia,ip,cpol           15           0  5.81237413E-02

 Point added to stored polar  1
 Point written to save file  s8055_Re400k.base.pol                           
 Dump file unspecified or not available
 Calculating wake trajectory ...
 Calculating source influence matrix ...

 Solving BL system ...

 Side 1  free  transition at x/c =  0.6529   63
 Side 2  free  transition at x/c =  0.9713   74

   1   rms: 0.1091E+00   max: 0.7269E+00   C at   63  1
       a =  3.500      CL =  0.6336
      Cm = -0.0426     CD =  0.00792   =>   CDf =  0.00466    CDp =  0.00326

 Side 1  free  transition at x/c =  0.6008   59
 Side 2  free  transition at x/c =  0.9758   74

   2   rms: 0.2355E-01   max: 0.2616E+00   D at   62  1
       a =  3.500      CL =  0.6322
      Cm = -0.0424     CD =  0.00795   =>   CDf =  0.00489    CDp =  0.00307

 Side 1  free  transition at x/c =  0.6044   59
 Side 2  free  transition at x/c =  0.9776   74

   3   rms: 0.2903E-02   max: -.4367E-01   C at   59  1
       a =  3.500      CL =  0.6323
      Cm = -0.0425     CD =  0.00797   =>   CDf =  0.00486    CDp =  0.00310

 Side 1  free  transition at x/c =  0.6033   59
 Side 2  free  transition at x/c =  0.9776   74

   4   rms: 0.1017E-03   max: -.1473E-02   C at   59  1
       a =  3.500      CL =  0.6323
      Cm = -0.0425     CD =  0.00797   =>   CDf =  0.00485    CDp =  0.00312

 Side 1  free  transition at x/c =  0.6033   59
 Side 2  free  transition at x/c =  0.9776   74

   5   rms: 0.1095E-05   max: -.1453E-04   C at   59  1
       a =  3.500      CL =  0.6323
      Cm = -0.0425     CD =  0.00797   =>   CDf =  0.00485    CDp =  0.00312
 plradd ia,ip,cpol           16           0  4.85410728E-02

 Point added to stored polar  1
 Point written to save file  s8055_Re400k.base.pol                           
 Dump file unspecified or not available
 Calculating wake trajectory ...
 Calculating source influence matrix ...

 Solving BL system ...

 Side 1  free  transition at x/c =  0.6033   59
 Side 2  free  transition at x/c =  0.9776   74

   1   rms: 0.9970E-01   max: -.1647E+00   T at   74  2
       a =  4.000      CL =  0.7033
      Cm = -0.0460     CD =  0.00819   =>   CDf =  0.00478    CDp =  0.00341

 Side 1  free  transition at x/c =  0.5288   56
 Side 2  free  transition at x/c =  0.9858   74

   2   rms: 0.2732E-01   max: -.3186E+00   C at   56  1
       a =  4.000      CL =  0.7005
      Cm = -0.0455     CD =  0.00835   =>   CDf =  0.00521    CDp =  0.00314

 Side 1  free  transition at x/c =  0.5422   56
 Side 2  free  transition at x/c =  0.9869   74

   3   rms: 0.4044E-02   max: 0.5291E-01   C at   56  1
       a =  4.000      CL =  0.7003
      Cm = -0.0455     CD =  0.00840   =>   CDf =  0.00508    CDp =  0.00332

 Side 1  free  transition at x/c =  0.5390   56
 Side 2  free  transition at x/c =  0.9868   74

   4   rms: 0.1949E-03   max: -.3366E-02   C at   56  1
       a =  4.000      CL =  0.7003
      Cm = -0.0455     CD =  0.00840   =>   CDf =  0.00509    CDp =  0.00331

 Side 1  free  transition at x/c =  0.5391   56
 Side 2  free  transition at x/c =  0.9868   74

   5   rms: 0.7103E-06   max: 0.4627E-05   D at   74  2
       a =  4.000      CL =  0.7003
      Cm = -0.0455     CD =  0.00840   =>   CDf =  0.00509    CDp =  0.00331
 plradd ia,ip,cpol           17           0  4.01243269E-02

 Point added to stored polar  1
 Point written to save file  s8055_Re400k.base.pol                           
 Dump file unspecified or not available
 Calculating wake trajectory ...
 Calculating source influence matrix ...

 Solving BL system ...

 Side 1  free  transition at x/c =  0.5391   56
 Side 2  free  transition at x/c =  0.9868   74

   1   rms: 0.1156E+00   max: 0.1194E+01   C at   56  1
       a =  4.500      CL =  0.7725
      Cm = -0.0496     CD =  0.00883   =>   CDf =  0.00501    CDp =  0.00382

 Side 1  free  transition at x/c =  0.4437   51
 Side 2  free  transition at x/c =  0.9942   74

   2   rms: 0.2912E-01   max: -.2968E+00   C at   51  1
       a =  4.500      CL =  0.7682
      Cm = -0.0489     CD =  0.00909   =>   CDf =  0.00556    CDp =  0.00354

 Side 1  free  transition at x/c =  0.4558   52
 Side 2  free  transition at x/c =  0.9963   74

   3   rms: 0.4846E-02   max: 0.7983E-01   C at   52  1
       a =  4.500      CL =  0.7682
      Cm = -0.0489     CD =  0.00910   =>   CDf =  0.00544    CDp =  0.00365

 Side 1  free  transition at x/c =  0.4532   52
 Side 2  free  transition at x/c =  0.9964   74

   4   rms: 0.6987E-04   max: -.1048E-02   D at   54  1
       a =  4.500      CL =  0.7682
      Cm = -0.0489     CD =  0.00910   =>   CDf =  0.00546    CDp =  0.00364
 plradd ia,ip,cpol           18           0  2.67312638E-02

 Point added to stored polar  1
 Point written to save file  s8055_Re400k.base.pol                           
 Dump file unspecified or not available
 Calculating wake trajectory ...
 Calculating source influence matrix ...

 Solving BL system ...

 Side 1  free  transition at x/c =  0.4532   52
 Side 2  free  transition at x/c =  0.9964   74

   1   rms: 0.1540E+00   max: 0.2175E+01   C at   52  1   RLX: 0.592
       a =  5.000      CL =  0.8088
      Cm = -0.0512     CD =  0.00967   =>   CDf =  0.00546    CDp =  0.00420

 Side 1  free  transition at x/c =  0.3978   48
 Side 2 forced transition at x/c =  1.0000   74

   2   rms: 0.4119E-01   max: -.2174E+00   D at   74  2
       a =  5.000      CL =  0.8117
      Cm = -0.0476     CD =  0.00977   =>   CDf =  0.00574    CDp =  0.00403

 Side 1  free  transition at x/c =  0.3759   47
 Side 2 forced transition at x/c =  1.0000   74

   3   rms: 0.7008E-02   max: -.1190E+00   C at   47  1
       a =  5.000      CL =  0.8096
      Cm = -0.0472     CD =  0.00980   =>   CDf =  0.00582    CDp =  0.00398

 Side 1  free  transition at x/c =  0.3792   47
 Side 2 forced transition at x/c =  1.0000   74

   4   rms: 0.1047E-03   max: -.1199E-02   C at   47  1
       a =  5.000      CL =  0.8095
      Cm = -0.0472     CD =  0.00981   =>   CDf =  0.00579    CDp =  0.00401

 Side 1  free  transition at x/c =  0.3792   47
 Side 2 forced transition at x/c =  1.0000   74

   5   rms: 0.1251E-05   max: 0.1844E-04   C at   47  1
       a =  5.000      CL =  0.8095
      Cm = -0.0472     CD =  0.00981   =>   CDf =  0.00579    CDp =  0.00401
 plradd ia,ip,cpol           19           0  1.73254721E-02

 Point added to stored polar  1
 Point written to save file  s8055_Re400k.base.pol                           
 Dump file unspecified or not available
 Calculating wake trajectory ...
 Calculating source influence matrix ...

 Solving BL system ...

 Side 1  free  transition at x/c =  0.3792   47
 Side 2 forced transition at x/c =  1.0000   74

   1   rms: 0.1184E+00   max: 0.1603E+01   C at   47  1   RLX: 0.913
       a =  5.500      CL =  0.8284
      Cm = -0.0417     CD =  0.01046   =>   CDf =  0.00567    CDp =  0.00478

 Side 1  free  transition at x/c =  0.3264   45
 Side 2 forced transition at x/c =  1.0000   73

   2   rms: 0.2334E-01   max: 0.1560E+00   D at   47  1
       a =  5.500      CL =  0.8334
      Cm = -0.0417     CD =  0.01053   =>   CDf =  0.00611    CDp =  0.00443

 Side 1  free  transition at x/c =  0.3231   44
 Side 2 forced transition at x/c =  1.0000   73

   3   rms: 0.4400E-02   max: 0.4704E-01   C at   44  1
       a =  5.500      CL =  0.8345
      Cm = -0.0419     CD =  0.01052   =>   CDf =  0.00606    CDp =  0.00446

 Side 1  free  transition at x/c =  0.3215   44
 Side 2 forced transition at x/c =  1.0000   73

   4   rms: 0.1677E-03   max: 0.1479E-02   C at   73  2
       a =  5.500      CL =  0.8345
      Cm = -0.0419     CD =  0.01053   =>   CDf =  0.00607    CDp =  0.00446

 Side 1  free  transition at x/c =  0.3215   44
 Side 2 forced transition at x/c =  1.0000   73

   5   rms: 0.1712E-05   max: 0.1375E-04   C at   73  2
       a =  5.500      CL =  0.8345
      Cm = -0.0419     CD =  0.01053   =>   CDf =  0.00606    CDp =  0.00446
 plradd ia,ip,cpol           20           0  1.73254721E-02

 Point added to stored polar  1
 Point written to save file  s8055_Re400k.base.pol                           
 Dump file unspecified or not available
 Calculating wake trajectory ...
 Calculating source influence matrix ...

 Solving BL system ...

 Side 1  free  transition at x/c =  0.3215   44
 Side 2 forced transition at x/c =  1.0000   73

   1   rms: 0.1057E+00   max: 0.1398E+01   C at   44  1
       a =  6.000      CL =  0.8669
      Cm = -0.0379     CD =  0.01124   =>   CDf =  0.00607    CDp =  0.00518

 Side 1  free  transition at x/c =  0.2697   41
 Side 2 forced transition at x/c =  1.0000   73

   2   rms: 0.2114E-01   max: -.1900E+00   C at   41  1
       a =  6.000      CL =  0.8669
      Cm = -0.0379     CD =  0.01130   =>   CDf =  0.00637    CDp =  0.00493

 Side 1  free  transition at x/c =  0.2725   41
 Side 2 forced transition at x/c =  1.0000   73

   3   rms: 0.3915E-02   max: 0.6783E-01   C at   41  1
       a =  6.000      CL =  0.8672
      Cm = -0.0380     CD =  0.01133   =>   CDf =  0.00631    CDp =  0.00502

 Side 1  free  transition at x/c =  0.2707   41
 Side 2 forced transition at x/c =  1.0000   73

   4   rms: 0.6969E-04   max: -.9657E-03   C at   41  1
       a =  6.000      CL =  0.8671
      Cm = -0.0380     CD =  0.01133   =>   CDf =  0.00632    CDp =  0.00501
 plradd ia,ip,cpol           21           0  1.73254721E-02

 Point added to stored polar  1
 Point written to save file  s8055_Re400k.base.pol                           
 Dump file unspecified or not available
 Calculating wake trajectory ...
 Calculating source influence matrix ...

 Solving BL system ...

 Side 1  free  transition at x/c =  0.2708   41
 Side 2 forced transition at x/c =  1.0000   73

   1   rms: 0.1028E+00   max: 0.1217E+01   C at   41  1   RLX: 0.889
       a =  6.500      CL =  0.8974
      Cm = -0.0348     CD =  0.01212   =>   CDf =  0.00617    CDp =  0.00595

 Side 1  free  transition at x/c =  0.2338   39
 Side 2 forced transition at x/c =  1.0000   72

   2   rms: 0.2067E-01   max: 0.2156E+00   D at   41  1
       a =  6.500      CL =  0.9038
      Cm = -0.0349     CD =  0.01211   =>   CDf =  0.00654    CDp =  0.00557

 Side 1  free  transition at x/c =  0.2308   39
 Side 2 forced transition at x/c =  1.0000   72

   3   rms: 0.1664E-02   max: 0.2337E-01   C at   39  1
       a =  6.500      CL =  0.9035
      Cm = -0.0348     CD =  0.01214   =>   CDf =  0.00650    CDp =  0.00563

 Side 1  free  transition at x/c =  0.2303   39
 Side 2 forced transition at x/c =  1.0000   72

   4   rms: 0.1546E-04   max: -.1936E-03   D at   41  1
       a =  6.500      CL =  0.9035
      Cm = -0.0348     CD =  0.01214   =>   CDf =  0.00651    CDp =  0.00563
 plradd ia,ip,cpol           22           0  1.37903970E-02

 Point added to stored polar  1
 Point written to save file  s8055_Re400k.base.pol                           
 Dump file unspecified or not available
 Calculating wake trajectory ...
 Calculating source influence matrix ...

 Solving BL system ...

 Side 1  free  transition at x/c =  0.2303   39
 Side 2 forced transition at x/c =  1.0000   72

   1   rms: 0.8676E-01   max: 0.7435E+00   C at   39  1
       a =  7.000      CL =  0.9443
      Cm = -0.0324     CD =  0.01282   =>   CDf =  0.00651    CDp =  0.00631

 Side 1  free  transition at x/c =  0.1976   37
 Side 2 forced transition at x/c =  1.0000   72

   2   rms: 0.1702E-01   max: 0.2441E+00   D at   38  1
       a =  7.000      CL =  0.9420
      Cm = -0.0321     CD =  0.01294   =>   CDf =  0.00668    CDp =  0.00626

 Side 1  free  transition at x/c =  0.2002   37
 Side 2 forced transition at x/c =  1.0000   72

   3   rms: 0.2455E-02   max: 0.4301E-01   C at   37  1
       a =  7.000      CL =  0.9423
      Cm = -0.0321     CD =  0.01292   =>   CDf =  0.00663    CDp =  0.00630

 Side 1  free  transition at x/c =  0.1992   37
 Side 2 forced transition at x/c =  1.0000   72

   4   rms: 0.4487E-04   max: -.7213E-03   D at   38  1
       a =  7.000      CL =  0.9422
      Cm = -0.0321     CD =  0.01292   =>   CDf =  0.00664    CDp =  0.00629
 plradd ia,ip,cpol           23           0  1.37903970E-02

 Point added to stored polar  1
 Point written to save file  s8055_Re400k.base.pol                           
 Dump file unspecified or not available
 Calculating wake trajectory ...
 Calculating source influence matrix ...

 Solving BL system ...

 Side 1  free  transition at x/c =  0.1992   37
 Side 2 forced transition at x/c =  1.0000   72

   1   rms: 0.8416E-01   max: 0.5620E+00   C at   37  1
       a =  7.500      CL =  0.9833
      Cm = -0.0299     CD =  0.01366   =>   CDf =  0.00646    CDp =  0.00720

 Side 1  free  transition at x/c =  0.1729   36
 Side 2 forced transition at x/c =  1.0000   71

   2   rms: 0.1705E-01   max: 0.2535E+00   D at   37  1
       a =  7.500      CL =  0.9806
      Cm = -0.0295     CD =  0.01378   =>   CDf =  0.00678    CDp =  0.00700

 Side 1  free  transition at x/c =  0.1746   36
 Side 2 forced transition at x/c =  1.0000   71

   3   rms: 0.1590E-02   max: -.2019E-01   D at   37  1
       a =  7.500      CL =  0.9810
      Cm = -0.0296     CD =  0.01375   =>   CDf =  0.00673    CDp =  0.00702

 Side 1  free  transition at x/c =  0.1740   36
 Side 2 forced transition at x/c =  1.0000   71

   4   rms: 0.1879E-04   max: -.2216E-03   C at   36  1
       a =  7.500      CL =  0.9809
      Cm = -0.0296     CD =  0.01375   =>   CDf =  0.00674    CDp =  0.00702
 plradd ia,ip,cpol           24           0  1.37903970E-02

 Point added to stored polar  1
 Point written to save file  s8055_Re400k.base.pol                           
 Dump file unspecified or not available
 Calculating wake trajectory ...
 Calculating source influence matrix ...

 Solving BL system ...

 Side 1  free  transition at x/c =  0.1740   36
 Side 2 forced transition at x/c =  1.0000   71

   1   rms: 0.7752E-01   max: 0.3141E+00   T at   36  1
       a =  8.000      CL =  1.0260
      Cm = -0.0279     CD =  0.01425   =>   CDf =  0.00654    CDp =  0.00771

 Side 1  free  transition at x/c =  0.1510   36
 Side 2 forced transition at x/c =  1.0000   70

   2   rms: 0.2622E-01   max: -.3489E+00   D at   36  1
       a =  8.000      CL =  1.0208
      Cm = -0.0272     CD =  0.01444   =>   CDf =  0.00678    CDp =  0.00766

 Side 1  free  transition at x/c =  0.1538   36
 Side 2 forced transition at x/c =  1.0000   70

   3   rms: 0.4435E-02   max: 0.7034E-01   C at   36  1
       a =  8.000      CL =  1.0205
      Cm = -0.0272     CD =  0.01452   =>   CDf =  0.00674    CDp =  0.00778

 Side 1  free  transition at x/c =  0.1525   36
 Side 2 forced transition at x/c =  1.0000   70

   4   rms: 0.1360E-03   max: -.1304E-02   D at   37  1
       a =  8.000      CL =  1.0205
      Cm = -0.0272     CD =  0.01453   =>   CDf =  0.00676    CDp =  0.00777

 Side 1  free  transition at x/c =  0.1525   36
 Side 2 forced transition at x/c =  1.0000   70

   5   rms: 0.2119E-05   max: 0.8649E-05   C at   70  2
       a =  8.000      CL =  1.0205
      Cm = -0.0272     CD =  0.01453   =>   CDf =  0.00676    CDp =  0.00777
 plradd ia,ip,cpol           25           0  1.08750276E-02

 Point added to stored polar  1
 Point written to save file  s8055_Re400k.base.pol                           
 Dump file unspecified or not available
 Calculating wake trajectory ...
 Calculating source influence matrix ...

 Solving BL system ...

 Side 1  free  transition at x/c =  0.1525   36
 Side 2 forced transition at x/c =  1.0000   70

   1   rms: 0.8249E-01   max: -.4356E+00   D at   36  1
       a =  8.500      CL =  1.0585
      Cm = -0.0246     CD =  0.01543   =>   CDf =  0.00676    CDp =  0.00867

 Side 1  free  transition at x/c =  0.1345   35
 Side 2 forced transition at x/c =  1.0000   70

   2   rms: 0.3500E-01   max: -.4574E+00   D at   35  1
       a =  8.500      CL =  1.0582
      Cm = -0.0245     CD =  0.01523   =>   CDf =  0.00677    CDp =  0.00846

 Side 1  free  transition at x/c =  0.1349   35
 Side 2 forced transition at x/c =  1.0000   70

   3   rms: 0.6211E-02   max: 0.6247E-01   C at   35  1
       a =  8.500      CL =  1.0569
      Cm = -0.0243     CD =  0.01545   =>   CDf =  0.00678    CDp =  0.00866

 Side 1  free  transition at x/c =  0.1332   35
 Side 2 forced transition at x/c =  1.0000   70

   4   rms: 0.4698E-03   max: -.4748E-02   D at   36  1
       a =  8.500      CL =  1.0566
      Cm = -0.0243     CD =  0.01545   =>   CDf =  0.00682    CDp =  0.00863

 Side 1  free  transition at x/c =  0.1331   35
 Side 2 forced transition at x/c =  1.0000   70

   5   rms: 0.5863E-05   max: 0.2339E-04   D at   92  1
       a =  8.500      CL =  1.0566
      Cm = -0.0243     CD =  0.01545   =>   CDf =  0.00682    CDp =  0.00863
 plradd ia,ip,cpol           26           0  1.08750276E-02

 Point added to stored polar  1
 Point written to save file  s8055_Re400k.base.pol                           
 Dump file unspecified or not available
 Calculating wake trajectory ...
 Calculating source influence matrix ...

 Solving BL system ...

 Side 1  free  transition at x/c =  0.1331   35
 Side 2 forced transition at x/c =  1.0000   70

   1   rms: 0.8784E-01   max: -.5684E+00   D at   35  1   RLX: 0.880
       a =  9.000      CL =  1.0815
      Cm = -0.0208     CD =  0.01667   =>   CDf =  0.00682    CDp =  0.00985

 Side 1  free  transition at x/c =  0.1179   33
 Side 2 forced transition at x/c =  1.0000   70

   2   rms: 0.2681E-01   max: 0.3163E+00   D at   34  1
       a =  9.000      CL =  1.0895
      Cm = -0.0209     CD =  0.01639   =>   CDf =  0.00664    CDp =  0.00975

 Side 1  free  transition at x/c =  0.1159   34
 Side 2 forced transition at x/c =  1.0000   69

   3   rms: 0.2861E-02   max: -.3018E-01   T at    2  1
       a =  9.000      CL =  1.0900
      Cm = -0.0210     CD =  0.01634   =>   CDf =  0.00680    CDp =  0.00953

 Side 1  free  transition at x/c =  0.1151   34
 Side 2 forced transition at x/c =  1.0000   69

   4   rms: 0.9090E-03   max: -.1170E-01   D at    4  1
       a =  9.000      CL =  1.0900
      Cm = -0.0209     CD =  0.01634   =>   CDf =  0.00681    CDp =  0.00953

 Side 1  free  transition at x/c =  0.1151   34
 Side 2 forced transition at x/c =  1.0000   69

   5   rms: 0.1781E-05   max: -.1754E-04   D at    4  1
       a =  9.000      CL =  1.0900
      Cm = -0.0209     CD =  0.01634   =>   CDf =  0.00681    CDp =  0.00953
 plradd ia,ip,cpol           27           0  1.08750276E-02

 Point added to stored polar  1
 Point written to save file  s8055_Re400k.base.pol                           
 Dump file unspecified or not available
 Calculating wake trajectory ...
 Calculating source influence matrix ...

 Solving BL system ...

 Side 1  free  transition at x/c =  0.1151   34
 Side 2 forced transition at x/c =  1.0000   69

   1   rms: 0.7554E-01   max: 0.3541E+00   T at   34  1
       a =  9.500      CL =  1.1264
      Cm = -0.0181     CD =  0.01713   =>   CDf =  0.00681    CDp =  0.01032

 Side 1  free  transition at x/c =  0.0991   33
 Side 2 forced transition at x/c =  1.0000   69

   2   rms: 0.2566E-01   max: -.3094E+00   D at   33  1
       a =  9.500      CL =  1.1211
      Cm = -0.0174     CD =  0.01727   =>   CDf =  0.00681    CDp =  0.01046

 Side 1  free  transition at x/c =  0.0994   33
 Side 2 forced transition at x/c =  1.0000   69

   3   rms: 0.3476E-02   max: 0.4884E-01   C at   33  1
       a =  9.500      CL =  1.1209
      Cm = -0.0174     CD =  0.01738   =>   CDf =  0.00681    CDp =  0.01057

 Side 1  free  transition at x/c =  0.0985   33
 Side 2 forced transition at x/c =  1.0000   69

   4   rms: 0.1335E-03   max: -.9053E-03   D at   34  1
       a =  9.500      CL =  1.1208
      Cm = -0.0174     CD =  0.01738   =>   CDf =  0.00682    CDp =  0.01056

 Side 1  free  transition at x/c =  0.0986   33
 Side 2 forced transition at x/c =  1.0000   69

   5   rms: 0.2418E-05   max: -.9854E-05   D at   33  1
       a =  9.500      CL =  1.1208
      Cm = -0.0174     CD =  0.01738   =>   CDf =  0.00682    CDp =  0.01056
 plradd ia,ip,cpol           28           0  8.46861582E-03

 Point added to stored polar  1
 Point written to save file  s8055_Re400k.base.pol                           
 Dump file unspecified or not available
 Calculating wake trajectory ...
 Calculating source influence matrix ...

 Solving BL system ...

 Side 1  free  transition at x/c =  0.0986   33
 Side 2 forced transition at x/c =  1.0000   69

   1   rms: 0.7900E-01   max: -.4410E+00   D at   33  1
       a = 10.000      CL =  1.1516
      Cm = -0.0140     CD =  0.01857   =>   CDf =  0.00682    CDp =  0.01175

 Side 1  free  transition at x/c =  0.0863   32
 Side 2 forced transition at x/c =  1.0000   69

   2   rms: 0.3331E-01   max: -.3551E+00   D at   32  1
       a = 10.000      CL =  1.1505
      Cm = -0.0140     CD =  0.01844   =>   CDf =  0.00679    CDp =  0.01165

 Side 1  free  transition at x/c =  0.0856   32
 Side 2 forced transition at x/c =  1.0000   69

   3   rms: 0.4302E-02   max: -.3819E-01   D at   33  1
       a = 10.000      CL =  1.1494
      Cm = -0.0139     CD =  0.01865   =>   CDf =  0.00681    CDp =  0.01184

 Side 1  free  transition at x/c =  0.0848   32
 Side 2 forced transition at x/c =  1.0000   69

   4   rms: 0.1904E-03   max: -.1450E-02   D at   33  1
       a = 10.000      CL =  1.1493
      Cm = -0.0138     CD =  0.01865   =>   CDf =  0.00682    CDp =  0.01183

 Side 1  free  transition at x/c =  0.0848   32
 Side 2 forced transition at x/c =  1.0000   69

   5   rms: 0.2789E-05   max: 0.9678E-05   C at   69  2
       a = 10.000      CL =  1.1493
      Cm = -0.0138     CD =  0.01865   =>   CDf =  0.00682    CDp =  0.01183
 plradd ia,ip,cpol           29           0  6.54051895E-04

 Point added to stored polar  1
 Point written to save file  s8055_Re400k.base.pol                           
 Dump file unspecified or not available

.OPERva   c>  
 Solving BL system ...

 Side 1  free  transition at x/c =  0.0848   32
 Side 2 forced transition at x/c =  1.0000   69

   1   rms: 0.5425E-06   max: -.4624E-05   D at    4  2
       a = 10.000      CL =  1.1493
      Cm = -0.0138     CD =  0.01865   =>   CDf =  0.00682    CDp =  0.01183
 plradd ia,ip,cpol           30         182  6.54051895E-04

 Point added to stored polar  1
 Point written to save file  s8055_Re400k.base.pol                           
 Dump file unspecified or not available
 Calculating wake trajectory ...
 Calculating source influence matrix ...

 Solving BL system ...

 Side 1  free  transition at x/c =  0.0848   32
 Side 2 forced transition at x/c =  1.0000   69

   1   rms: 0.4078E-01   max: -.2406E+00   D at   32  1
       a = 10.250      CL =  1.1628
      Cm = -0.0121     CD =  0.01941   =>   CDf =  0.00654    CDp =  0.01287

 Side 1  free  transition at x/c =  0.0795   32
 Side 2 forced transition at x/c =  1.0000   68

   2   rms: 0.7839E-02   max: -.8216E-01   D at   33  1
       a = 10.250      CL =  1.1611
      Cm = -0.0119     CD =  0.01945   =>   CDf =  0.00683    CDp =  0.01262

 Side 1  free  transition at x/c =  0.0791   32
 Side 2 forced transition at x/c =  1.0000   68

   3   rms: 0.6766E-03   max: -.7737E-02   D at    4  1
       a = 10.250      CL =  1.1611
      Cm = -0.0119     CD =  0.01947   =>   CDf =  0.00683    CDp =  0.01264

 Side 1  free  transition at x/c =  0.0791   32
 Side 2 forced transition at x/c =  1.0000   68

   4   rms: 0.2306E-05   max: -.6424E-05   T at   88  1
       a = 10.250      CL =  1.1611
      Cm = -0.0119     CD =  0.01947   =>   CDf =  0.00683    CDp =  0.01264
 plradd ia,ip,cpol           31           0  6.54051895E-04

 Point added to stored polar  1
 Point written to save file  s8055_Re400k.base.pol                           
 Dump file unspecified or not available
 Calculating wake trajectory ...
 Calculating source influence matrix ...

 Solving BL system ...

 Side 1  free  transition at x/c =  0.0791   32
 Side 2 forced transition at x/c =  1.0000   68

   1   rms: 0.3734E-01   max: 0.1969E+00   T at   32  1
       a = 10.500      CL =  1.1788
      Cm = -0.0106     CD =  0.02000   =>   CDf =  0.00683    CDp =  0.01317

 Side 1  free  transition at x/c =  0.0736   32
 Side 2 forced transition at x/c =  1.0000   68

   2   rms: 0.5412E-02   max: -.5884E-01   D at   32  1
       a = 10.500      CL =  1.1761
      Cm = -0.0104     CD =  0.02011   =>   CDf =  0.00678    CDp =  0.01332

 Side 1  free  transition at x/c =  0.0741   32
 Side 2 forced transition at x/c =  1.0000   68

   3   rms: 0.1787E-03   max: -.8075E-03   D at   88  1
       a = 10.500      CL =  1.1762
      Cm = -0.0104     CD =  0.02011   =>   CDf =  0.00678    CDp =  0.01333

 Side 1  free  transition at x/c =  0.0741   32
 Side 2 forced transition at x/c =  1.0000   68

   4   rms: 0.2165E-05   max: -.6961E-05   D at   82  2
       a = 10.500      CL =  1.1762
      Cm = -0.0104     CD =  0.02011   =>   CDf =  0.00678    CDp =  0.01333
 plradd ia,ip,cpol           32           0  6.54051895E-04

 Point added to stored polar  1
 Point written to save file  s8055_Re400k.base.pol                           
 Dump file unspecified or not available
 Calculating wake trajectory ...
 Calculating source influence matrix ...

 Solving BL system ...

 Side 1  free  transition at x/c =  0.0741   32
 Side 2 forced transition at x/c =  1.0000   68

   1   rms: 0.3888E-01   max: -.1841E+00   D at   32  1
       a = 10.750      CL =  1.1896
      Cm = -0.0088     CD =  0.02093   =>   CDf =  0.00678    CDp =  0.01415

 Side 1  free  transition at x/c =  0.0696   32
 Side 2 forced transition at x/c =  1.0000   68

   2   rms: 0.6110E-02   max: -.3005E-01   D at   32  1
       a = 10.750      CL =  1.1848
      Cm = -0.0082     CD =  0.02118   =>   CDf =  0.00680    CDp =  0.01438

 Side 1  free  transition at x/c =  0.0693   32
 Side 2 forced transition at x/c =  1.0000   68

   3   rms: 0.2210E-03   max: 0.2288E-02   D at   85  1
       a = 10.750      CL =  1.1847
      Cm = -0.0082     CD =  0.02118   =>   CDf =  0.00681    CDp =  0.01437

 Side 1  free  transition at x/c =  0.0693   32
 Side 2 forced transition at x/c =  1.0000   68

   4   rms: 0.4720E-05   max: 0.2174E-04   D at   85  1
       a = 10.750      CL =  1.1847
      Cm = -0.0082     CD =  0.02118   =>   CDf =  0.00681    CDp =  0.01436
 plradd ia,ip,cpol           33           0  6.54051895E-04

 Point added to stored polar  1
 Point written to save file  s8055_Re400k.base.pol                           
 Dump file unspecified or not available
 Calculating wake trajectory ...
 Calculating source influence matrix ...

 Solving BL system ...

 Side 1  free  transition at x/c =  0.0693   32
 Side 2 forced transition at x/c =  1.0000   68

   1   rms: 0.5086E-01   max: 0.1639E+00   T at   32  1
       a = 11.000      CL =  1.1861
      Cm = -0.0053     CD =  0.02288   =>   CDf =  0.00681    CDp =  0.01607

 Side 1  free  transition at x/c =  0.0654   31
 Side 2 forced transition at x/c =  1.0000   68

   2   rms: 0.3583E-01   max: -.3465E+00   D at   31  1
       a = 11.000      CL =  1.1958
      Cm = -0.0064     CD =  0.02190   =>   CDf =  0.00672    CDp =  0.01518

 Side 1  free  transition at x/c =  0.0666   31
 Side 2 forced transition at x/c =  1.0000   68

   3   rms: 0.5683E-02   max: 0.3420E-01   T at   31  1
       a = 11.000      CL =  1.1994
      Cm = -0.0068     CD =  0.02188   =>   CDf =  0.00672    CDp =  0.01517

 Side 1  free  transition at x/c =  0.0660   31
 Side 2 forced transition at x/c =  1.0000   68

   4   rms: 0.1506E-03   max: 0.1773E-02   D at   84  1
       a = 11.000      CL =  1.1993
      Cm = -0.0068     CD =  0.02189   =>   CDf =  0.00672    CDp =  0.01517

 Side 1  free  transition at x/c =  0.0660   31
 Side 2 forced transition at x/c =  1.0000   68

   5   rms: 0.2425E-05   max: -.6417E-05   C at   78  2
       a = 11.000      CL =  1.1993
      Cm = -0.0068     CD =  0.02189   =>   CDf =  0.00672    CDp =  0.01517
 plradd ia,ip,cpol           34           0  1.97664311E-04

 Point added to stored polar  1
 Point written to save file  s8055_Re400k.base.pol                           
 Dump file unspecified or not available
 Calculating wake trajectory ...
 Calculating source influence matrix ...

 Solving BL system ...

 Side 1  free  transition at x/c =  0.0660   31
 Side 2 forced transition at x/c =  1.0000   68

   1   rms: 0.3567E-01   max: 0.1589E+00   T at   31  1
       a = 11.250      CL =  1.2140
      Cm = -0.0054     CD =  0.02268   =>   CDf =  0.00672    CDp =  0.01596

 Side 1  free  transition at x/c =  0.0626   31
 Side 2 forced transition at x/c =  1.0000   68

   2   rms: 0.4744E-02   max: -.5417E-01   D at   31  1
       a = 11.250      CL =  1.2123
      Cm = -0.0053     CD =  0.02271   =>   CDf =  0.00667    CDp =  0.01604

 Side 1  free  transition at x/c =  0.0629   31
 Side 2 forced transition at x/c =  1.0000   68

   3   rms: 0.2512E-03   max: -.1112E-02   D at   85  1
       a = 11.250      CL =  1.2125
      Cm = -0.0053     CD =  0.02271   =>   CDf =  0.00666    CDp =  0.01604

 Side 1  free  transition at x/c =  0.0629   31
 Side 2 forced transition at x/c =  1.0000   68

   4   rms: 0.3275E-05   max: 0.2530E-04   C at   68  2
       a = 11.250      CL =  1.2125
      Cm = -0.0053     CD =  0.02271   =>   CDf =  0.00667    CDp =  0.01604
 plradd ia,ip,cpol           35           0  1.97664311E-04

 Point added to stored polar  1
 Point written to save file  s8055_Re400k.base.pol                           
 Dump file unspecified or not available
 Calculating wake trajectory ...
 Calculating source influence matrix ...

 Solving BL system ...

 Side 1  free  transition at x/c =  0.0629   31
 Side 2 forced transition at x/c =  1.0000   68

   1   rms: 0.3670E-01   max: 0.1587E+00   T at   31  1
       a = 11.500      CL =  1.2253
      Cm = -0.0039     CD =  0.02365   =>   CDf =  0.00634    CDp =  0.01731

 Side 1  free  transition at x/c =  0.0598   32
 Side 2 forced transition at x/c =  1.0000   67

   2   rms: 0.5034E-02   max: -.4646E-01   T at    2  1
       a = 11.500      CL =  1.2218
      Cm = -0.0035     CD =  0.02380   =>   CDf =  0.00666    CDp =  0.01714

 Side 1  free  transition at x/c =  0.0599   32
 Side 2 forced transition at x/c =  1.0000   67

   3   rms: 0.9346E-03   max: -.1191E-01   D at    4  1
       a = 11.500      CL =  1.2218
      Cm = -0.0035     CD =  0.02380   =>   CDf =  0.00666    CDp =  0.01714

 Side 1  free  transition at x/c =  0.0599   32
 Side 2 forced transition at x/c =  1.0000   67

   4   rms: 0.1397E-05   max: 0.1106E-04   D at    8  1
       a = 11.500      CL =  1.2218
      Cm = -0.0035     CD =  0.02380   =>   CDf =  0.00666    CDp =  0.01714
 plradd ia,ip,cpol           36           0  1.97664311E-04

 Point added to stored polar  1
 Point written to save file  s8055_Re400k.base.pol                           
 Dump file unspecified or not available
 Calculating wake trajectory ...
 Calculating source influence matrix ...

 Solving BL system ...

 Side 1  free  transition at x/c =  0.0599   32
 Side 2 forced transition at x/c =  1.0000   67

   1   rms: 0.4203E-01   max: 0.1545E+00   T at   32  1
       a = 11.750      CL =  1.2275
      Cm = -0.0015     CD =  0.02532   =>   CDf =  0.00666    CDp =  0.01866

 Side 1  free  transition at x/c =  0.0570   31
 Side 2 forced transition at x/c =  1.0000   67

   2   rms: 0.1916E-01   max: -.1576E+00   D at   31  1
       a = 11.750      CL =  1.2299
      Cm = -0.0017     CD =  0.02491   =>   CDf =  0.00660    CDp =  0.01832

 Side 1  free  transition at x/c =  0.0572   31
 Side 2 forced transition at x/c =  1.0000   67

   3   rms: 0.2607E-02   max: -.1182E-01   D at   83  1
       a = 11.750      CL =  1.2316
      Cm = -0.0019     CD =  0.02490   =>   CDf =  0.00659    CDp =  0.01830

 Side 1  free  transition at x/c =  0.0571   31
 Side 2 forced transition at x/c =  1.0000   67

   4   rms: 0.1695E-04   max: -.1523E-03   D at   74  2
       a = 11.750      CL =  1.2316
      Cm = -0.0019     CD =  0.02490   =>   CDf =  0.00660    CDp =  0.01831
 plradd ia,ip,cpol           37           0  1.97664311E-04

 Point added to stored polar  1
 Point written to save file  s8055_Re400k.base.pol                           
 Dump file unspecified or not available
 Calculating wake trajectory ...
 Calculating source influence matrix ...

 Solving BL system ...

 Side 1  free  transition at x/c =  0.0571   31
 Side 2 forced transition at x/c =  1.0000   67

   1   rms: 0.3430E-01   max: 0.1346E+00   T at   31  1
       a = 12.000      CL =  1.2459
      Cm = -0.0007     CD =  0.02578   =>   CDf =  0.00660    CDp =  0.01919

 Side 1  free  transition at x/c =  0.0547   31
 Side 2 forced transition at x/c =  1.0000   67

   2   rms: 0.4764E-02   max: -.5248E-01   D at   31  1
       a = 12.000      CL =  1.2445
      Cm = -0.0006     CD =  0.02578   =>   CDf =  0.00650    CDp =  0.01928

 Side 1  free  transition at x/c =  0.0550   31
 Side 2 forced transition at x/c =  1.0000   67

   3   rms: 0.3611E-03   max: -.1560E-02   D at   83  1
       a = 12.000      CL =  1.2447
      Cm = -0.0006     CD =  0.02578   =>   CDf =  0.00650    CDp =  0.01928

 Side 1  free  transition at x/c =  0.0550   31
 Side 2 forced transition at x/c =  1.0000   67

[...]

 Solving BL system ...

 Side 1  free  transition at x/c =  0.0504   31
 Side 2 forced transition at x/c =  1.0000   67

   1   rms: 0.3779E-01   max: 0.1257E+00   T at   31  1
       a = 12.750      CL =  1.2718
      Cm =  0.0036     CD =  0.02956   =>   CDf =  0.00643    CDp =  0.02314

 Side 1  free  transition at x/c =  0.0486   30
 Side 2 forced transition at x/c =  1.0000   67

   2   rms: 0.4971E-02   max: -.4161E-01   D at   31  1
       a = 12.750      CL =  1.2687
      Cm =  0.0039     CD =  0.02969   =>   CDf =  0.00639    CDp =  0.02330

 Side 1  free  transition at x/c =  0.0485   30
 Side 2 forced transition at x/c =  1.0000   67

   3   rms: 0.2160E-03   max: -.9372E-03   D at   81  1
       a = 12.750      CL =  1.2688
      Cm =  0.0039     CD =  0.02969   =>   CDf =  0.00639    CDp =  0.02330

 Side 1  free  transition at x/c =  0.0485   30
 Side 2 forced transition at x/c =  1.0000   67

   4   rms: 0.4830E-05   max: 0.6467E-04   C at   67  2
       a = 12.750      CL =  1.2688
      Cm =  0.0039     CD =  0.02969   =>   CDf =  0.00639    CDp =  0.02330
 plradd ia,ip,cpol           41           0  1.97664311E-04

 Point added to stored polar  1
 Point written to save file  s8055_Re400k.base.pol                           
 Dump file unspecified or not available
 Calculating wake trajectory ...
 Calculating source influence matrix ...

 Solving BL system ...

 Side 1  free  transition at x/c =  0.0485   30
 Side 2 forced transition at x/c =  1.0000   67

   1   rms: 0.3505E-01   max: -.2088E+00   C at   30  1
       a = 13.000      CL =  1.2847
      Cm =  0.0046     CD =  0.03046   =>   CDf =  0.00600    CDp =  0.02445

 Side 1  free  transition at x/c =  0.0468   31
 Side 2 forced transition at x/c =  1.0000   66

   2   rms: 0.2871E-02   max: -.3310E-01   D at    2  1
       a = 13.000      CL =  1.2828
      Cm =  0.0047     CD =  0.03053   =>   CDf =  0.00625    CDp =  0.02428

 Side 1  free  transition at x/c =  0.0469   31
 Side 2 forced transition at x/c =  1.0000   66

   3   rms: 0.6468E-03   max: -.8010E-02   D at    4  1
       a = 13.000      CL =  1.2829
      Cm =  0.0047     CD =  0.03053   =>   CDf =  0.00625    CDp =  0.02428

 Side 1  free  transition at x/c =  0.0469   31
 Side 2 forced transition at x/c =  1.0000   66

   4   rms: 0.1431E-05   max: 0.1856E-04   C at   66  2
       a = 13.000      CL =  1.2829
      Cm =  0.0047     CD =  0.03053   =>   CDf =  0.00625    CDp =  0.02428
 plradd ia,ip,cpol           42           0  1.97664311E-04

 Point added to stored polar  1
 Point written to save file  s8055_Re400k.base.pol                           
 Dump file unspecified or not available
 Calculating wake trajectory ...
 Calculating source influence matrix ...

 Solving BL system ...

 Side 1  free  transition at x/c =  0.0469   31
 Side 2 forced transition at x/c =  1.0000   66

   1   rms: 0.3367E-01   max: 0.9327E-01   T at   31  1   RLX: 0.974
       a = 13.250      CL =  1.2933
      Cm =  0.0057     CD =  0.03184   =>   CDf =  0.00625    CDp =  0.02558

 Side 1  free  transition at x/c =  0.0453   31
 Side 2 forced transition at x/c =  1.0000   66

   2   rms: 0.5621E-02   max: -.6344E-01   D at   31  1
       a = 13.250      CL =  1.2923
      Cm =  0.0058     CD =  0.03178   =>   CDf =  0.00615    CDp =  0.02563

 Side 1  free  transition at x/c =  0.0455   31
 Side 2 forced transition at x/c =  1.0000   66

   3   rms: 0.5507E-03   max: -.2364E-02   D at   80  1
       a = 13.250      CL =  1.2927
      Cm =  0.0058     CD =  0.03177   =>   CDf =  0.00615    CDp =  0.02561

 Side 1  free  transition at x/c =  0.0455   31
 Side 2 forced transition at x/c =  1.0000   66

   4   rms: 0.8409E-05   max: -.7770E-04   D at   76  2
       a = 13.250      CL =  1.2927
      Cm =  0.0058     CD =  0.03177   =>   CDf =  0.00615    CDp =  0.02562
 plradd ia,ip,cpol           43           0  1.97664311E-04

 Point added to stored polar  1
 Point written to save file  s8055_Re400k.base.pol                           
 Dump file unspecified or not available
 Calculating wake trajectory ...
 Calculating source influence matrix ...

 Solving BL system ...

 Side 1  free  transition at x/c =  0.0455   31
 Side 2 forced transition at x/c =  1.0000   66

   1   rms: 0.3343E-01   max: 0.1383E+00   T at   31  1   RLX: 0.941
       a = 13.500      CL =  1.3037
      Cm =  0.0065     CD =  0.03290   =>   CDf =  0.00615    CDp =  0.02675

 Side 1  free  transition at x/c =  0.0437   31
 Side 2 forced transition at x/c =  1.0000   66

   2   rms: 0.3642E-02   max: -.4170E-01   D at   31  1
       a = 13.500      CL =  1.3027
      Cm =  0.0067     CD =  0.03298   =>   CDf =  0.00609    CDp =  0.02689

 Side 1  free  transition at x/c =  0.0437   31
 Side 2 forced transition at x/c =  1.0000   66

   3   rms: 0.2639E-03   max: -.1283E-02   D at   79  1
       a = 13.500      CL =  1.3029
      Cm =  0.0067     CD =  0.03296   =>   CDf =  0.00609    CDp =  0.02688

 Side 1  free  transition at x/c =  0.0437   31
 Side 2 forced transition at x/c =  1.0000   66

   4   rms: 0.6133E-05   max: 0.9413E-04   C at   66  2
       a = 13.500      CL =  1.3029
      Cm =  0.0067     CD =  0.03296   =>   CDf =  0.00609    CDp =  0.02688
 plradd ia,ip,cpol           44           0  1.97664311E-04

 Point added to stored polar  1
 Point written to save file  s8055_Re400k.base.pol                           
 Dump file unspecified or not available
 Calculating wake trajectory ...
 Calculating source influence matrix ...

 Solving BL system ...

 Side 1  free  transition at x/c =  0.0437   31
 Side 2 forced transition at x/c =  1.0000   66

   1   rms: 0.3476E-01   max: 0.1576E+00   T at   31  1   RLX: 0.908
       a = 13.750      CL =  1.3129
      Cm =  0.0073     CD =  0.03414   =>   CDf =  0.00609    CDp =  0.02805

 Side 1  free  transition at x/c =  0.0420   31
 Side 2 forced transition at x/c =  1.0000   66

   2   rms: 0.5282E-02   max: 0.3116E-01   D at   78  1
       a = 13.750      CL =  1.3101
      Cm =  0.0076     CD =  0.03448   =>   CDf =  0.00606    CDp =  0.02842

 Side 1  free  transition at x/c =  0.0419   31
 Side 2 forced transition at x/c =  1.0000   66

   3   rms: 0.3132E-03   max: 0.3442E-02   D at   77  2
       a = 13.750      CL =  1.3099
      Cm =  0.0076     CD =  0.03445   =>   CDf =  0.00605    CDp =  0.02840

 Side 1  free  transition at x/c =  0.0419   31
 Side 2 forced transition at x/c =  1.0000   66

   4   rms: 0.5466E-05   max: -.7815E-04   C at   66  2
       a = 13.750      CL =  1.3099
      Cm =  0.0076     CD =  0.03445   =>   CDf =  0.00605    CDp =  0.02840
 plradd ia,ip,cpol           45           0  1.97664311E-04

 Point added to stored polar  1
 Point written to save file  s8055_Re400k.base.pol                           
 Dump file unspecified or not available
 Calculating wake trajectory ...
 Calculating source influence matrix ...

 Solving BL system ...

 Side 1  free  transition at x/c =  0.0419   31
 Side 2 forced transition at x/c =  1.0000   66

   1   rms: 0.3516E-01   max: 0.1130E+00   T at   31  1   RLX: 0.865
       a = 14.000      CL =  1.3148
      Cm =  0.0084     CD =  0.03610   =>   CDf =  0.00605    CDp =  0.03005

 Side 1  free  transition at x/c =  0.0407   31
 Side 2 forced transition at x/c =  1.0000   66

   2   rms: 0.8260E-02   max: 0.3810E-01   D at   77  1
       a = 14.000      CL =  1.3110
      Cm =  0.0089     CD =  0.03661   =>   CDf =  0.00601    CDp =  0.03060

 Side 1  free  transition at x/c =  0.0405   31
 Side 2 forced transition at x/c =  1.0000   66

   3   rms: 0.6106E-03   max: 0.3289E-02   D at   78  2
       a = 14.000      CL =  1.3105
      Cm =  0.0089     CD =  0.03659   =>   CDf =  0.00601    CDp =  0.03058

 Side 1  free  transition at x/c =  0.0405   31
 Side 2 forced transition at x/c =  1.0000   66

   4   rms: 0.8101E-05   max: 0.7970E-04   D at   78  2
       a = 14.000      CL =  1.3105
      Cm =  0.0089     CD =  0.03658   =>   CDf =  0.00601    CDp =  0.03057
 plradd ia,ip,cpol           46           0  1.97664311E-04

 Point added to stored polar  1
 Point written to save file  s8055_Re400k.base.pol                           
 Dump file unspecified or not available
 Calculating wake trajectory ...
 Calculating source influence matrix ...

 Solving BL system ...

 Side 1  free  transition at x/c =  0.0405   31
 Side 2 forced transition at x/c =  1.0000   66

   1   rms: 0.4406E-01   max: 0.1367E+00   D at   72  1   RLX: 0.815
       a = 14.250      CL =  1.3092
      Cm =  0.0100     CD =  0.03889   =>   CDf =  0.00601    CDp =  0.03288

 Side 1  free  transition at x/c =  0.0394   30
 Side 2 forced transition at x/c =  1.0000   66

   2   rms: 0.1798E-01   max: -.1711E+00   D at   30  1
       a = 14.250      CL =  1.3153
      Cm =  0.0097     CD =  0.03832   =>   CDf =  0.00591    CDp =  0.03240

 Side 1  free  transition at x/c =  0.0395   30
 Side 2 forced transition at x/c =  1.0000   66

   3   rms: 0.3699E-02   max: -.1519E-01   D at   76  1
       a = 14.250      CL =  1.3180
      Cm =  0.0097     CD =  0.03812   =>   CDf =  0.00588    CDp =  0.03224

 Side 1  free  transition at x/c =  0.0394   30
 Side 2 forced transition at x/c =  1.0000   66

   4   rms: 0.8179E-04   max: -.8118E-03   D at   78  2
       a = 14.250      CL =  1.3181
      Cm =  0.0097     CD =  0.03814   =>   CDf =  0.00588    CDp =  0.03226
 plradd ia,ip,cpol           47           0 -2.52114078E-05

 Point added to stored polar  1
 Point written to save file  s8055_Re400k.base.pol                           
 Dump file unspecified or not available
 Calculating wake trajectory ...
 Calculating source influence matrix ...

 Solving BL system ...

 Side 1  free  transition at x/c =  0.0394   30
 Side 2 forced transition at x/c =  1.0000   66

   1   rms: 0.3191E-01   max: 0.1211E+00   T at   30  1   RLX: 0.802
       a = 14.500      CL =  1.3261
      Cm =  0.0101     CD =  0.03943   =>   CDf =  0.00588    CDp =  0.03355

 Side 1  free  transition at x/c =  0.0385   30
 Side 2 forced transition at x/c =  1.0000   66

   2   rms: 0.6420E-02   max: 0.2673E-01   D at   75  1
       a = 14.500      CL =  1.3262
      Cm =  0.0102     CD =  0.03976   =>   CDf =  0.00578    CDp =  0.03399

 Side 1  free  transition at x/c =  0.0383   30
 Side 2 forced transition at x/c =  1.0000   66

   3   rms: 0.4928E-03   max: 0.4252E-02   D at   78  2
       a = 14.500      CL =  1.3258
      Cm =  0.0103     CD =  0.03973   =>   CDf =  0.00575    CDp =  0.03398

 Side 1  free  transition at x/c =  0.0383   30
 Side 2 forced transition at x/c =  1.0000   66

   4   rms: 0.1279E-04   max: 0.1708E-03   D at   78  2
       a = 14.500      CL =  1.3258
      Cm =  0.0103     CD =  0.03973   =>   CDf =  0.00575    CDp =  0.03398
 plradd ia,ip,cpol           48           0 -2.52114078E-05

 Point added to stored polar  1
 Point written to save file  s8055_Re400k.base.pol                           
 Dump file unspecified or not available
 Calculating wake trajectory ...
 Calculating source influence matrix ...

 Solving BL system ...

 Side 1  free  transition at x/c =  0.0383   30
 Side 2 forced transition at x/c =  1.0000   66

   1   rms: 0.3227E-01   max: 0.9682E-01   T at   30  1   RLX: 0.773
       a = 14.750      CL =  1.3319
      Cm =  0.0106     CD =  0.04119   =>   CDf =  0.00576    CDp =  0.03544

 Side 1  free  transition at x/c =  0.0374   30
 Side 2 forced transition at x/c =  1.0000   66

   2   rms: 0.7435E-02   max: 0.2959E-01   D at   74  1
       a = 14.750      CL =  1.3320
      Cm =  0.0108     CD =  0.04158   =>   CDf =  0.00567    CDp =  0.03591

 Side 1  free  transition at x/c =  0.0372   30
 Side 2 forced transition at x/c =  1.0000   66

   3   rms: 0.5508E-03   max: 0.3196E-02   D at   74  1
       a = 14.750      CL =  1.3316
      Cm =  0.0108     CD =  0.04154   =>   CDf =  0.00565    CDp =  0.03590

 Side 1  free  transition at x/c =  0.0372   30
 Side 2 forced transition at x/c =  1.0000   66

   4   rms: 0.1098E-04   max: 0.1094E-03   D at   78  2
       a = 14.750      CL =  1.3316
      Cm =  0.0108     CD =  0.04154   =>   CDf =  0.00565    CDp =  0.03589
 plradd ia,ip,cpol           49           0 -2.52114078E-05

 Point added to stored polar  1
 Point written to save file  s8055_Re400k.base.pol                           
 Dump file unspecified or not available
 Calculating wake trajectory ...
 Calculating source influence matrix ...

 Solving BL system ...

 Side 1  free  transition at x/c =  0.0372   30
 Side 2 forced transition at x/c =  1.0000   66

   1   rms: 0.3257E-01   max: 0.1040E+00   T at   30  1   RLX: 0.746
       a = 15.000      CL =  1.3369
      Cm =  0.0111     CD =  0.04305   =>   CDf =  0.00520    CDp =  0.03786

 Side 1  free  transition at x/c =  0.0362   31
 Side 2 forced transition at x/c =  1.0000   65

   2   rms: 0.8580E-02   max: -.3374E-01   D at   31  1
       a = 15.000      CL =  1.3370
      Cm =  0.0112     CD =  0.04353   =>   CDf =  0.00557    CDp =  0.03796

 Side 1  free  transition at x/c =  0.0360   31
 Side 2 forced transition at x/c =  1.0000   65

   3   rms: 0.7565E-03   max: -.6335E-02   D at    4  1
       a = 15.000      CL =  1.3366
      Cm =  0.0112     CD =  0.04347   =>   CDf =  0.00554    CDp =  0.03793

 Side 1  free  transition at x/c =  0.0360   31
 Side 2 forced transition at x/c =  1.0000   65

   4   rms: 0.1031E-04   max: 0.8785E-04   D at   78  2
       a = 15.000      CL =  1.3366
      Cm =  0.0112     CD =  0.04347   =>   CDf =  0.00554    CDp =  0.03793
 plradd ia,ip,cpol           50           0 -2.52114078E-05

 Point added to stored polar  1
 Point written to save file  s8055_Re400k.base.pol                           
 Dump file unspecified or not available
 Calculating wake trajectory ...
 Calculating source influence matrix ...

 Solving BL system ...

 Side 1  free  transition at x/c =  0.0360   31
 Side 2 forced transition at x/c =  1.0000   65

   1   rms: 0.3288E-01   max: 0.1239E+00   T at   31  1   RLX: 0.720
       a = 15.250      CL =  1.3412
      Cm =  0.0113     CD =  0.04505   =>   CDf =  0.00555    CDp =  0.03950

 Side 1  free  transition at x/c =  0.0351   31
 Side 2 forced transition at x/c =  1.0000   65

   2   rms: 0.9596E-02   max: -.4341E-01   D at   31  1
       a = 15.250      CL =  1.3407
      Cm =  0.0114     CD =  0.04570   =>   CDf =  0.00549    CDp =  0.04021

 Side 1  free  transition at x/c =  0.0348   31
 Side 2 forced transition at x/c =  1.0000   65

   3   rms: 0.8751E-03   max: 0.5137E-02   D at   78  2
       a = 15.250      CL =  1.3401
      Cm =  0.0114     CD =  0.04565   =>   CDf =  0.00547    CDp =  0.04017

 Side 1  free  transition at x/c =  0.0348   31
 Side 2 forced transition at x/c =  1.0000   65

   4   rms: 0.3779E-04   max: 0.3012E-03   D at   78  2
       a = 15.250      CL =  1.3400
      Cm =  0.0114     CD =  0.04564   =>   CDf =  0.00547    CDp =  0.04017
 plradd ia,ip,cpol           51           0 -2.52114078E-05

 Point added to stored polar  1
 Point written to save file  s8055_Re400k.base.pol                           
 Dump file unspecified or not available
 Calculating wake trajectory ...
 Calculating source influence matrix ...

 Solving BL system ...

 Side 1  free  transition at x/c =  0.0348   31
 Side 2 forced transition at x/c =  1.0000   65

   1   rms: 0.3396E-01   max: 0.1085E+00   D at   70  1   RLX: 0.692
       a = 15.500      CL =  1.3425
      Cm =  0.0114     CD =  0.04745   =>   CDf =  0.00548    CDp =  0.04198

 Side 1  free  transition at x/c =  0.0341   31
 Side 2 forced transition at x/c =  1.0000   65

   2   rms: 0.1227E-01   max: 0.5319E-01   D at   72  1
       a = 15.500      CL =  1.3403
      Cm =  0.0115     CD =  0.04842   =>   CDf =  0.00544    CDp =  0.04298

 Side 1  free  transition at x/c =  0.0338   31
 Side 2 forced transition at x/c =  1.0000   65

   3   rms: 0.1423E-02   max: 0.9365E-02   D at   78  2
       a = 15.500      CL =  1.3393
      Cm =  0.0116     CD =  0.04834   =>   CDf =  0.00542    CDp =  0.04293

 Side 1  free  transition at x/c =  0.0338   31
 Side 2 forced transition at x/c =  1.0000   65

   4   rms: 0.4577E-04   max: 0.4220E-03   D at   78  2
       a = 15.500      CL =  1.3393
      Cm =  0.0116     CD =  0.04833   =>   CDf =  0.00541    CDp =  0.04292
 plradd ia,ip,cpol           52           0 -2.52114078E-05

 Point added to stored polar  1
 Point written to save file  s8055_Re400k.base.pol                           
 Dump file unspecified or not available
 Calculating wake trajectory ...
 Calculating source influence matrix ...

 Solving BL system ...

 Side 1  free  transition at x/c =  0.0338   31
 Side 2 forced transition at x/c =  1.0000   65

   1   rms: 0.3766E-01   max: 0.1326E+00   D at   68  1   RLX: 0.660
       a = 15.750      CL =  1.3383
      Cm =  0.0116     CD =  0.05059   =>   CDf =  0.00542    CDp =  0.04518

 Side 1  free  transition at x/c =  0.0329   31
 Side 2 forced transition at x/c =  1.0000   65

   2   rms: 0.1753E-01   max: 0.6578E-01   D at   71  1
       a = 15.750      CL =  1.3323
      Cm =  0.0118     CD =  0.05207   =>   CDf =  0.00538    CDp =  0.04669

 Side 1  free  transition at x/c =  0.0325   30
 Side 2 forced transition at x/c =  1.0000   65

   3   rms: 0.9579E-02   max: -.1025E+00   D at   30  1
       a = 15.750      CL =  1.3352
      Cm =  0.0116     CD =  0.05147   =>   CDf =  0.00532    CDp =  0.04615

 Side 1  free  transition at x/c =  0.0327   30
 Side 2 forced transition at x/c =  1.0000   65

   4   rms: 0.2008E-02   max: -.8152E-02   D at   71  1
       a = 15.750      CL =  1.3365
      Cm =  0.0116     CD =  0.05133   =>   CDf =  0.00532    CDp =  0.04601

 Side 1  free  transition at x/c =  0.0327   30
 Side 2 forced transition at x/c =  1.0000   65

   5   rms: 0.1530E-03   max: -.9558E-03   D at   78  2
       a = 15.750      CL =  1.3366
      Cm =  0.0116     CD =  0.05134   =>   CDf =  0.00532    CDp =  0.04603

 Side 1  free  transition at x/c =  0.0327   30
 Side 2 forced transition at x/c =  1.0000   65

   6   rms: 0.7197E-05   max: 0.6326E-04   C at   65  2
       a = 15.750      CL =  1.3367
      Cm =  0.0116     CD =  0.05135   =>   CDf =  0.00532    CDp =  0.04603
 plradd ia,ip,cpol           53           0 -2.52114078E-05

 Point added to stored polar  1
 Point written to save file  s8055_Re400k.base.pol                           
 Dump file unspecified or not available
 Calculating wake trajectory ...
 Calculating source influence matrix ...

 Solving BL system ...

 Side 1  free  transition at x/c =  0.0327   30
 Side 2 forced transition at x/c =  1.0000   65

   1   rms: 0.3262E-01   max: -.1526E+00   C at   30  1   RLX: 0.641
       a = 16.000      CL =  1.3411
      Cm =  0.0113     CD =  0.05299   =>   CDf =  0.00532    CDp =  0.04767

 Side 1  free  transition at x/c =  0.0321   30
 Side 2 forced transition at x/c =  1.0000   65

   2   rms: 0.1184E-01   max: 0.4396E-01   T at   30  1
       a = 16.000      CL =  1.3417
      Cm =  0.0112     CD =  0.05389   =>   CDf =  0.00521    CDp =  0.04868

 Side 1  free  transition at x/c =  0.0317   30
 Side 2 forced transition at x/c =  1.0000   65

   3   rms: 0.1576E-02   max: 0.9479E-02   D at   69  1
       a = 16.000      CL =  1.3406
      Cm =  0.0112     CD =  0.05384   =>   CDf =  0.00515    CDp =  0.04868

 Side 1  free  transition at x/c =  0.0317   30
 Side 2 forced transition at x/c =  1.0000   65

   4   rms: 0.8861E-04   max: 0.6482E-03   D at   79  2
       a = 16.000      CL =  1.3405
      Cm =  0.0112     CD =  0.05382   =>   CDf =  0.00515    CDp =  0.04867
 plradd ia,ip,cpol           54           0 -2.52114078E-05

 Point added to stored polar  1
 Point written to save file  s8055_Re400k.base.pol                           
 Dump file unspecified or not available

.OPERva   c>  
 Polar accumulation disabled

.OPERv   c>  
 XFOIL   c>  
 XFOIL   c>  