
 ===================================================
  XFOIL Version 6.99
  Copyright (C) 2000   Mark Drela, Harold Youngren

  This software comes with ABSOLUTELY NO WARRANTY,
    subject to the GNU General Public License.

  Caveat computor
 ===================================================

 File  xfoil.def  not found

   QUIT    Exit program

  .OPER    Direct operating point(s)
  .MDES    Complex mapping design routine
  .QDES    Surface speed design routine
  .GDES    Geometry design routine

   SAVE f  Write airfoil to labeled coordinate file
   PSAV f  Write airfoil to plain coordinate file
   ISAV f  Write airfoil to ISES coordinate file
   MSAV f  Write airfoil to MSES coordinate file
   REVE    Reverse written-airfoil node ordering

   LOAD f  Read buffer airfoil from coordinate file
   NACA i  Set NACA 4,5-digit airfoil and buffer airfoil
   INTE    Set buffer airfoil by interpolating two airfoils
   NORM    Buffer airfoil normalization toggle
   XYCM rr Change CM reference location, currently  0.25000 0.00000

   BEND    Display structural properties of current airfoil

   PCOP    Set current-airfoil panel nodes directly from buffer airfoil points
   PANE    Set current-airfoil panel nodes ( 160 ) based on curvature
  .PPAR    Show/change paneling

  .PLOP    Plotting options

   WDEF f  Write  current-settings file
   RDEF f  Reread current-settings file
   NAME s  Specify new airfoil name
   NINC    Increment name version number

   Z       Zoom    | (available in all menus)
   U       Unzoom  | 

 XFOIL   c>  
 Labeled airfoil file.  Name:  S8052 (11.88%)                                  

 Number of input coordinate points:  81
 Counterclockwise ordering
 Max thickness =     0.118948  at x =   0.333
 Max camber    =     0.015963  at x =   0.369

  LE  x,y  =   0.00001  -0.00037  |   Chord =   0.99999
  TE  x,y  =   1.00000   0.00000  |

 Current airfoil nodes set from buffer airfoil nodes (  81 )

 XFOIL   c>  
 XFOIL   c>  
 Sharp trailing edge

 Paneling parameters used...
   Number of panel nodes       160
   Panel bunching parameter    1.000
   TE/LE panel density ratio   0.150
   Refined-area/LE panel density ratio    0.200
   Top    side refined area x/c limits  1.000 1.000
   Bottom side refined area x/c limits  1.000 1.000

 XFOIL   c>  
.OPERi   c>  
 Xtr/c     =  1.0000    top    side
 Xtr/c     =  1.0000    bottom side
 Ncrit     =    9.00   ( 0.070 % turb. level )
 Vacc      =  0.0100

 Klag  =  5.6000     Uxwt  =    1.00
 A     =  6.7000     B     =  0.7500       KCt = 0.01485
 CtiniK=  1.8000     CtiniX=  3.3000

..VPAR   c>  
..VPAR   c>  
.OPERi   c>  
 M  =    0.0000
 Re =    500000

.OPERv   c>  
.OPERv   c>  
.OPERv   c>  
 Polar  1 newly created for accumulation
 Airfoil archived with polar: S8052 (11.88%)                                  

Enter  polar save filename  OR  <return> for no file   s>  
 New polar save file available

Enter  polar dump filename  OR  <return> for no file   s>  
 Polar dump file will NOT be written

 Polar accumulation enabled

.OPERva   c>   Calculating unit vorticity distributions ...
 Calculating wake trajectory ...
 Calculating source influence matrix ...

 Solving BL system ...

 Initializing BL ...
    side            1  ...
 MRCHUE: Inverse mode at  19     Hk =   3.972
 MRCHUE: Inverse mode at  20     Hk =   5.171
 MRCHUE: Inverse mode at  21     Hk =   6.366
 MRCHUE: Inverse mode at  22     Hk =   7.585
 MRCHUE: Inverse mode at  23     Hk =   8.828
 MRCHUE: Inverse mode at  24     Hk =  10.101
 MRCHUE: Inverse mode at  25     Hk =   4.349
 MRCHUE: Inverse mode at  26     Hk =   2.500
 MRCHUE: Inverse mode at  63     Hk =   2.500
 MRCHUE: Inverse mode at  64     Hk =   2.500
 MRCHUE: Inverse mode at  65     Hk =   2.500
 MRCHUE: Inverse mode at  66     Hk =   2.500
 MRCHUE: Inverse mode at  67     Hk =   2.500
 MRCHUE: Inverse mode at  68     Hk =   2.500
 MRCHUE: Inverse mode at  69     Hk =   2.500
 MRCHUE: Inverse mode at  70     Hk =   2.500
 MRCHUE: Inverse mode at  71     Hk =   2.500
 MRCHUE: Inverse mode at  72     Hk =   2.500
 MRCHUE: Inverse mode at  73     Hk =   2.500
 MRCHUE: Inverse mode at  74     Hk =   2.500
 MRCHUE: Inverse mode at  75     Hk =   2.500
 MRCHUE: Inverse mode at  76     Hk =   2.500
 MRCHUE: Inverse mode at  77     Hk =   2.500
 MRCHUE: Inverse mode at  78     Hk =   2.500
 MRCHUE: Inverse mode at  79     Hk =   2.500
 MRCHUE: Inverse mode at  80     Hk =   2.500
 MRCHUE: Inverse mode at  81     Hk =   2.500
 MRCHUE: Inverse mode at  82     Hk =   2.500
 MRCHUE: Inverse mode at  83     Hk =   2.500
 MRCHUE: Inverse mode at  84     Hk =   2.500
 MRCHUE: Inverse mode at  85     Hk =   2.500
 MRCHUE: Inverse mode at  86     Hk =   2.500
 MRCHUE: Inverse mode at  87     Hk =   2.500
 MRCHUE: Inverse mode at  88     Hk =   2.500
 MRCHUE: Convergence failed at  89  side 1    Res =  0.4766E+01
 MRCHUE: Inverse mode at  90     Hk =   2.500
 MRCHUE: Inverse mode at  91     Hk =   2.500
 MRCHUE: Inverse mode at  92     Hk =   2.500
 MRCHUE: Inverse mode at  93     Hk =   2.500
 MRCHUE: Inverse mode at  94     Hk =   2.500
 MRCHUE: Inverse mode at  95     Hk =   2.500
 MRCHUE: Convergence failed at  96  side 1    Res =  0.4613E+01
 MRCHUE: Inverse mode at  97     Hk =   2.500
 MRCHUE: Inverse mode at  98     Hk =   2.500
    side            2  ...
 MRCHUE: Inverse mode at  63     Hk =   3.800
 MRCHUE: Inverse mode at  64     Hk =   4.013

 MRCHDU: Convergence failed at  89  side 1    Res =  0.1356E+01
 MRCHDU: Convergence failed at  90  side 1    Res =  0.1406E+01
 MRCHDU: Convergence failed at  91  side 1    Res =  0.1537E+01
 MRCHDU: Convergence failed at  92  side 1    Res =  0.1583E+01
 MRCHDU: Convergence failed at  93  side 1    Res =  0.1631E+01
 MRCHDU: Convergence failed at  94  side 1    Res =  0.1679E+01
 MRCHDU: Convergence failed at  95  side 1    Res =  0.1730E+01
 MRCHDU: Convergence failed at  96  side 1    Res =  0.3948E+01
 MRCHDU: Convergence failed at  97  side 1    Res =  0.3585E+01
 MRCHDU: Convergence failed at  98  side 1    Res =  0.3538E+01
 Side 1  free  transition at x/c =  0.0065   25
 Side 2 forced transition at x/c =  1.0000   64

   1   rms: 0.5949E+00   max: -.2880E+01   C at   64  2   RLX: 0.174
       a = 16.250      CL =  2.1820
      Cm = -0.1387     CD =  0.01659   =>   CDf =  0.00396    CDp =  0.01262

 Side 1  free  transition at x/c =  0.0068   25
 Side 2 forced transition at x/c =  1.0000   64
 idif Ue xi dudx           1  0.11738956      1.60577297E-02   7.3104706    
 Uenew xinew           2  2.08979938E-02  2.85863876E-03

   2   rms: 0.5041E+00   max: -.1731E+01   C at   64  2   RLX: 0.289
       a = 16.250      CL =  2.0243
      Cm = -0.1022     CD =  0.02157   =>   CDf =  0.00485    CDp =  0.01672

 Side 1  free  transition at x/c =  0.0072   24
 Side 2 forced transition at x/c =  1.0000   65

   3   rms: 0.5309E+00   max: 0.1513E+01   D at   73  2   RLX: 0.454
       a = 16.250      CL =  1.7815
      Cm = -0.0619     CD =  0.02991   =>   CDf =  0.00436    CDp =  0.02555

 Side 1  free  transition at x/c =  0.0083   24
 Side 2 forced transition at x/c =  1.0000   65
 idif Ue xi dudx           1  0.15035084      1.70836449E-02   8.8008642    
 Uenew xinew           2  4.16783243E-02  4.73570824E-03

   4   rms: 0.4381E+00   max: 0.1311E+01   D at   69  2   RLX: 0.474
       a = 16.250      CL =  1.5775
      Cm = -0.0337     CD =  0.04111   =>   CDf =  0.00537    CDp =  0.03574

 MRCHDU: Convergence failed at  24  side 1    Res =  0.7902E+01
 MRCHDU: Convergence failed at  25  side 1    Res =  0.3127E+01
 MRCHDU: Convergence failed at  26  side 1    Res =  0.6294E+01
 MRCHDU: Convergence failed at  27  side 1    Res =  0.2711E+02
 MRCHDU: Convergence failed at  28  side 1    Res =  0.3764E+02
 MRCHDU: Convergence failed at  29  side 1    Res =  0.3124E+02
 MRCHDU: Convergence failed at  30  side 1    Res =  0.2005E+02
 MRCHDU: Convergence failed at  31  side 1    Res =  0.1494E+02
 MRCHDU: Convergence failed at  32  side 1    Res =  0.1280E+02
 MRCHDU: Convergence failed at  33  side 1    Res =  0.1272E+02
 MRCHDU: Convergence failed at  34  side 1    Res =  0.1020E+02
 MRCHDU: Convergence failed at  35  side 1    Res =  0.1011E+02
 MRCHDU: Convergence failed at  36  side 1    Res =  0.9988E+01
 MRCHDU: Convergence failed at  37  side 1    Res =  0.9415E+01
 MRCHDU: Convergence failed at  38  side 1    Res =  0.9080E+01
 MRCHDU: Convergence failed at  39  side 1    Res =  0.3624E+04
 MRCHDU: Convergence failed at  40  side 1    Res =  0.2159E+02
 MRCHDU: Convergence failed at  41  side 1    Res =  0.2155E+02
 MRCHDU: Convergence failed at  42  side 1    Res =  0.4278E+02
 MRCHDU: Convergence failed at  43  side 1    Res =  0.7669E+03
 MRCHDU: Convergence failed at  44  side 1    Res =  0.2897E+02
 MRCHDU: Convergence failed at  45  side 1    Res =  0.3320E+02
 MRCHDU: Convergence failed at  46  side 1    Res =  0.3830E+02
 MRCHDU: Convergence failed at  47  side 1    Res =  0.4466E+02
 MRCHDU: Convergence failed at  48  side 1    Res =  0.5277E+02
 MRCHDU: Convergence failed at  49  side 1    Res =  0.6337E+02
 MRCHDU: Convergence failed at  50  side 1    Res =  0.7818E+02
 MRCHDU: Convergence failed at  51  side 1    Res =  0.4630E+02
 MRCHDU: Convergence failed at  52  side 1    Res =  0.4189E+02
 MRCHDU: Convergence failed at  53  side 1    Res =  0.3838E+02
 MRCHDU: Convergence failed at  54  side 1    Res =  0.3558E+02
 MRCHDU: Convergence failed at  55  side 1    Res =  0.3325E+02
 MRCHDU: Convergence failed at  56  side 1    Res =  0.9712E+03
 MRCHDU: Convergence failed at  57  side 1    Res =  0.2839E+02
 MRCHDU: Convergence failed at  58  side 1    Res =  0.1120E+04
 MRCHDU: Convergence failed at  59  side 1    Res =  0.6973E+03
 MRCHDU: Convergence failed at  60  side 1    Res =  0.3874E+03
 MRCHDU: Convergence failed at  61  side 1    Res =  0.2805E+02
 MRCHDU: Convergence failed at  62  side 1    Res =  0.2797E+02
 MRCHDU: Convergence failed at  63  side 1    Res =  0.2794E+02
 MRCHDU: Convergence failed at  64  side 1    Res =  0.2267E+02
 MRCHDU: Convergence failed at  65  side 1    Res =  0.2635E+02
 MRCHDU: Convergence failed at  66  side 1    Res =  0.2354E+04
 MRCHDU: Convergence failed at  67  side 1    Res =  0.2813E+02
 MRCHDU: Convergence failed at  68  side 1    Res =  0.2965E+03
 MRCHDU: Convergence failed at  69  side 1    Res =  0.2810E+02
 MRCHDU: Convergence failed at  70  side 1    Res =  0.3637E+03
 MRCHDU: Convergence failed at  71  side 1    Res =  0.1932E+04
 MRCHDU: Convergence failed at  72  side 1    Res =  0.2769E+02
 MRCHDU: Convergence failed at  73  side 1    Res =  0.2800E+02
 MRCHDU: Convergence failed at  74  side 1    Res =  0.3034E+03
 MRCHDU: Convergence failed at  75  side 1    Res =  0.2998E+04
 MRCHDU: Convergence failed at  76  side 1    Res =  0.1077E+05
 MRCHDU: Convergence failed at  77  side 1    Res =  0.2855E+02
 MRCHDU: Convergence failed at  78  side 1    Res =  0.1960E+03
 MRCHDU: Convergence failed at  79  side 1    Res =  0.2942E+02
 MRCHDU: Convergence failed at  80  side 1    Res =  0.4992E+03
 MRCHDU: Convergence failed at  81  side 1    Res =  0.1457E+03
 MRCHDU: Convergence failed at  82  side 1    Res =  0.2766E+02
 MRCHDU: Convergence failed at  83  side 1    Res =  0.2907E+02
 MRCHDU: Convergence failed at  84  side 1    Res =  0.6861E+02
 MRCHDU: Convergence failed at  85  side 1    Res =  0.9040E+02
 MRCHDU: Convergence failed at  86  side 1    Res =  0.2773E+03
 MRCHDU: Convergence failed at  87  side 1    Res =  0.4574E+03
 MRCHDU: Convergence failed at  88  side 1    Res =  0.2575E+02
 MRCHDU: Convergence failed at  89  side 1    Res =  0.2702E+03
 MRCHDU: Convergence failed at  90  side 1    Res =  0.2902E+03
 MRCHDU: Convergence failed at  91  side 1    Res =  0.7441E+02
 MRCHDU: Convergence failed at  92  side 1    Res =  0.5028E+02
 MRCHDU: Convergence failed at  93  side 1    Res =  0.4608E+02
 MRCHDU: Convergence failed at  94  side 1    Res =  0.2604E+02
 MRCHDU: Convergence failed at  95  side 1    Res =  0.1131E+03
 MRCHDU: Convergence failed at  96  side 1    Res =  0.3220E+02
 Side 1  free  transition at x/c =  0.0104   24
 Side 2 forced transition at x/c =  1.0000   66

   5   rms: 0.1184E+02   max: 0.4142E+02   C at   96  1   RLX: 0.036
       a = 16.250      CL =  7.8199
      Cm = -1.9500     CD =  0.00296   =>   CDf = -0.00011    CDp =  0.00307

 MRCHDU: Convergence failed at  56  side 1    Res =  0.4780E+01
 MRCHDU: Convergence failed at  57  side 1    Res =  0.1136E+01
 MRCHDU: Convergence failed at  58  side 1    Res =  0.2126E+01
 MRCHDU: Convergence failed at  59  side 1    Res =  0.1675E+01
 Side 1  free  transition at x/c =  0.0100   24
 Side 2 forced transition at x/c =  1.0000   66

   6   rms: 0.1773E+01   max: -.1767E+01   U at   96  1   RLX: 0.085
       a = 16.250      CL =  6.5036
      Cm = -1.4815     CD =  0.01971   =>   CDf =  0.02046    CDp = -0.00075

 Side 1  free  transition at x/c =  0.0095   24
 Side 2 forced transition at x/c =  1.0000   66

   7   rms: 0.1635E+01   max: -.1619E+01   U at   96  1   RLX: 0.109
       a = 16.250      CL =  5.8713
      Cm = -1.2693     CD =  0.01898   =>   CDf =  0.01864    CDp =  0.00034

 Side 1  free  transition at x/c =  0.0090   24
 Side 2 forced transition at x/c =  1.0000   66

   8   rms: 0.1468E+01   max: -.1441E+01   U at   96  1   RLX: 0.127
       a = 16.250      CL =  5.2305
      Cm = -1.0542     CD =  0.01843   =>   CDf =  0.01729    CDp =  0.00114

 Side 1  free  transition at x/c =  0.0086   24
 Side 2 forced transition at x/c =  1.0000   66

   9   rms: 0.1335E+01   max: -.1257E+01   U at   96  1   RLX: 0.155
       a = 16.250      CL =  4.5970
      Cm = -0.8435     CD =  0.01779   =>   CDf =  0.01504    CDp =  0.00275

 MRCHDU: Convergence failed at  39  side 1    Res =  0.8005E+00
 MRCHDU: Convergence failed at  40  side 1    Res =  0.8423E+00
 Side 1  free  transition at x/c =  0.0083   24
 Side 2 forced transition at x/c =  1.0000   65

  10   rms: 0.1144E+01   max: -.1070E+01   U at   97  1   RLX: 0.192
       a = 16.250      CL =  4.0555
      Cm = -0.6390     CD =  0.01716   =>   CDf =  0.01503    CDp =  0.00213

 MRCHDU: Convergence failed at  47  side 1    Res =  0.2027E+01
 Side 1  free  transition at x/c =  0.0080   24
 Side 2 forced transition at x/c =  1.0000   65

  11   rms: 0.9686E+00   max: -.8659E+00   U at   97  1   RLX: 0.238
       a = 16.250      CL =  3.5002
      Cm = -0.4621     CD =  0.01666   =>   CDf =  0.01315    CDp =  0.00351

 MRCHDU: Convergence failed at  51  side 1    Res =  0.4465E+00
 MRCHDU: Convergence failed at  52  side 1    Res =  0.6917E+00
 MRCHDU: Convergence failed at  53  side 1    Res =  0.2700E+01
 MRCHDU: Convergence failed at  54  side 1    Res =  0.5857E+00
 MRCHDU: Convergence failed at  61  side 1    Res =  0.8805E+00
 Side 1  free  transition at x/c =  0.0078   24
 Side 2 forced transition at x/c =  1.0000   65

  12   rms: 0.8235E+00   max: -.6302E+00   U at   97  1   RLX: 0.289
       a = 16.250      CL =  3.0534
      Cm = -0.3233     CD =  0.01781   =>   CDf =  0.01253    CDp =  0.00528

 MRCHDU: Convergence failed at  65  side 1    Res =  0.4219E+00
 MRCHDU: Convergence failed at  70  side 1    Res =  0.8160E+00
 MRCHDU: Convergence failed at  71  side 1    Res =  0.1746E+01
 Side 1  free  transition at x/c =  0.0078   24
 Side 2 forced transition at x/c =  1.0000   65

  13   rms: 0.6643E+00   max: 0.7378E+00   D at   74  2   RLX: 0.347
       a = 16.250      CL =  2.5364
      Cm = -0.2039     CD =  0.02233   =>   CDf =  0.01054    CDp =  0.01179

 Side 1  free  transition at x/c =  0.0082   24
 Side 2 forced transition at x/c =  1.0000   65
 idif Ue xi dudx           1  0.12624614      1.43941641E-02   8.7706470    
 Uenew xinew           2  1.79467387E-02  2.04622746E-03

  14   rms: 0.5334E+00   max: 0.1460E+01   D at   86  1   RLX: 0.474
       a = 16.250      CL =  2.0053
      Cm = -0.0883     CD =  0.02968   =>   CDf =  0.00937    CDp =  0.02031

 Side 1  free  transition at x/c =  0.0095   24
 Side 2 forced transition at x/c =  1.0000   66

  15   rms: 0.3500E+00   max: 0.1267E+01   D at   85  1   RLX: 0.877
       a = 16.250      CL =  1.5021
      Cm =  0.0035     CD =  0.04199   =>   CDf =  0.00697    CDp =  0.03502

 MRCHDU: Convergence failed at  71  side 1    Res =  0.2056E+01
 MRCHDU: Convergence failed at  72  side 1    Res =  0.5317E+01
 MRCHDU: Convergence failed at  73  side 1    Res =  0.2830E+01
 MRCHDU: Convergence failed at  74  side 1    Res =  0.1367E+01
 MRCHDU: Convergence failed at  75  side 1    Res =  0.9085E+00
 MRCHDU: Convergence failed at  76  side 1    Res =  0.4992E+01
 Side 1  free  transition at x/c =  0.0138   25
 Side 2 forced transition at x/c =  1.0000   66

  16   rms: 0.1098E+00   max: 0.8762E+00   D at   76  1
       a = 16.250      CL =  1.4533
      Cm =  0.0108     CD =  0.04632   =>   CDf =  0.00532    CDp =  0.04099

 Side 1  free  transition at x/c =  0.0178   26
 Side 2 forced transition at x/c =  1.0000   66

  17   rms: 0.1368E+00   max: 0.6748E+00   D at   76  1
       a = 16.250      CL =  1.3811
      Cm =  0.0085     CD =  0.05450   =>   CDf =  0.00494    CDp =  0.04956

 MRCHDU: Convergence failed at  27  side 1    Res =  0.1234E+01
 MRCHDU: Convergence failed at  28  side 1    Res =  0.4287E+01
 MRCHDU: Convergence failed at  29  side 1    Res =  0.4499E+01
 MRCHDU: Convergence failed at  30  side 1    Res =  0.5664E+01
 MRCHDU: Convergence failed at  31  side 1    Res =  0.5882E+01
 MRCHDU: Convergence failed at  32  side 1    Res =  0.6034E+01
 MRCHDU: Convergence failed at  33  side 1    Res =  0.6261E+01
 MRCHDU: Convergence failed at  34  side 1    Res =  0.6262E+01
 MRCHDU: Convergence failed at  35  side 1    Res =  0.6465E+01
 MRCHDU: Convergence failed at  36  side 1    Res =  0.7049E+01
 MRCHDU: Convergence failed at  37  side 1    Res =  0.8028E+01
 MRCHDU: Convergence failed at  38  side 1    Res =  0.8599E+01
 MRCHDU: Convergence failed at  39  side 1    Res =  0.9042E+01
 MRCHDU: Convergence failed at  40  side 1    Res =  0.9549E+01
 MRCHDU: Convergence failed at  41  side 1    Res =  0.9934E+01
 MRCHDU: Convergence failed at  42  side 1    Res =  0.5050E+04
 MRCHDU: Convergence failed at  43  side 1    Res =  0.7855E+02
 MRCHDU: Convergence failed at  44  side 1    Res =  0.3748E+02
 MRCHDU: Convergence failed at  45  side 1    Res =  0.6810E+02
 MRCHDU: Convergence failed at  46  side 1    Res =  0.1952E+03
 MRCHDU: Convergence failed at  47  side 1    Res =  0.2731E+03
 MRCHDU: Convergence failed at  48  side 1    Res =  0.3669E+02
 MRCHDU: Convergence failed at  49  side 1    Res =  0.2113E+02
 MRCHDU: Convergence failed at  50  side 1    Res =  0.2385E+02
 MRCHDU: Convergence failed at  51  side 1    Res =  0.2712E+02
 MRCHDU: Convergence failed at  52  side 1    Res =  0.3125E+02
 MRCHDU: Convergence failed at  53  side 1    Res =  0.3665E+02
 MRCHDU: Convergence failed at  54  side 1    Res =  0.4394E+02
 MRCHDU: Convergence failed at  55  side 1    Res =  0.5446E+02
 MRCHDU: Convergence failed at  56  side 1    Res =  0.3527E+02
 MRCHDU: Convergence failed at  57  side 1    Res =  0.3143E+02
 MRCHDU: Convergence failed at  58  side 1    Res =  0.2846E+02
 MRCHDU: Convergence failed at  59  side 1    Res =  0.2611E+02
 MRCHDU: Convergence failed at  60  side 1    Res =  0.3197E+04
 MRCHDU: Convergence failed at  61  side 1    Res =  0.1913E+04
 MRCHDU: Convergence failed at  62  side 1    Res =  0.2026E+02
 MRCHDU: Convergence failed at  63  side 1    Res =  0.7391E+03
 MRCHDU: Convergence failed at  64  side 1    Res =  0.4882E+03
 MRCHDU: Convergence failed at  65  side 1    Res =  0.1788E+02
 MRCHDU: Convergence failed at  66  side 1    Res =  0.1266E+04
 MRCHDU: Convergence failed at  67  side 1    Res =  0.1734E+02
 MRCHDU: Convergence failed at  68  side 1    Res =  0.1714E+02
 MRCHDU: Convergence failed at  69  side 1    Res =  0.1723E+02
 MRCHDU: Convergence failed at  70  side 1    Res =  0.6820E+03
 MRCHDU: Convergence failed at  71  side 1    Res =  0.1868E+02
 MRCHDU: Convergence failed at  72  side 1    Res =  0.1887E+02
 MRCHDU: Convergence failed at  73  side 1    Res =  0.1879E+02
 MRCHDU: Convergence failed at  74  side 1    Res =  0.1854E+02
 MRCHDU: Convergence failed at  75  side 1    Res =  0.9045E+03
 MRCHDU: Convergence failed at  76  side 1    Res =  0.4495E+04
 MRCHDU: Convergence failed at  77  side 1    Res =  0.8057E+03
 MRCHDU: Convergence failed at  78  side 1    Res =  0.9736E+04
 MRCHDU: Convergence failed at  79  side 1    Res =  0.5644E+03
 MRCHDU: Convergence failed at  80  side 1    Res =  0.3246E+03
 MRCHDU: Convergence failed at  81  side 1    Res =  0.2401E+03
 MRCHDU: Convergence failed at  82  side 1    Res =  0.1970E+03
 MRCHDU: Convergence failed at  83  side 1    Res =  0.1651E+03
 MRCHDU: Convergence failed at  84  side 1    Res =  0.1409E+03
 MRCHDU: Convergence failed at  85  side 1    Res =  0.1234E+03
 MRCHDU: Convergence failed at  86  side 1    Res =  0.1038E+03
 MRCHDU: Convergence failed at  87  side 1    Res =  0.9426E+02
 MRCHDU: Convergence failed at  88  side 1    Res =  0.8655E+02
 MRCHDU: Convergence failed at  89  side 1    Res =  0.8009E+02
 MRCHDU: Convergence failed at  90  side 1    Res =  0.7417E+02
 MRCHDU: Convergence failed at  91  side 1    Res =  0.6886E+02
 MRCHDU: Convergence failed at  92  side 1    Res =  0.6396E+02
 MRCHDU: Convergence failed at  93  side 1    Res =  0.5797E+02
 MRCHDU: Convergence failed at  94  side 1    Res =  0.5087E+02
 MRCHDU: Convergence failed at  95  side 1    Res =  0.4377E+02
 MRCHDU: Convergence failed at  96  side 1    Res =  0.3324E+02
 MRCHDU: Convergence failed at  78  side 2    Res =  0.8311E+01
 Side 1  free  transition at x/c =  0.0230   27
 Side 2 forced transition at x/c =  1.0000   66

  18   rms: 0.1242E+03   max: 0.6684E+03   C at   96  1   RLX: 0.002
       a = 16.250      CL =  6.1780
      Cm = -1.5343     CD =  0.00395   =>   CDf =  0.00066    CDp =  0.00328

 Side 1  free  transition at x/c =  0.0233   27
 Side 2 forced transition at x/c =  1.0000   66

  19   rms: 0.1666E+01   max: -.2159E+01   D at   77  2   RLX: 0.122
       a = 16.250      CL =  5.4629
      Cm = -1.2726     CD =  0.00811   =>   CDf =  0.02614    CDp = -0.01803

 Side 1  free  transition at x/c =  0.0187   26
 Side 2 forced transition at x/c =  1.0000   66

  20   rms: 0.1476E+01   max: -.2231E+01   D at   75  2   RLX: 0.130
       a = 16.250      CL =  4.9021
      Cm = -1.0618     CD =  0.00806   =>   CDf =  0.02315    CDp = -0.01509

 Side 1  free  transition at x/c =  0.0147   25
 Side 2 forced transition at x/c =  1.0000   66

  21   rms: 0.1315E+01   max: -.5509E+01   C at   25  1   RLX: 0.091
       a = 16.250      CL =  4.5764
      Cm = -0.9405     CD =  0.00817   =>   CDf =  0.02061    CDp = -0.01245

 Side 1  free  transition at x/c =  0.0121   25
 Side 2 forced transition at x/c =  1.0000   66

  22   rms: 0.1213E+01   max: 0.1762E+01   T at   70  2   RLX: 0.171
       a = 16.250      CL =  4.0458
      Cm = -0.7457     CD =  0.00845   =>   CDf =  0.01910    CDp = -0.01065

 Side 1  free  transition at x/c =  0.0097   24
 Side 2 forced transition at x/c =  1.0000   66

  23   rms: 0.9950E+00   max: 0.1881E+01   T at   68  2   RLX: 0.246
       a = 16.250      CL =  3.4574
      Cm = -0.5350     CD =  0.00937   =>   CDf =  0.01581    CDp = -0.00645

 MRCHDU: Convergence failed at  67  side 2    Res =  0.1915E+01
 Side 1  free  transition at x/c =  0.0083   24
 Side 2 forced transition at x/c =  1.0000   65

  24   rms: 0.7909E+00   max: 0.1080E+01   D at   66  2   RLX: 0.334
       a = 16.250      CL =  2.8939
      Cm = -0.3410     CD =  0.01222   =>   CDf =  0.01355    CDp = -0.00133

 Side 1  free  transition at x/c =  0.0077   24
 Side 2 forced transition at x/c =  1.0000   65

  25   rms: 0.5931E+00   max: 0.1204E+01   D at   67  2   RLX: 0.486
       a = 16.250      CL =  2.3592
      Cm = -0.1721     CD =  0.01788   =>   CDf =  0.01051    CDp =  0.00737

 Side 1  free  transition at x/c =  0.0074   24
 Side 2 forced transition at x/c =  1.0000   65

  26   rms: 0.4540E+00   max: 0.1215E+01   D at   67  2   RLX: 0.682
       a = 16.250      CL =  1.8490
      Cm = -0.0461     CD =  0.02771   =>   CDf =  0.00764    CDp =  0.02007

 MRCHDU: Convergence failed at  83  side 1    Res =  0.2510E+01
 MRCHDU: Convergence failed at  86  side 1    Res =  0.2014E+02
 MRCHDU: Convergence failed at  87  side 1    Res =  0.2521E+01
 MRCHDU: Convergence failed at  88  side 1    Res =  0.1909E+01
 MRCHDU: Convergence failed at  89  side 1    Res =  0.1482E+01
 MRCHDU: Convergence failed at  90  side 1    Res =  0.1203E+01
 MRCHDU: Convergence failed at  91  side 1    Res =  0.9934E+00
 MRCHDU: Convergence failed at  92  side 1    Res =  0.8636E+00
 MRCHDU: Convergence failed at  93  side 1    Res =  0.9363E+00
 MRCHDU: Convergence failed at  94  side 1    Res =  0.2902E+01
 MRCHDU: Convergence failed at  95  side 1    Res =  0.6222E+00
 MRCHDU: Convergence failed at  97  side 1    Res =  0.3667E+01
 Side 1  free  transition at x/c =  0.0083   24
 Side 2 forced transition at x/c =  1.0000   65
 idif Ue xi dudx           1  0.11874452      1.37505531E-02   8.6356182    
 Uenew xinew           2  1.21124610E-02  1.40261650E-03

  27   rms: 0.2719E+00   max: 0.1406E+01   D at   95  1
       a = 16.250      CL =  1.6322
      Cm = -0.0034     CD =  0.03619   =>   CDf =  0.00667    CDp =  0.02952

 MRCHDU: Convergence failed at  90  side 1    Res =  0.2756E+01
 MRCHDU: Convergence failed at  91  side 1    Res =  0.2139E+01
 MRCHDU: Convergence failed at  92  side 1    Res =  0.2081E+01
 MRCHDU: Convergence failed at  93  side 1    Res =  0.2147E+01
 MRCHDU: Convergence failed at  94  side 1    Res =  0.2257E+01
 Side 1  free  transition at x/c =  0.0092   24
 Side 2 forced transition at x/c =  1.0000   66

  28   rms: 0.3437E+00   max: 0.1587E+01   D at   87  1   RLX: 0.815
       a = 16.250      CL =  1.4917
      Cm = -0.0060     CD =  0.04405   =>   CDf =  0.00523    CDp =  0.03882

 Side 1  free  transition at x/c =  0.0129   25
 Side 2 forced transition at x/c =  1.0000   66

  29   rms: 0.1325E+00   max: 0.7104E+00   D at   25  1   RLX: 0.719
       a = 16.250      CL =  1.4170
      Cm =  0.0078     CD =  0.04876   =>   CDf =  0.00505    CDp =  0.04371

 Side 1  free  transition at x/c =  0.0186   26
 Side 2 forced transition at x/c =  1.0000   66
 idif Ue xi dudx           1  0.11496521      1.13217831E-02   10.154338    
 Uenew xinew           2  2.00457382E-03  1.97410583E-04

  30   rms: 0.8375E-01   max: 0.4957E+00   C at   26  1
       a = 16.250      CL =  1.3621
      Cm =  0.0093     CD =  0.05540   =>   CDf =  0.00536    CDp =  0.05004

 Side 1  free  transition at x/c =  0.0234   26
 Side 2 forced transition at x/c =  1.0000   67

  31   rms: 0.4662E-01   max: 0.4820E+00   T at    2  2
       a = 16.250      CL =  1.3826
      Cm =  0.0106     CD =  0.05131   =>   CDf =  0.00419    CDp =  0.04712

 Side 1  free  transition at x/c =  0.0208   27
 Side 2 forced transition at x/c =  1.0000   66

  32   rms: 0.1014E-01   max: -.8129E-01   D at    2  1
       a = 16.250      CL =  1.3771
      Cm =  0.0101     CD =  0.05264   =>   CDf =  0.00476    CDp =  0.04788

 Side 1  free  transition at x/c =  0.0210   27
 Side 2 forced transition at x/c =  1.0000   66

  33   rms: 0.7311E-03   max: -.8051E-02   D at    4  1
       a = 16.250      CL =  1.3772
      Cm =  0.0102     CD =  0.05257   =>   CDf =  0.00476    CDp =  0.04781

 Side 1  free  transition at x/c =  0.0210   27
 Side 2 forced transition at x/c =  1.0000   66

  34   rms: 0.4804E-04   max: -.2050E-03   D at   79  2
       a = 16.250      CL =  1.3772
      Cm =  0.0101     CD =  0.05257   =>   CDf =  0.00476    CDp =  0.04781
 plradd ia,ip,cpol            1           0  8.29320416E-05

 Point added to stored polar  1
 Point written to save file  s8052_Re500k.ext.pol                            
 Dump file unspecified or not available
 Calculating wake trajectory ...
 Calculating source influence matrix ...

 Solving BL system ...

 Side 1  free  transition at x/c =  0.0210   27
 Side 2 forced transition at x/c =  1.0000   66

   1   rms: 0.3488E-01   max: 0.1224E+00   D at   64  1   RLX: 0.670
       a = 16.500      CL =  1.3790
      Cm =  0.0095     CD =  0.05483   =>   CDf =  0.00476    CDp =  0.05007

 Side 1  free  transition at x/c =  0.0203   27
 Side 2 forced transition at x/c =  1.0000   66

   2   rms: 0.1518E-01   max: 0.7411E-01   D at   65  1
       a = 16.500      CL =  1.3754
      Cm =  0.0091     CD =  0.05625   =>   CDf =  0.00472    CDp =  0.05152

 Side 1  free  transition at x/c =  0.0200   27
 Side 2 forced transition at x/c =  1.0000   66

   3   rms: 0.2468E-02   max: 0.1177E-01   D at   64  1
       a = 16.500      CL =  1.3738
      Cm =  0.0092     CD =  0.05612   =>   CDf =  0.00469    CDp =  0.05144

 Side 1  free  transition at x/c =  0.0201   27
 Side 2 forced transition at x/c =  1.0000   66

   4   rms: 0.1843E-03   max: 0.9976E-03   D at   79  2
       a = 16.500      CL =  1.3736
      Cm =  0.0092     CD =  0.05610   =>   CDf =  0.00468    CDp =  0.05142

 Side 1  free  transition at x/c =  0.0201   27
 Side 2 forced transition at x/c =  1.0000   66

   5   rms: 0.1013E-04   max: -.9088E-04   C at   66  2
       a = 16.500      CL =  1.3736
      Cm =  0.0092     CD =  0.05610   =>   CDf =  0.00468    CDp =  0.05142
 plradd ia,ip,cpol            2           0  8.29320416E-05

 Point added to stored polar  1
 Point written to save file  s8052_Re500k.ext.pol                            
 Dump file unspecified or not available
 Calculating wake trajectory ...
 Calculating source influence matrix ...

 Solving BL system ...

 Side 1  free  transition at x/c =  0.0201   27
 Side 2 forced transition at x/c =  1.0000   66

   1   rms: 0.4131E-01   max: -.1801E+00   D at   27  1   RLX: 0.638
       a = 16.750      CL =  1.3720
      Cm =  0.0082     CD =  0.05898   =>   CDf =  0.00468    CDp =  0.05430

 Side 1  free  transition at x/c =  0.0192   27
 Side 2 forced transition at x/c =  1.0000   66

   2   rms: 0.2509E-01   max: 0.1177E+00   D at   63  1
       a = 16.750      CL =  1.3618
      Cm =  0.0073     CD =  0.06161   =>   CDf =  0.00464    CDp =  0.05697

 Side 1  free  transition at x/c =  0.0188   26
 Side 2 forced transition at x/c =  1.0000   66

   3   rms: 0.8713E-02   max: -.7168E-01   D at   26  1
       a = 16.750      CL =  1.3650
      Cm =  0.0078     CD =  0.06032   =>   CDf =  0.00458    CDp =  0.05575

 Side 1  free  transition at x/c =  0.0189   26
 Side 2 forced transition at x/c =  1.0000   66

   4   rms: 0.2194E-02   max: -.1126E-01   C at   26  1
       a = 16.750      CL =  1.3664
      Cm =  0.0078     CD =  0.06026   =>   CDf =  0.00458    CDp =  0.05567

 Side 1  free  transition at x/c =  0.0188   26
 Side 2 forced transition at x/c =  1.0000   66

   5   rms: 0.3888E-03   max: -.2100E-02   C at   26  1
       a = 16.750      CL =  1.3666
      Cm =  0.0078     CD =  0.06027   =>   CDf =  0.00458    CDp =  0.05568

 Side 1  free  transition at x/c =  0.0188   26
 Side 2 forced transition at x/c =  1.0000   66

   6   rms: 0.6019E-04   max: -.3206E-03   C at   26  1
       a = 16.750      CL =  1.3667
      Cm =  0.0078     CD =  0.06027   =>   CDf =  0.00458    CDp =  0.05568
 plradd ia,ip,cpol            3           0  8.29320416E-05

 Point added to stored polar  1
 Point written to save file  s8052_Re500k.ext.pol                            
 Dump file unspecified or not available
 Calculating wake trajectory ...
 Calculating source influence matrix ...

 Solving BL system ...

 Side 1  free  transition at x/c =  0.0188   26
 Side 2 forced transition at x/c =  1.0000   66

   1   rms: 0.3724E-01   max: -.3573E+00   C at   26  1   RLX: 0.623
       a = 17.000      CL =  1.3753
      Cm =  0.0075     CD =  0.06143   =>   CDf =  0.00459    CDp =  0.05684

 Side 1  free  transition at x/c =  0.0175   26
 Side 2 forced transition at x/c =  1.0000   66

   2   rms: 0.1544E-01   max: 0.6078E-01   D at   62  1
       a = 17.000      CL =  1.3736
      Cm =  0.0068     CD =  0.06310   =>   CDf =  0.00451    CDp =  0.05860

 Side 1  free  transition at x/c =  0.0166   26
 Side 2 forced transition at x/c =  1.0000   66

   3   rms: 0.3861E-02   max: 0.1601E-01   D at   61  1
       a = 17.000      CL =  1.3710
      Cm =  0.0068     CD =  0.06313   =>   CDf =  0.00447    CDp =  0.05865

 Side 1  free  transition at x/c =  0.0168   26
 Side 2 forced transition at x/c =  1.0000   66

   4   rms: 0.4258E-03   max: 0.2305E-02   D at   80  2
       a = 17.000      CL =  1.3708
      Cm =  0.0068     CD =  0.06309   =>   CDf =  0.00446    CDp =  0.05863

 Side 1  free  transition at x/c =  0.0168   26
 Side 2 forced transition at x/c =  1.0000   66

   5   rms: 0.3529E-04   max: 0.2210E-03   D at   80  2
       a = 17.000      CL =  1.3707
      Cm =  0.0068     CD =  0.06309   =>   CDf =  0.00446    CDp =  0.05863
 plradd ia,ip,cpol            4           0  8.29320416E-05

 Point added to stored polar  1
 Point written to save file  s8052_Re500k.ext.pol                            
 Dump file unspecified or not available
 Calculating wake trajectory ...
 Calculating source influence matrix ...

 Solving BL system ...

 Side 1  free  transition at x/c =  0.0168   26
 Side 2 forced transition at x/c =  1.0000   66

   1   rms: 0.3847E-01   max: -.1665E+00   D at   27  1   RLX: 0.597
       a = 17.250      CL =  1.3720
      Cm =  0.0059     CD =  0.06555   =>   CDf =  0.00447    CDp =  0.06108

 Side 1  free  transition at x/c =  0.0155   26
 Side 2 forced transition at x/c =  1.0000   66

   2   rms: 0.2205E-01   max: 0.1037E+00   D at   60  1
       a = 17.250      CL =  1.3649
      Cm =  0.0047     CD =  0.06816   =>   CDf =  0.00445    CDp =  0.06371

 Side 1  free  transition at x/c =  0.0151   26
 Side 2 forced transition at x/c =  1.0000   66

   3   rms: 0.4202E-02   max: 0.1980E-01   D at   60  1
       a = 17.250      CL =  1.3624
      Cm =  0.0048     CD =  0.06791   =>   CDf =  0.00441    CDp =  0.06350

 Side 1  free  transition at x/c =  0.0153   26
 Side 2 forced transition at x/c =  1.0000   66

   4   rms: 0.3319E-03   max: 0.1819E-02   D at   80  2
       a = 17.250      CL =  1.3622
      Cm =  0.0048     CD =  0.06785   =>   CDf =  0.00440    CDp =  0.06345

 Side 1  free  transition at x/c =  0.0153   26
 Side 2 forced transition at x/c =  1.0000   66

   5   rms: 0.1515E-04   max: 0.1143E-03   D at   80  2
       a = 17.250      CL =  1.3622
      Cm =  0.0048     CD =  0.06784   =>   CDf =  0.00440    CDp =  0.06345
 plradd ia,ip,cpol            5           0  8.29320416E-05

 Point added to stored polar  1
 Point written to save file  s8052_Re500k.ext.pol                            
 Dump file unspecified or not available
 Calculating wake trajectory ...
 Calculating source influence matrix ...

 Solving BL system ...

 Side 1  free  transition at x/c =  0.0153   26
 Side 2 forced transition at x/c =  1.0000   66

   1   rms: 0.4518E-01   max: 0.1964E+00   D at   58  1   RLX: 0.565
       a = 17.500      CL =  1.3580
      Cm =  0.0033     CD =  0.07138   =>   CDf =  0.00440    CDp =  0.06698

 Side 1  free  transition at x/c =  0.0148   26
 Side 2 forced transition at x/c =  1.0000   66

   2   rms: 0.2461E-01   max: 0.1209E+00   D at   58  1
       a = 17.500      CL =  1.3502
      Cm =  0.0020     CD =  0.07427   =>   CDf =  0.00434    CDp =  0.06993

 Side 1  free  transition at x/c =  0.0147   25
 Side 2 forced transition at x/c =  1.0000   66

   3   rms: 0.5244E-02   max: 0.2779E-01   D at   57  1
       a = 17.500      CL =  1.3471
      Cm =  0.0021     CD =  0.07397   =>   CDf =  0.00428    CDp =  0.06969

 Side 1  free  transition at x/c =  0.0150   26
 Side 2 forced transition at x/c =  1.0000   66

   4   rms: 0.4708E-02   max: 0.4245E-01   D at   25  1
       a = 17.500      CL =  1.3490
      Cm =  0.0023     CD =  0.07348   =>   CDf =  0.00425    CDp =  0.06922

 Side 1  free  transition at x/c =  0.0148   26
 Side 2 forced transition at x/c =  1.0000   66

   5   rms: 0.1035E-02   max: 0.4537E-02   D at   57  1
       a = 17.500      CL =  1.3484
      Cm =  0.0022     CD =  0.07363   =>   CDf =  0.00427    CDp =  0.06936

 Side 1  free  transition at x/c =  0.0148   26
 Side 2 forced transition at x/c =  1.0000   66

   6   rms: 0.1151E-03   max: 0.5143E-03   D at   81  2
       a = 17.500      CL =  1.3484
      Cm =  0.0023     CD =  0.07361   =>   CDf =  0.00427    CDp =  0.06934

 Side 1  free  transition at x/c =  0.0148   26
 Side 2 forced transition at x/c =  1.0000   66

   7   rms: 0.6518E-05   max: -.6228E-04   C at   66  2
       a = 17.500      CL =  1.3484
      Cm =  0.0023     CD =  0.07361   =>   CDf =  0.00427    CDp =  0.06933
 plradd ia,ip,cpol            6           0  8.29320416E-05

 Point added to stored polar  1
 Point written to save file  s8052_Re500k.ext.pol                            
 Dump file unspecified or not available
 Calculating wake trajectory ...
 Calculating source influence matrix ...

 Solving BL system ...

 Side 1  free  transition at x/c =  0.0148   26
 Side 2 forced transition at x/c =  1.0000   66

   1   rms: 0.5714E-01   max: 0.2568E+00   D at   55  1   RLX: 0.535
       a = 17.750      CL =  1.3403
      Cm =  0.0002     CD =  0.07814   =>   CDf =  0.00428    CDp =  0.07387

 Side 1  free  transition at x/c =  0.0143   25
 Side 2 forced transition at x/c =  1.0000   66

   2   rms: 0.1692E-01   max: -.1534E+00   C at   25  1
       a = 17.750      CL =  1.3412
      Cm = -0.0002     CD =  0.07910   =>   CDf =  0.00419    CDp =  0.07491

 Side 1  free  transition at x/c =  0.0138   25
 Side 2 forced transition at x/c =  1.0000   66

   3   rms: 0.4932E-02   max: 0.2180E-01   D at   55  1
       a = 17.750      CL =  1.3381
      Cm = -0.0003     CD =  0.07921   =>   CDf =  0.00413    CDp =  0.07508

 Side 1  free  transition at x/c =  0.0139   25
 Side 2 forced transition at x/c =  1.0000   66

   4   rms: 0.8592E-03   max: 0.4733E-02   D at   81  2
       a = 17.750      CL =  1.3376
      Cm = -0.0003     CD =  0.07915   =>   CDf =  0.00413    CDp =  0.07503

 Side 1  free  transition at x/c =  0.0139   25
 Side 2 forced transition at x/c =  1.0000   66

   5   rms: 0.1038E-03   max: 0.6606E-03   D at   81  2
       a = 17.750      CL =  1.3375
      Cm = -0.0003     CD =  0.07914   =>   CDf =  0.00413    CDp =  0.07501

 Side 1  free  transition at x/c =  0.0139   25
 Side 2 forced transition at x/c =  1.0000   66

   6   rms: 0.8770E-05   max: -.7940E-04   C at   66  2
       a = 17.750      CL =  1.3375
      Cm = -0.0003     CD =  0.07914   =>   CDf =  0.00413    CDp =  0.07501
 plradd ia,ip,cpol            7           0  8.29320416E-05

 Point added to stored polar  1
 Point written to save file  s8052_Re500k.ext.pol                            
 Dump file unspecified or not available
 Calculating wake trajectory ...
 Calculating source influence matrix ...

 Solving BL system ...

 Side 1  free  transition at x/c =  0.0139   25
 Side 2 forced transition at x/c =  1.0000   66

   1   rms: 0.4213E-01   max: 0.1826E+00   D at   54  1   RLX: 0.519
       a = 18.000      CL =  1.3349
      Cm = -0.0019     CD =  0.08250   =>   CDf =  0.00413    CDp =  0.07837

 Side 1  free  transition at x/c =  0.0132   25
 Side 2 forced transition at x/c =  1.0000   66

   2   rms: 0.2566E-01   max: 0.1270E+00   D at   54  1
       a = 18.000      CL =  1.3274
      Cm = -0.0036     CD =  0.08598   =>   CDf =  0.00406    CDp =  0.08192

 Side 1  free  transition at x/c =  0.0129   25
 Side 2 forced transition at x/c =  1.0000   66

   3   rms: 0.6512E-02   max: 0.3203E-01   D at   53  1
       a = 18.000      CL =  1.3234
      Cm = -0.0035     CD =  0.08562   =>   CDf =  0.00399    CDp =  0.08162

 Side 1  free  transition at x/c =  0.0131   25
 Side 2 forced transition at x/c =  1.0000   66

   4   rms: 0.8413E-03   max: 0.3637E-02   D at   82  2
       a = 18.000      CL =  1.3228
      Cm = -0.0035     CD =  0.08550   =>   CDf =  0.00398    CDp =  0.08152

 Side 1  free  transition at x/c =  0.0132   25
 Side 2 forced transition at x/c =  1.0000   66

   5   rms: 0.6722E-04   max: 0.4010E-03   D at   81  2
       a = 18.000      CL =  1.3228
      Cm = -0.0035     CD =  0.08549   =>   CDf =  0.00398    CDp =  0.08151
 plradd ia,ip,cpol            8           0  8.29320416E-05

 Point added to stored polar  1
 Point written to save file  s8052_Re500k.ext.pol                            
 Dump file unspecified or not available

.OPERva   c>   Calculating wake trajectory ...
 Calculating source influence matrix ...

 Solving BL system ...

 Side 1  free  transition at x/c =  0.0132   25
 Side 2 forced transition at x/c =  1.0000   66

   1   rms: 0.4362E-01   max: 0.2029E+00   D at   52  1   RLX: 0.496
       a = 18.250      CL =  1.3190
      Cm = -0.0052     CD =  0.08919   =>   CDf =  0.00399    CDp =  0.08521

 Side 1  free  transition at x/c =  0.0129   25
 Side 2 forced transition at x/c =  1.0000   66

   2   rms: 0.2678E-01   max: 0.1357E+00   D at   52  1
       a = 18.250      CL =  1.3111
      Cm = -0.0071     CD =  0.09301   =>   CDf =  0.00392    CDp =  0.08909

 Side 1  free  transition at x/c =  0.0129   25
 Side 2 forced transition at x/c =  1.0000   66

   3   rms: 0.6643E-02   max: 0.3434E-01   D at   51  1
       a = 18.250      CL =  1.3070
      Cm = -0.0070     CD =  0.09250   =>   CDf =  0.00385    CDp =  0.08865

 Side 1  free  transition at x/c =  0.0131   25
 Side 2 forced transition at x/c =  1.0000   66

   4   rms: 0.7600E-03   max: 0.4500E-02   D at   82  2
       a = 18.250      CL =  1.3065
      Cm = -0.0070     CD =  0.09233   =>   CDf =  0.00384    CDp =  0.08849

 Side 1  free  transition at x/c =  0.0131   25
 Side 2 forced transition at x/c =  1.0000   66

   5   rms: 0.4429E-04   max: 0.3420E-03   D at   82  2
       a = 18.250      CL =  1.3065
      Cm = -0.0070     CD =  0.09231   =>   CDf =  0.00384    CDp =  0.08847
 plradd ia,ip,cpol            9           0  8.29320416E-05

 Point added to stored polar  1
 Point written to save file  s8052_Re500k.ext.pol                            
 Dump file unspecified or not available
 Calculating wake trajectory ...
 Calculating source influence matrix ...

 Solving BL system ...

 Side 1  free  transition at x/c =  0.0131   25
 Side 2 forced transition at x/c =  1.0000   66

   1   rms: 0.9069E-01   max: 0.4272E+00   D at   50  1   RLX: 0.458
       a = 18.750      CL =  1.2984
      Cm = -0.0106     CD =  0.09982   =>   CDf =  0.00385    CDp =  0.09597

 Side 1  free  transition at x/c =  0.0123   25
 Side 2 forced transition at x/c =  1.0000   66

   2   rms: 0.6465E-01   max: 0.3447E+00   D at   49  1
       a = 18.750      CL =  1.2778
      Cm = -0.0157     CD =  0.11004   =>   CDf =  0.00375    CDp =  0.10628

 Side 1  free  transition at x/c =  0.0120   25
 Side 2 forced transition at x/c =  1.0000   66

   3   rms: 0.1735E-01   max: 0.1086E+00   D at   47  1
       a = 18.750      CL =  1.2690
      Cm = -0.0154     CD =  0.10833   =>   CDf =  0.00361    CDp =  0.10472

 Side 1  free  transition at x/c =  0.0124   25
 Side 2 forced transition at x/c =  1.0000   66

   4   rms: 0.2052E-02   max: 0.1159E-01   D at   83  2
       a = 18.750      CL =  1.2677
      Cm = -0.0153     CD =  0.10779   =>   CDf =  0.00357    CDp =  0.10422

 Side 1  free  transition at x/c =  0.0125   25
 Side 2 forced transition at x/c =  1.0000   66

   5   rms: 0.1521E-03   max: 0.1009E-02   D at   82  2
       a = 18.750      CL =  1.2677
      Cm = -0.0153     CD =  0.10771   =>   CDf =  0.00357    CDp =  0.10415

 Side 1  free  transition at x/c =  0.0125   25
 Side 2 forced transition at x/c =  1.0000   66

   6   rms: 0.5251E-05   max: -.6205E-04   C at   66  2
       a = 18.750      CL =  1.2677
      Cm = -0.0153     CD =  0.10771   =>   CDf =  0.00357    CDp =  0.10414
 plradd ia,ip,cpol           10           0  8.29320416E-05

 Point added to stored polar  1
 Point written to save file  s8052_Re500k.ext.pol                            
 Dump file unspecified or not available
 Calculating wake trajectory ...
 Calculating source influence matrix ...

 Solving BL system ...

 Side 1  free  transition at x/c =  0.0125   25
 Side 2 forced transition at x/c =  1.0000   66

   1   rms: 0.1009E+00   max: 0.5035E+00   D at   45  1   RLX: 0.419
       a = 19.250      CL =  1.2569
      Cm = -0.0194     CD =  0.11625   =>   CDf =  0.00357    CDp =  0.11267

 Side 1  free  transition at x/c =  0.0119   25
 Side 2 forced transition at x/c =  1.0000   66

   2   rms: 0.7062E-01   max: 0.3899E+00   D at   45  1
       a = 19.250      CL =  1.2334
      Cm = -0.0254     CD =  0.12861   =>   CDf =  0.00349    CDp =  0.12512

 Side 1  free  transition at x/c =  0.0117   25
 Side 2 forced transition at x/c =  1.0000   66

   3   rms: 0.1579E-01   max: 0.1048E+00   D at   43  1
       a = 19.250      CL =  1.2263
      Cm = -0.0249     CD =  0.12556   =>   CDf =  0.00335    CDp =  0.12221

 Side 1  free  transition at x/c =  0.0120   25
 Side 2 forced transition at x/c =  1.0000   66

   4   rms: 0.2322E-02   max: 0.2529E-01   D at   83  2
       a = 19.250      CL =  1.2253
      Cm = -0.0248     CD =  0.12466   =>   CDf =  0.00332    CDp =  0.12134

 Side 1  free  transition at x/c =  0.0120   25
 Side 2 forced transition at x/c =  1.0000   66

   5   rms: 0.1519E-03   max: 0.1094E-02   D at   83  2
       a = 19.250      CL =  1.2252
      Cm = -0.0248     CD =  0.12456   =>   CDf =  0.00332    CDp =  0.12124

 Side 1  free  transition at x/c =  0.0120   25
 Side 2 forced transition at x/c =  1.0000   66

   6   rms: 0.8373E-05   max: -.6134E-04   C at   66  2
       a = 19.250      CL =  1.2252
      Cm = -0.0248     CD =  0.12456   =>   CDf =  0.00332    CDp =  0.12124
 plradd ia,ip,cpol           11           0  8.29320416E-05

 Point added to stored polar  1
 Point written to save file  s8052_Re500k.ext.pol                            
 Dump file unspecified or not available
 Calculating wake trajectory ...
 Calculating source influence matrix ...

 Solving BL system ...

 Side 1  free  transition at x/c =  0.0120   25
 Side 2 forced transition at x/c =  1.0000   66

   1   rms: 0.9514E-01   max: 0.4991E+00   D at   42  1   RLX: 0.387
       a = 19.750      CL =  1.2153
      Cm = -0.0287     CD =  0.13296   =>   CDf =  0.00333    CDp =  0.12964

 Side 1  free  transition at x/c =  0.0117   25
 Side 2 forced transition at x/c =  1.0000   66

   2   rms: 0.6543E-01   max: 0.3613E+00   D at   42  1
       a = 19.750      CL =  1.1954
      Cm = -0.0350     CD =  0.14582   =>   CDf =  0.00325    CDp =  0.14257

 Side 1  free  transition at x/c =  0.0116   25
 Side 2 forced transition at x/c =  1.0000   66

   3   rms: 0.1352E-01   max: 0.8687E-01   D at   40  1
       a = 19.750      CL =  1.1898
      Cm = -0.0343     CD =  0.14177   =>   CDf =  0.00312    CDp =  0.13865

 Side 1  free  transition at x/c =  0.0118   25
 Side 2 forced transition at x/c =  1.0000   66

   4   rms: 0.1690E-02   max: 0.1143E-01   D at   40  1
       a = 19.750      CL =  1.1890
      Cm = -0.0343     CD =  0.14084   =>   CDf =  0.00310    CDp =  0.13774

 Side 1  free  transition at x/c =  0.0118   25
 Side 2 forced transition at x/c =  1.0000   66

   5   rms: 0.1466E-03   max: 0.8312E-03   D at   86  2
       a = 19.750      CL =  1.1890
      Cm = -0.0342     CD =  0.14075   =>   CDf =  0.00310    CDp =  0.13766

 Side 1  free  transition at x/c =  0.0118   25
 Side 2 forced transition at x/c =  1.0000   66

   6   rms: 0.7737E-05   max: 0.3416E-04   D at   83  2
       a = 19.750      CL =  1.1890
      Cm = -0.0342     CD =  0.14075   =>   CDf =  0.00310    CDp =  0.13765
 plradd ia,ip,cpol           12           0  8.29320416E-05

 Point added to stored polar  1
 Point written to save file  s8052_Re500k.ext.pol                            
 Dump file unspecified or not available
 Calculating wake trajectory ...
 Calculating source influence matrix ...

 Solving BL system ...

 Side 1  free  transition at x/c =  0.0118   25
 Side 2 forced transition at x/c =  1.0000   66

   1   rms: 0.1036E+00   max: 0.5655E+00   D at   39  1   RLX: 0.361
       a = 20.250      CL =  1.1787
      Cm = -0.0384     CD =  0.14958   =>   CDf =  0.00311    CDp =  0.14647

 Side 1  free  transition at x/c =  0.0115   25
 Side 2 forced transition at x/c =  1.0000   66

   2   rms: 0.7367E-01   max: 0.4236E+00   D at   39  1
       a = 20.250      CL =  1.1568
      Cm = -0.0458     CD =  0.16474   =>   CDf =  0.00305    CDp =  0.16169

 Side 1  free  transition at x/c =  0.0110   24
 Side 2 forced transition at x/c =  1.0000   66

   3   rms: 0.1402E-01   max: 0.8351E-01   D at   38  1
       a = 20.250      CL =  1.1526
      Cm = -0.0447     CD =  0.15896   =>   CDf =  0.00293    CDp =  0.15602

 Side 1  free  transition at x/c =  0.0112   24
 Side 2 forced transition at x/c =  1.0000   66

   4   rms: 0.2531E-02   max: -.1614E-01   D at   38  1
       a = 20.250      CL =  1.1533
      Cm = -0.0444     CD =  0.15725   =>   CDf =  0.00294    CDp =  0.15431

 Side 1  free  transition at x/c =  0.0111   24
 Side 2 forced transition at x/c =  1.0000   66

   5   rms: 0.4516E-03   max: 0.1888E-02   C at   66  2
       a = 20.250      CL =  1.1536
      Cm = -0.0444     CD =  0.15732   =>   CDf =  0.00294    CDp =  0.15438

 Side 1  free  transition at x/c =  0.0111   24
 Side 2 forced transition at x/c =  1.0000   66

   6   rms: 0.5188E-04   max: -.3744E-03   D at   83  2
       a = 20.250      CL =  1.1536
      Cm = -0.0444     CD =  0.15736   =>   CDf =  0.00294    CDp =  0.15442
 plradd ia,ip,cpol           13           0  8.29320416E-05

 Point added to stored polar  1
 Point written to save file  s8052_Re500k.ext.pol                            
 Dump file unspecified or not available
 Calculating wake trajectory ...
 Calculating source influence matrix ...

 Solving BL system ...

 Side 1  free  transition at x/c =  0.0111   24
 Side 2 forced transition at x/c =  1.0000   66

   1   rms: 0.7078E-01   max: 0.4023E+00   D at   37  1   RLX: 0.342
       a = 20.750      CL =  1.1493
      Cm = -0.0474     CD =  0.16395   =>   CDf =  0.00295    CDp =  0.16101

 Side 1  free  transition at x/c =  0.0109   24
 Side 2 forced transition at x/c =  1.0000   66

   2   rms: 0.5796E-01   max: 0.3453E+00   D at   37  1
       a = 20.750      CL =  1.1372
      Cm = -0.0539     CD =  0.17738   =>   CDf =  0.00287    CDp =  0.17450

 Side 1  free  transition at x/c =  0.0106   24
 Side 2 forced transition at x/c =  1.0000   66

   3   rms: 0.1093E-01   max: 0.7213E-01   D at   36  1
       a = 20.750      CL =  1.1330
      Cm = -0.0532     CD =  0.17256   =>   CDf =  0.00275    CDp =  0.16982

 Side 1  free  transition at x/c =  0.0107   24
 Side 2 forced transition at x/c =  1.0000   66

   4   rms: 0.1436E-02   max: 0.1039E-01   D at   36  1
       a = 20.750      CL =  1.1325
      Cm = -0.0531     CD =  0.17140   =>   CDf =  0.00275    CDp =  0.16865

 Side 1  free  transition at x/c =  0.0107   24
 Side 2 forced transition at x/c =  1.0000   66

   5   rms: 0.9699E-04   max: 0.5204E-03   D at   83  2
       a = 20.750      CL =  1.1325
      Cm = -0.0531     CD =  0.17134   =>   CDf =  0.00275    CDp =  0.16859
 plradd ia,ip,cpol           14           0  8.29320416E-05

 Point added to stored polar  1
 Point written to save file  s8052_Re500k.ext.pol                            
 Dump file unspecified or not available
 Calculating wake trajectory ...
 Calculating source influence matrix ...

 Solving BL system ...

 Side 1  free  transition at x/c =  0.0107   24
 Side 2 forced transition at x/c =  1.0000   66

   1   rms: 0.7662E-01   max: 0.4581E+00   D at   35  1   RLX: 0.325
       a = 21.250      CL =  1.1280
      Cm = -0.0562     CD =  0.17841   =>   CDf =  0.00276    CDp =  0.17565

 Side 1  free  transition at x/c =  0.0104   24
 Side 2 forced transition at x/c =  1.0000   66

   2   rms: 0.4681E-01   max: 0.2823E+00   D at   35  1
       a = 21.250      CL =  1.1220
      Cm = -0.0619     CD =  0.19027   =>   CDf =  0.00270    CDp =  0.18757

 Side 1  free  transition at x/c =  0.0099   24
 Side 2 forced transition at x/c =  1.0000   66

   3   rms: 0.1621E-01   max: 0.1055E+00   D at   35  1
       a = 21.250      CL =  1.1149
      Cm = -0.0621     CD =  0.18717   =>   CDf =  0.00260    CDp =  0.18457

 Side 1  free  transition at x/c =  0.0101   24
 Side 2 forced transition at x/c =  1.0000   66

   4   rms: 0.2447E-02   max: 0.1816E-01   D at   85  2
       a = 21.250      CL =  1.1145
      Cm = -0.0619     CD =  0.18511   =>   CDf =  0.00259    CDp =  0.18252

 Side 1  free  transition at x/c =  0.0101   24
 Side 2 forced transition at x/c =  1.0000   66

   5   rms: 0.2759E-03   max: 0.1380E-02   D at   85  2
       a = 21.250      CL =  1.1146
      Cm = -0.0618     CD =  0.18489   =>   CDf =  0.00259    CDp =  0.18229

 Side 1  free  transition at x/c =  0.0101   24
 Side 2 forced transition at x/c =  1.0000   66

   6   rms: 0.5241E-04   max: -.2888E-03   D at   86  2
       a = 21.250      CL =  1.1147
      Cm = -0.0618     CD =  0.18492   =>   CDf =  0.00259    CDp =  0.18233
 plradd ia,ip,cpol           15           0  8.29320416E-05

 Point added to stored polar  1
 Point written to save file  s8052_Re500k.ext.pol                            
 Dump file unspecified or not available
 Calculating wake trajectory ...
 Calculating source influence matrix ...

 Solving BL system ...

 Side 1  free  transition at x/c =  0.0101   24
 Side 2 forced transition at x/c =  1.0000   66

   1   rms: 0.6494E-01   max: 0.3989E+00   D at   34  1   RLX: 0.312
       a = 21.750      CL =  1.1120
      Cm = -0.0645     CD =  0.19125   =>   CDf =  0.00260    CDp =  0.18865

 Side 1  free  transition at x/c =  0.0099   24
 Side 2 forced transition at x/c =  1.0000   66

   2   rms: 0.4617E-01   max: 0.2839E+00   D at   34  1
       a = 21.750      CL =  1.1079
      Cm = -0.0703     CD =  0.20370   =>   CDf =  0.00256    CDp =  0.20115

 Side 1  free  transition at x/c =  0.0095   24
 Side 2 forced transition at x/c =  1.0000   66

   3   rms: 0.1512E-01   max: 0.8214E-01   D at   34  1
       a = 21.750      CL =  1.1016
      Cm = -0.0704     CD =  0.20003   =>   CDf =  0.00248    CDp =  0.19755

 Side 1  free  transition at x/c =  0.0096   24
 Side 2 forced transition at x/c =  1.0000   66

   4   rms: 0.1767E-02   max: 0.1036E-01   D at   83  2
       a = 21.750      CL =  1.1011
      Cm = -0.0703     CD =  0.19804   =>   CDf =  0.00246    CDp =  0.19557

 Side 1  free  transition at x/c =  0.0096   24
 Side 2 forced transition at x/c =  1.0000   66

   5   rms: 0.1620E-03   max: 0.9944E-03   D at   83  2
       a = 21.750      CL =  1.1012
      Cm = -0.0703     CD =  0.19781   =>   CDf =  0.00247    CDp =  0.19534

 Side 1  free  transition at x/c =  0.0096   24
 Side 2 forced transition at x/c =  1.0000   66

   6   rms: 0.2430E-04   max: 0.1296E-03   C at   66  2
       a = 21.750      CL =  1.1012
      Cm = -0.0703     CD =  0.19782   =>   CDf =  0.00247    CDp =  0.19535
 plradd ia,ip,cpol           16           0  2.30419573E-05

 Point added to stored polar  1
 Point written to save file  s8052_Re500k.ext.pol                            
 Dump file unspecified or not available
 Calculating wake trajectory ...
 Calculating source influence matrix ...

 Solving BL system ...

 Side 1  free  transition at x/c =  0.0096   24
 Side 2 forced transition at x/c =  1.0000   66

   1   rms: 0.6385E-01   max: 0.4000E+00   D at   33  1   RLX: 0.299
       a = 22.250      CL =  1.0989
      Cm = -0.0728     CD =  0.20397   =>   CDf =  0.00247    CDp =  0.20150

 Side 1  free  transition at x/c =  0.0095   24
 Side 2 forced transition at x/c =  1.0000   66

   2   rms: 0.5940E-01   max: 0.3709E+00   D at   33  1
       a = 22.250      CL =  1.0922
      Cm = -0.0796     CD =  0.21980   =>   CDf =  0.00243    CDp =  0.21737

 Side 1  free  transition at x/c =  0.0093   24
 Side 2 forced transition at x/c =  1.0000   66

   3   rms: 0.1088E-01   max: -.6290E-01   C at   66  2
       a = 22.250      CL =  1.0886
      Cm = -0.0789     CD =  0.21316   =>   CDf =  0.00234    CDp =  0.21082

 Side 1  free  transition at x/c =  0.0093   24
 Side 2 forced transition at x/c =  1.0000   66

   4   rms: 0.1886E-02   max: 0.1129E-01   D at   32  1
       a = 22.250      CL =  1.0882
      Cm = -0.0789     CD =  0.21123   =>   CDf =  0.00234    CDp =  0.20889

 Side 1  free  transition at x/c =  0.0093   24
 Side 2 forced transition at x/c =  1.0000   66

   5   rms: 0.1887E-03   max: 0.8982E-03   D at   87  2
       a = 22.250      CL =  1.0881
      Cm = -0.0789     CD =  0.21115   =>   CDf =  0.00234    CDp =  0.20881

 Side 1  free  transition at x/c =  0.0093   24
 Side 2 forced transition at x/c =  1.0000   66

   6   rms: 0.2835E-04   max: 0.1940E-03   D at   87  2
       a = 22.250      CL =  1.0881
      Cm = -0.0789     CD =  0.21112   =>   CDf =  0.00234    CDp =  0.20878
 plradd ia,ip,cpol           17           0  2.30419573E-05

 Point added to stored polar  1
 Point written to save file  s8052_Re500k.ext.pol                            
 Dump file unspecified or not available

.OPERva   c>  
 Polar accumulation disabled

.OPERv   c>  
 XFOIL   c>  
 XFOIL   c>  