
 ===================================================
  XFOIL Version 6.99
  Copyright (C) 2000   Mark Drela, Harold Youngren

  This software comes with ABSOLUTELY NO WARRANTY,
    subject to the GNU General Public License.

  Caveat computor
 ===================================================

 File  xfoil.def  not found

   QUIT    Exit program

  .OPER    Direct operating point(s)
  .MDES    Complex mapping design routine
  .QDES    Surface speed design routine
  .GDES    Geometry design routine

   SAVE f  Write airfoil to labeled coordinate file
   PSAV f  Write airfoil to plain coordinate file
   ISAV f  Write airfoil to ISES coordinate file
   MSAV f  Write airfoil to MSES coordinate file
   REVE    Reverse written-airfoil node ordering

   LOAD f  Read buffer airfoil from coordinate file
   NACA i  Set NACA 4,5-digit airfoil and buffer airfoil
   INTE    Set buffer airfoil by interpolating two airfoils
   NORM    Buffer airfoil normalization toggle
   XYCM rr Change CM reference location, currently  0.25000 0.00000

   BEND    Display structural properties of current airfoil

   PCOP    Set current-airfoil panel nodes directly from buffer airfoil points
   PANE    Set current-airfoil panel nodes ( 160 ) based on curvature
  .PPAR    Show/change paneling

  .PLOP    Plotting options

   WDEF f  Write  current-settings file
   RDEF f  Reread current-settings file
   NAME s  Specify new airfoil name
   NINC    Increment name version number

   Z       Zoom    | (available in all menus)
   U       Unzoom  | 

 XFOIL   c>  
 Labeled airfoil file.  Name:  S8066 (10% version of S8065 w/ lower surface aer

 Number of input coordinate points:  81
 Counterclockwise ordering
 Max thickness =     0.099999  at x =   0.377
 Max camber    =     0.009479  at x =   0.526

  LE  x,y  =   0.00012  -0.00013  |   Chord =   0.99988
  TE  x,y  =   1.00000   0.00000  |

 Current airfoil nodes set from buffer airfoil nodes (  81 )

 WARNING: Poor input coordinate distribution
          Excessive panel angle   41.8  at i =  42
          Repaneling with PANE and/or PPAR suggested
           (doing GDES,CADD before repaneling _may_
            improve excessively coarse LE spacing

 XFOIL   c>  
 XFOIL   c>  
 Sharp trailing edge

 Paneling parameters used...
   Number of panel nodes       160
   Panel bunching parameter    1.000
   TE/LE panel density ratio   0.150
   Refined-area/LE panel density ratio    0.200
   Top    side refined area x/c limits  1.000 1.000
   Bottom side refined area x/c limits  1.000 1.000

 XFOIL   c>  
.OPERi   c>  
 Xtr/c     =  1.0000    top    side
 Xtr/c     =  1.0000    bottom side
 Ncrit     =    9.00   ( 0.070 % turb. level )
 Vacc      =  0.0100

 Klag  =  5.6000     Uxwt  =    1.00
 A     =  6.7000     B     =  0.7500       KCt = 0.01485
 CtiniK=  1.8000     CtiniX=  3.3000

..VPAR   c>  
..VPAR   c>  
.OPERi   c>  
 M  =    0.0000
 Re =    200000

.OPERv   c>  
.OPERv   c>  
.OPERv   c>  
 Polar  1 newly created for accumulation
 Airfoil archived with polar: S8066 (10% version of S8065 w/ lower surface aer

Enter  polar save filename  OR  <return> for no file   s>  
 New polar save file available

Enter  polar dump filename  OR  <return> for no file   s>  
 Polar dump file will NOT be written

 Polar accumulation enabled

.OPERva   c>   Calculating unit vorticity distributions ...
 Calculating wake trajectory ...
 Calculating source influence matrix ...

 Solving BL system ...

 Initializing BL ...
    side            1  ...
 MRCHUE: Inverse mode at  61     Hk =   3.800
 MRCHUE: Inverse mode at  62     Hk =   4.124
 MRCHUE: Inverse mode at  63     Hk =   4.445
 MRCHUE: Inverse mode at  64     Hk =   4.764
 MRCHUE: Inverse mode at  65     Hk =   5.080
 MRCHUE: Inverse mode at  66     Hk =   5.392
 MRCHUE: Inverse mode at  67     Hk =   5.700
 MRCHUE: Convergence failed at  68  side 1    Res =  0.1814E+01
 MRCHUE: Inverse mode at  69     Hk =   6.000
 MRCHUE: Inverse mode at  70     Hk =   6.295
 MRCHUE: Inverse mode at  71     Hk =   6.587
 MRCHUE: Inverse mode at  72     Hk =   6.875
 MRCHUE: Inverse mode at  73     Hk =   7.157
 MRCHUE: Inverse mode at  74     Hk =   7.431
 MRCHUE: Inverse mode at  75     Hk =   7.686
 MRCHUE: Inverse mode at  76     Hk =   7.899
 MRCHUE: Inverse mode at  77     Hk =   8.006
    side            2  ...
 MRCHUE: Inverse mode at   9     Hk =   3.800
 MRCHUE: Inverse mode at  10     Hk =   4.604
 MRCHUE: Inverse mode at  11     Hk =   5.352
 MRCHUE: Inverse mode at  12     Hk =   6.088
 MRCHUE: Inverse mode at  13     Hk =   6.835
 MRCHUE: Inverse mode at  14     Hk =   7.665
 MRCHUE: Inverse mode at  15     Hk =   8.672
 MRCHUE: Inverse mode at  16     Hk =   9.836
 MRCHUE: Inverse mode at  17     Hk =   9.741
 MRCHUE: Inverse mode at  18     Hk =   4.215
 MRCHUE: Inverse mode at  19     Hk =   2.500
 MRCHUE: Inverse mode at  84     Hk =   2.500
 MRCHUE: Inverse mode at  85     Hk =   2.500

 Side 1 forced transition at x/c =  1.0000   77
 Side 2  free  transition at x/c =  0.0405   17
 idif Ue xi dudx           1  0.31664971      4.55844402E-03   69.464424    
 Uenew xinew           2  0.13005832      1.87230110E-03

   1   rms: 0.3298E+00   max: 0.1419E+01   D at   77  1   RLX: 0.484
       a = -4.000      CL = -0.4713
      Cm = -0.0081     CD =  0.01366   =>   CDf =  0.00794    CDp =  0.00572

 Side 1 forced transition at x/c =  1.0000   76
 Side 2  free  transition at x/c =  0.0345   18

   2   rms: 0.1281E+00   max: -.8135E+00   T at   18  2   RLX: 0.615
       a = -4.000      CL = -0.4980
      Cm =  0.0006     CD =  0.01502   =>   CDf =  0.00800    CDp =  0.00702

 Side 1  free  transition at x/c =  0.9901   75
 Side 2  free  transition at x/c =  0.0404   18

   3   rms: 0.1674E+00   max: -.2394E+01   T at   18  2   RLX: 0.209
       a = -4.000      CL = -0.4805
      Cm = -0.0020     CD =  0.01706   =>   CDf =  0.00807    CDp =  0.00899

 MRCHDU: Convergence failed at  19  side 2    Res =  0.7771E+01
 MRCHDU: Convergence failed at  20  side 2    Res =  0.4297E+01
 MRCHDU: Convergence failed at  21  side 2    Res =  0.5580E+01
 MRCHDU: Convergence failed at  22  side 2    Res =  0.3067E+02
 MRCHDU: Convergence failed at  23  side 2    Res =  0.8110E+02
 MRCHDU: Convergence failed at  24  side 2    Res =  0.4969E+02
 MRCHDU: Convergence failed at  25  side 2    Res =  0.4026E+02
 MRCHDU: Convergence failed at  26  side 2    Res =  0.7772E+02
 MRCHDU: Convergence failed at  27  side 2    Res =  0.5792E+03
 MRCHDU: Convergence failed at  28  side 2    Res =  0.1115E+03
 MRCHDU: Convergence failed at  29  side 2    Res =  0.5882E+02
 MRCHDU: Convergence failed at  30  side 2    Res =  0.3933E+02
 MRCHDU: Convergence failed at  31  side 2    Res =  0.3321E+02
 MRCHDU: Convergence failed at  32  side 2    Res =  0.2794E+02
 MRCHDU: Convergence failed at  33  side 2    Res =  0.2465E+02
 MRCHDU: Convergence failed at  34  side 2    Res =  0.2221E+02
 MRCHDU: Convergence failed at  35  side 2    Res =  0.2052E+02
 MRCHDU: Convergence failed at  36  side 2    Res =  0.1902E+02
 MRCHDU: Convergence failed at  37  side 2    Res =  0.1798E+02
 MRCHDU: Convergence failed at  38  side 2    Res =  0.1699E+02
 MRCHDU: Convergence failed at  39  side 2    Res =  0.1623E+02
 MRCHDU: Convergence failed at  40  side 2    Res =  0.1553E+02
 MRCHDU: Convergence failed at  41  side 2    Res =  0.1500E+02
 MRCHDU: Convergence failed at  42  side 2    Res =  0.1444E+02
 MRCHDU: Convergence failed at  43  side 2    Res =  0.1398E+02
 MRCHDU: Convergence failed at  44  side 2    Res =  0.1357E+02
 MRCHDU: Convergence failed at  45  side 2    Res =  0.1030E+02
 MRCHDU: Convergence failed at  46  side 2    Res =  0.1063E+02
 MRCHDU: Convergence failed at  47  side 2    Res =  0.1102E+02
 MRCHDU: Convergence failed at  48  side 2    Res =  0.1140E+02
 MRCHDU: Convergence failed at  49  side 2    Res =  0.1177E+02
 MRCHDU: Convergence failed at  50  side 2    Res =  0.1222E+02
 MRCHDU: Convergence failed at  51  side 2    Res =  0.1262E+02
 MRCHDU: Convergence failed at  52  side 2    Res =  0.1304E+02
 MRCHDU: Convergence failed at  53  side 2    Res =  0.1347E+02
 MRCHDU: Convergence failed at  54  side 2    Res =  0.1386E+02
 MRCHDU: Convergence failed at  55  side 2    Res =  0.1430E+02
 MRCHDU: Convergence failed at  56  side 2    Res =  0.1469E+02
 MRCHDU: Convergence failed at  57  side 2    Res =  0.1511E+02
 MRCHDU: Convergence failed at  58  side 2    Res =  0.1554E+02
 MRCHDU: Convergence failed at  59  side 2    Res =  0.1599E+02
 MRCHDU: Convergence failed at  60  side 2    Res =  0.1644E+02
 MRCHDU: Convergence failed at  61  side 2    Res =  0.1699E+02
 MRCHDU: Convergence failed at  62  side 2    Res =  0.1783E+02
 MRCHDU: Convergence failed at  63  side 2    Res =  0.1895E+02
 MRCHDU: Convergence failed at  64  side 2    Res =  0.2131E+02
 MRCHDU: Convergence failed at  65  side 2    Res =  0.2286E+02
 MRCHDU: Convergence failed at  66  side 2    Res =  0.2512E+02
 MRCHDU: Convergence failed at  67  side 2    Res =  0.2797E+02
 MRCHDU: Convergence failed at  68  side 2    Res =  0.3113E+02
 MRCHDU: Convergence failed at  69  side 2    Res =  0.3483E+02
 MRCHDU: Convergence failed at  70  side 2    Res =  0.3939E+02
 MRCHDU: Convergence failed at  71  side 2    Res =  0.3628E+02
 MRCHDU: Convergence failed at  72  side 2    Res =  0.3823E+02
 MRCHDU: Convergence failed at  73  side 2    Res =  0.1529E+02
 MRCHDU: Convergence failed at  74  side 2    Res =  0.1809E+02
 MRCHDU: Convergence failed at  75  side 2    Res =  0.4567E+02
 MRCHDU: Convergence failed at  76  side 2    Res =  0.9238E+02
 MRCHDU: Convergence failed at  77  side 2    Res =  0.1062E+03
 MRCHDU: Convergence failed at  78  side 2    Res =  0.1170E+03
 MRCHDU: Convergence failed at  79  side 2    Res =  0.1267E+03
 MRCHDU: Convergence failed at  80  side 2    Res =  0.1285E+03
 MRCHDU: Convergence failed at  81  side 2    Res =  0.1247E+03
 MRCHDU: Convergence failed at  82  side 2    Res =  0.1162E+03
 MRCHDU: Convergence failed at  83  side 2    Res =  0.1398E+03
 MRCHDU: Convergence failed at  84  side 2    Res =  0.2032E+03
 MRCHDU: Convergence failed at  85  side 2    Res =  0.7369E+02
 MRCHDU: Convergence failed at  86  side 2    Res =  0.3237E+02
 Side 1  free  transition at x/c =  0.9890   75
 Side 2  free  transition at x/c =  0.0495   19

   4   rms: 0.7534E+00   max: -.3146E+01   T at   19  2   RLX: 0.159
       a = -4.000      CL = -1.3089
      Cm =  0.2805     CD =  0.00685   =>   CDf =  0.00234    CDp =  0.00451

 Side 1  free  transition at x/c =  0.9908   75
 Side 2  free  transition at x/c =  0.0797   22

   5   rms: 0.4245E+00   max: -.4413E+00   U at   86  2   RLX: 0.641
       a = -4.000      CL = -0.7577
      Cm =  0.0863     CD =  0.01366   =>   CDf =  0.01180    CDp =  0.00186

 Side 1  free  transition at x/c =  0.9833   74
 Side 2  free  transition at x/c =  0.0700   21

   6   rms: 0.6789E+00   max: 0.7634E+01   T at   21  2   RLX: 0.195
       a = -4.000      CL = -0.7768
      Cm =  0.0841     CD =  0.01489   =>   CDf =  0.00921    CDp =  0.00567

 MRCHDU: Convergence failed at  21  side 2    Res =  0.6267E+02
 MRCHDU: Convergence failed at  83  side 2    Res =  0.3791E+00
 Side 1  free  transition at x/c =  0.9698   73
 Side 2  free  transition at x/c =  0.0456   19

   7   rms: 0.1900E+00   max: -.1372E+01   T at   19  2   RLX: 0.364
       a = -4.000      CL = -0.6847
      Cm =  0.0572     CD =  0.01735   =>   CDf =  0.00916    CDp =  0.00818

 Side 1  free  transition at x/c =  0.9712   74
 Side 2  free  transition at x/c =  0.0540   20

   8   rms: 0.5079E+00   max: -.4737E+01   T at   20  2   RLX: 0.106
       a = -4.000      CL = -0.6534
      Cm =  0.0495     CD =  0.01746   =>   CDf =  0.00939    CDp =  0.00806

 Side 1  free  transition at x/c =  0.9733   74
 Side 2  free  transition at x/c =  0.0571   20

   9   rms: 0.2322E+00   max: -.3016E+01   T at   20  2   RLX: 0.166
       a = -4.000      CL = -0.6165
      Cm =  0.0389     CD =  0.01839   =>   CDf =  0.00892    CDp =  0.00947

 Side 1  free  transition at x/c =  0.9751   74
 Side 2  free  transition at x/c =  0.0639   20

  10   rms: 0.3799E+00   max: -.2988E+01   T at   20  2   RLX: 0.167
       a = -4.000      CL = -0.5865
      Cm =  0.0312     CD =  0.02164   =>   CDf =  0.00900    CDp =  0.01264

 Side 1  free  transition at x/c =  0.9739   74
 Side 2  free  transition at x/c =  0.0673   21

  11   rms: 0.2071E+00   max: -.1679E+01   T at   21  2   RLX: 0.298
       a = -4.000      CL = -0.5478
      Cm =  0.0201     CD =  0.01524   =>   CDf =  0.00860    CDp =  0.00664

 Side 1  free  transition at x/c =  0.9768   74
 Side 2  free  transition at x/c =  0.0725   21

  12   rms: 0.1325E+00   max: -.1306E+01   T at   21  2   RLX: 0.383
       a = -4.000      CL = -0.5047
      Cm =  0.0082     CD =  0.01560   =>   CDf =  0.00830    CDp =  0.00730

 Side 1  free  transition at x/c =  0.9803   74
 Side 2  free  transition at x/c =  0.0843   22

  13   rms: 0.1010E+00   max: -.8939E+00   T at   22  2   RLX: 0.559
       a = -4.000      CL = -0.4643
      Cm = -0.0032     CD =  0.01440   =>   CDf =  0.00807    CDp =  0.00633

 Side 1  free  transition at x/c =  0.9840   75
 Side 2  free  transition at x/c =  0.0995   23

  14   rms: 0.6354E-01   max: -.5882E+00   T at   23  2   RLX: 0.850
       a = -4.000      CL = -0.4387
      Cm = -0.0102     CD =  0.01418   =>   CDf =  0.00783    CDp =  0.00635

 Side 1  free  transition at x/c =  0.9858   75
 Side 2  free  transition at x/c =  0.1198   25

  15   rms: 0.7316E-01   max: -.5299E+00   C at   25  2   RLX: 0.944
       a = -4.000      CL = -0.4365
      Cm = -0.0112     CD =  0.01359   =>   CDf =  0.00768    CDp =  0.00591

 Side 1  free  transition at x/c =  0.9862   75
 Side 2  free  transition at x/c =  0.1517   27

  16   rms: 0.7101E-02   max: -.8962E-01   D at   26  2
       a = -4.000      CL = -0.4335
      Cm = -0.0116     CD =  0.01402   =>   CDf =  0.00737    CDp =  0.00665

 Side 1  free  transition at x/c =  0.9863   75
 Side 2  free  transition at x/c =  0.1490   27

  17   rms: 0.2036E-02   max: 0.3215E-01   C at   27  2
       a = -4.000      CL = -0.4335
      Cm = -0.0116     CD =  0.01403   =>   CDf =  0.00737    CDp =  0.00665

 Side 1  free  transition at x/c =  0.9863   75
 Side 2  free  transition at x/c =  0.1482   27

  18   rms: 0.2035E-04   max: -.3979E-03   D at   28  2
       a = -4.000      CL = -0.4335
      Cm = -0.0116     CD =  0.01403   =>   CDf =  0.00738    CDp =  0.00664
 plradd ia,ip,cpol            1           0  9.37680365E-04

 Point added to stored polar  1
 Point written to save file  s8066_Re200k.base.pol                           
 Dump file unspecified or not available
 Calculating wake trajectory ...
 Calculating source influence matrix ...

 Solving BL system ...

 Side 1  free  transition at x/c =  0.9863   75
 Side 2  free  transition at x/c =  0.1482   27

   1   rms: 0.3370E+00   max: -.4316E+01   C at   27  2   RLX: 0.116
       a = -3.500      CL = -0.4264
      Cm = -0.0121     CD =  0.01373   =>   CDf =  0.00738    CDp =  0.00634

 Side 1  free  transition at x/c =  0.9855   75
 Side 2  free  transition at x/c =  0.1649   28

   2   rms: 0.2747E+00   max: -.3241E+01   C at   28  2   RLX: 0.154
       a = -3.500      CL = -0.4163
      Cm = -0.0126     CD =  0.01363   =>   CDf =  0.00731    CDp =  0.00632

 Side 1  free  transition at x/c =  0.9846   75
 Side 2  free  transition at x/c =  0.1839   29

   3   rms: 0.2374E+00   max: -.3351E+01   C at   29  2   RLX: 0.149
       a = -3.500      CL = -0.4077
      Cm = -0.0130     CD =  0.01358   =>   CDf =  0.00723    CDp =  0.00635

 Side 1  free  transition at x/c =  0.9839   75
 Side 2  free  transition at x/c =  0.1992   30

   4   rms: 0.2171E+00   max: -.3199E+01   C at   30  2   RLX: 0.156
       a = -3.500      CL = -0.4002
      Cm = -0.0135     CD =  0.01349   =>   CDf =  0.00718    CDp =  0.00631

 Side 1  free  transition at x/c =  0.9834   74
 Side 2  free  transition at x/c =  0.2126   31

   5   rms: 0.1889E+00   max: -.2875E+01   C at   31  2   RLX: 0.174
       a = -3.500      CL = -0.3958
      Cm = -0.0134     CD =  0.01333   =>   CDf =  0.00714    CDp =  0.00619

 Side 1  free  transition at x/c =  0.9823   74
 Side 2  free  transition at x/c =  0.2234   32

   6   rms: 0.1919E+00   max: -.2529E+01   C at   32  2   RLX: 0.198
       a = -3.500      CL = -0.3919
      Cm = -0.0133     CD =  0.01319   =>   CDf =  0.00713    CDp =  0.00606

 Side 1  free  transition at x/c =  0.9813   74
 Side 2  free  transition at x/c =  0.2349   33

   7   rms: 0.1932E+00   max: -.2247E+01   C at   33  2   RLX: 0.223
       a = -3.500      CL = -0.3886
      Cm = -0.0133     CD =  0.01305   =>   CDf =  0.00728    CDp =  0.00577

 Side 1  free  transition at x/c =  0.9804   75
 Side 2  free  transition at x/c =  0.2495   33

   8   rms: 0.2028E+00   max: -.2427E+01   C at   33  2   RLX: 0.206
       a = -3.500      CL = -0.3861
      Cm = -0.0133     CD =  0.01300   =>   CDf =  0.00708    CDp =  0.00592

 Side 1  free  transition at x/c =  0.9798   75
 Side 2  free  transition at x/c =  0.2628   34

   9   rms: 0.1807E+00   max: -.2315E+01   C at   34  2   RLX: 0.216
       a = -3.500      CL = -0.3841
      Cm = -0.0134     CD =  0.01291   =>   CDf =  0.00703    CDp =  0.00587

 Side 1  free  transition at x/c =  0.9793   75
 Side 2  free  transition at x/c =  0.2781   35

  10   rms: 0.1866E+00   max: -.2724E+01   C at   35  2   RLX: 0.184
       a = -3.500      CL = -0.3826
      Cm = -0.0134     CD =  0.01286   =>   CDf =  0.00694    CDp =  0.00592

 Side 1  free  transition at x/c =  0.9790   75
 Side 2  free  transition at x/c =  0.2906   35

  11   rms: 0.6555E-01   max: -.6451E+00   T at   35  2   RLX: 0.775
       a = -3.500      CL = -0.3743
      Cm = -0.0141     CD =  0.01270   =>   CDf =  0.00688    CDp =  0.00582

 Side 1  free  transition at x/c =  0.9780   75
 Side 2  free  transition at x/c =  0.4271   45

  12   rms: 0.1511E+00   max: -.2490E+01   C at   45  2   RLX: 0.201
       a = -3.500      CL = -0.3871
      Cm = -0.0126     CD =  0.01211   =>   CDf =  0.00626    CDp =  0.00584

 Side 1  free  transition at x/c =  0.9779   75
 Side 2  free  transition at x/c =  0.4346   45

  13   rms: 0.5367E-01   max: -.6845E+00   C at   45  2   RLX: 0.730
       a = -3.500      CL = -0.3802
      Cm = -0.0134     CD =  0.01202   =>   CDf =  0.00626    CDp =  0.00576

 Side 1  free  transition at x/c =  0.9776   75
 Side 2  free  transition at x/c =  0.5135   51

  14   rms: 0.2436E-01   max: 0.3220E+00   C at   51  2
       a = -3.500      CL = -0.3795
      Cm = -0.0133     CD =  0.01187   =>   CDf =  0.00572    CDp =  0.00615

 Side 1  free  transition at x/c =  0.9774   75
 Side 2  free  transition at x/c =  0.4867   49

  15   rms: 0.2486E-02   max: -.2552E-01   D at   49  2
       a = -3.500      CL = -0.3794
      Cm = -0.0133     CD =  0.01188   =>   CDf =  0.00579    CDp =  0.00609

 Side 1  free  transition at x/c =  0.9774   75
 Side 2  free  transition at x/c =  0.4829   49

  16   rms: 0.4018E-03   max: -.6295E-02   C at   49  2
       a = -3.500      CL = -0.3794
      Cm = -0.0133     CD =  0.01189   =>   CDf =  0.00580    CDp =  0.00608

 Side 1  free  transition at x/c =  0.9774   75
 Side 2  free  transition at x/c =  0.4832   49

  17   rms: 0.1131E-05   max: -.7450E-05   T at   75  1
       a = -3.500      CL = -0.3794
      Cm = -0.0133     CD =  0.01189   =>   CDf =  0.00580    CDp =  0.00609
 plradd ia,ip,cpol            2           0  9.37680365E-04

 Point added to stored polar  1
 Point written to save file  s8066_Re200k.base.pol                           
 Dump file unspecified or not available
 Calculating wake trajectory ...
 Calculating source influence matrix ...

 Solving BL system ...

 Side 1  free  transition at x/c =  0.9774   75
 Side 2  free  transition at x/c =  0.4832   49

   1   rms: 0.3164E+00   max: -.4934E+01   C at   49  2   RLX: 0.101
       a = -3.000      CL = -0.3739
      Cm = -0.0134     CD =  0.01175   =>   CDf =  0.00580    CDp =  0.00595

 Side 1  free  transition at x/c =  0.9764   75
 Side 2  free  transition at x/c =  0.5073   50

   2   rms: 0.1280E+00   max: -.5751E+00   C at   50  2   RLX: 0.869
       a = -3.000      CL = -0.3186
      Cm = -0.0162     CD =  0.01178   =>   CDf =  0.00575    CDp =  0.00604

 MRCHDU: Convergence failed at  63  side 2    Res =  0.1289E+02
 MRCHDU: Convergence failed at  64  side 2    Res =  0.1094E+02
 MRCHDU: Convergence failed at  65  side 2    Res =  0.1114E+02
 MRCHDU: Convergence failed at  66  side 2    Res =  0.1079E+02
 MRCHDU: Convergence failed at  67  side 2    Res =  0.1002E+02
 MRCHDU: Convergence failed at  68  side 2    Res =  0.9296E+01
 MRCHDU: Convergence failed at  69  side 2    Res =  0.7932E+01
 MRCHDU: Convergence failed at  70  side 2    Res =  0.7520E+01
 MRCHDU: Convergence failed at  71  side 2    Res =  0.7222E+01
 MRCHDU: Convergence failed at  72  side 2    Res =  0.6873E+01
 MRCHDU: Convergence failed at  73  side 2    Res =  0.6601E+01
 MRCHDU: Convergence failed at  74  side 2    Res =  0.6365E+01
 MRCHDU: Convergence failed at  75  side 2    Res =  0.6235E+01
 MRCHDU: Convergence failed at  76  side 2    Res =  0.6079E+01
 MRCHDU: Convergence failed at  77  side 2    Res =  0.5968E+01
 MRCHDU: Convergence failed at  78  side 2    Res =  0.5878E+01
 MRCHDU: Convergence failed at  79  side 2    Res =  0.5824E+01
 MRCHDU: Convergence failed at  80  side 2    Res =  0.5796E+01
 MRCHDU: Convergence failed at  81  side 2    Res =  0.5788E+01
 MRCHDU: Convergence failed at  82  side 2    Res =  0.5706E+01
 MRCHDU: Convergence failed at  83  side 2    Res =  0.5468E+01
 MRCHDU: Convergence failed at  84  side 2    Res =  0.5137E+01
 MRCHDU: Convergence failed at  85  side 2    Res =  0.4188E+01
 Side 1  free  transition at x/c =  0.9698   74
 Side 2  free  transition at x/c =  0.6853   63

   3   rms: 0.2058E+00   max: 0.8348E+00   D at   50  2   RLX: 0.737
       a = -3.000      CL = -0.2798
      Cm = -0.0139     CD =  0.01041   =>   CDf =  0.00460    CDp =  0.00581

 Side 1  free  transition at x/c =  0.9874   77
 Side 2  free  transition at x/c =  0.7285   65
 idif Ue xi dudx           1  0.26637670      2.68173218E-03   99.330093    
 Uenew xinew           2  4.95430380E-02  4.98771667E-04

   4   rms: 0.1187E+00   max: 0.1123E+01   T at    2  1   RLX: 0.940
       a = -3.000      CL = -0.3032
      Cm = -0.0169     CD =  0.01101   =>   CDf =  0.00529    CDp =  0.00572

 Side 1  free  transition at x/c =  0.9751   75
 Side 2  free  transition at x/c =  0.7091   64

   5   rms: 0.3859E-01   max: 0.2539E+00   T at   75  1
       a = -3.000      CL = -0.3208
      Cm = -0.0136     CD =  0.01136   =>   CDf =  0.00508    CDp =  0.00628

 Side 1  free  transition at x/c =  0.9681   74
 Side 2  free  transition at x/c =  0.6785   62

   6   rms: 0.1283E-01   max: -.9829E-01   C at   62  2
       a = -3.000      CL = -0.3178
      Cm = -0.0143     CD =  0.01143   =>   CDf =  0.00515    CDp =  0.00628

 Side 1  free  transition at x/c =  0.9689   74
 Side 2  free  transition at x/c =  0.6876   63

   7   rms: 0.3180E-02   max: 0.3498E-01   C at   63  2
       a = -3.000      CL = -0.3184
      Cm = -0.0142     CD =  0.01143   =>   CDf =  0.00508    CDp =  0.00635

 Side 1  free  transition at x/c =  0.9687   74
 Side 2  free  transition at x/c =  0.6857   63

   8   rms: 0.5244E-04   max: -.6442E-03   D at   68  2
       a = -3.000      CL = -0.3184
      Cm = -0.0142     CD =  0.01143   =>   CDf =  0.00509    CDp =  0.00634
 plradd ia,ip,cpol            3           0  9.37680365E-04

 Point added to stored polar  1
 Point written to save file  s8066_Re200k.base.pol                           
 Dump file unspecified or not available
 Calculating wake trajectory ...
 Calculating source influence matrix ...

 Solving BL system ...

 Side 1  free  transition at x/c =  0.9687   74
 Side 2  free  transition at x/c =  0.6857   63

   1   rms: 0.1273E+00   max: -.1028E+01   C at   63  2   RLX: 0.486
       a = -2.500      CL = -0.2974
      Cm = -0.0125     CD =  0.01141   =>   CDf =  0.00509    CDp =  0.00632

 Side 1  free  transition at x/c =  0.9613   74
 Side 2  free  transition at x/c =  0.7177   65

   2   rms: 0.7190E-01   max: -.4451E+00   T at   65  2
       a = -2.500      CL = -0.2533
      Cm = -0.0162     CD =  0.01175   =>   CDf =  0.00529    CDp =  0.00646

 MRCHDU: Convergence failed at  69  side 2    Res =  0.6643E+01
 MRCHDU: Convergence failed at  70  side 2    Res =  0.1754E+01
 MRCHDU: Convergence failed at  71  side 2    Res =  0.2433E+01
 MRCHDU: Convergence failed at  72  side 2    Res =  0.3242E+01
 MRCHDU: Convergence failed at  73  side 2    Res =  0.4207E+01
 MRCHDU: Convergence failed at  74  side 2    Res =  0.5342E+01
 MRCHDU: Convergence failed at  75  side 2    Res =  0.6510E+01
 MRCHDU: Convergence failed at  76  side 2    Res =  0.7667E+01
 MRCHDU: Convergence failed at  77  side 2    Res =  0.8566E+01
 MRCHDU: Convergence failed at  78  side 2    Res =  0.9374E+01
 MRCHDU: Convergence failed at  79  side 2    Res =  0.1060E+02
 MRCHDU: Convergence failed at  80  side 2    Res =  0.1099E+02
 MRCHDU: Convergence failed at  81  side 2    Res =  0.1088E+02
 MRCHDU: Convergence failed at  82  side 2    Res =  0.9785E+01
 MRCHDU: Convergence failed at  83  side 2    Res =  0.8998E+01
 MRCHDU: Convergence failed at  84  side 2    Res =  0.6617E+01
 Side 1  free  transition at x/c =  0.9580   75
 Side 2  free  transition at x/c =  0.7922   69

   3   rms: 0.1424E+00   max: 0.6609E+00   T at   78  2
       a = -2.500      CL = -0.2225
      Cm = -0.0224     CD =  0.01092   =>   CDf =  0.00454    CDp =  0.00638

 Side 1  free  transition at x/c =  0.9651   75
 Side 2  free  transition at x/c =  0.7807   68

   4   rms: 0.4934E-01   max: 0.2549E+00   T at   75  1
       a = -2.500      CL = -0.2648
      Cm = -0.0130     CD =  0.01147   =>   CDf =  0.00509    CDp =  0.00638

 Side 1  free  transition at x/c =  0.9567   74
 Side 2  free  transition at x/c =  0.7667   67

   5   rms: 0.3994E-01   max: -.2917E+00   T at   74  1
       a = -2.500      CL = -0.2339
      Cm = -0.0194     CD =  0.01178   =>   CDf =  0.00511    CDp =  0.00667

 Side 1  free  transition at x/c =  0.9667   75
 Side 2  free  transition at x/c =  0.7806   68

   6   rms: 0.6072E-01   max: 0.4604E+00   D at   77  1
       a = -2.500      CL = -0.2559
      Cm = -0.0150     CD =  0.01153   =>   CDf =  0.00506    CDp =  0.00647

 Side 1  free  transition at x/c =  0.9586   75
 Side 2  free  transition at x/c =  0.7714   68

   7   rms: 0.3447E-02   max: -.4244E-01   D at   75  1
       a = -2.500      CL = -0.2549
      Cm = -0.0151     CD =  0.01161   =>   CDf =  0.00508    CDp =  0.00653

 Side 1  free  transition at x/c =  0.9588   75
 Side 2  free  transition at x/c =  0.7721   68

   8   rms: 0.7350E-04   max: 0.5929E-03   C at   68  2
       a = -2.500      CL = -0.2549
      Cm = -0.0151     CD =  0.01161   =>   CDf =  0.00508    CDp =  0.00653
 plradd ia,ip,cpol            4           0  9.37680365E-04

 Point added to stored polar  1
 Point written to save file  s8066_Re200k.base.pol                           
 Dump file unspecified or not available
 Calculating wake trajectory ...
 Calculating source influence matrix ...

 Solving BL system ...

 Side 1  free  transition at x/c =  0.9588   75
 Side 2  free  transition at x/c =  0.7721   68

   1   rms: 0.1250E+00   max: 0.5611E+00   D at   70  2
       a = -2.000      CL = -0.1822
      Cm = -0.0174     CD =  0.01181   =>   CDf =  0.00507    CDp =  0.00674

 Side 1  free  transition at x/c =  0.9532   74
 Side 2  free  transition at x/c =  0.8061   70

   2   rms: 0.5747E-01   max: -.3622E+00   D at   72  2
       a = -2.000      CL = -0.2116
      Cm = -0.0125     CD =  0.01178   =>   CDf =  0.00525    CDp =  0.00653

 MRCHDU: Convergence failed at  73  side 2    Res =  0.2053E+01
 MRCHDU: Convergence failed at  74  side 2    Res =  0.6171E+01
 MRCHDU: Convergence failed at  75  side 2    Res =  0.2341E+01
 MRCHDU: Convergence failed at  76  side 2    Res =  0.1644E+01
 MRCHDU: Convergence failed at  77  side 2    Res =  0.1935E+01
 MRCHDU: Convergence failed at  78  side 2    Res =  0.2358E+01
 MRCHDU: Convergence failed at  79  side 2    Res =  0.2825E+01
 MRCHDU: Convergence failed at  80  side 2    Res =  0.3304E+01
 MRCHDU: Convergence failed at  81  side 2    Res =  0.3788E+01
 MRCHDU: Convergence failed at  82  side 2    Res =  0.4172E+01
 MRCHDU: Convergence failed at  83  side 2    Res =  0.4469E+01
 MRCHDU: Convergence failed at  84  side 2    Res =  0.3925E+01
 Side 1  free  transition at x/c =  0.9425   73
 Side 2  free  transition at x/c =  0.8366   72

   3   rms: 0.2570E+00   max: -.1921E+01   T at   73  1   RLX: 0.260
       a = -2.000      CL = -0.1808
      Cm = -0.0080     CD =  0.01101   =>   CDf =  0.00493    CDp =  0.00608

 Side 1  free  transition at x/c =  0.9595   76
 Side 2  free  transition at x/c =  0.8382   71
 idif Ue xi dudx           1  0.24597277      1.89745426E-03   129.63304    
 Uenew xinew           2  7.34039489E-03  5.66244125E-05

   4   rms: 0.1117E+00   max: 0.4588E+00   D at   83  2
       a = -2.000      CL = -0.1851
      Cm = -0.0173     CD =  0.01150   =>   CDf =  0.00525    CDp =  0.00624

 Side 1  free  transition at x/c =  0.9531   74
 Side 2  free  transition at x/c =  0.8280   72

   5   rms: 0.9010E-01   max: 0.1358E+01   T at    2  2   RLX: 0.769
       a = -2.000      CL = -0.2075
      Cm = -0.0129     CD =  0.01167   =>   CDf =  0.00512    CDp =  0.00655

 Side 1  free  transition at x/c =  0.9445   74
 Side 2  free  transition at x/c =  0.8249   71

   6   rms: 0.2094E-01   max: -.1059E+00   T at   74  1
       a = -2.000      CL = -0.1970
      Cm = -0.0149     CD =  0.01177   =>   CDf =  0.00510    CDp =  0.00667

 Side 1  free  transition at x/c =  0.9474   74
 Side 2  free  transition at x/c =  0.8246   71

   7   rms: 0.2345E-02   max: -.1613E-01   D at   74  1
       a = -2.000      CL = -0.1960
      Cm = -0.0151     CD =  0.01180   =>   CDf =  0.00511    CDp =  0.00668

 Side 1  free  transition at x/c =  0.9477   74
 Side 2  free  transition at x/c =  0.8246   71

   8   rms: 0.2105E-04   max: 0.1609E-03   D at   73  2
       a = -2.000      CL = -0.1960
      Cm = -0.0151     CD =  0.01180   =>   CDf =  0.00511    CDp =  0.00668
 plradd ia,ip,cpol            5           0  2.05976306E-03

 Point added to stored polar  1
 Point written to save file  s8066_Re200k.base.pol                           
 Dump file unspecified or not available
 Calculating wake trajectory ...
 Calculating source influence matrix ...

 Solving BL system ...

 Side 1  free  transition at x/c =  0.9477   74
 Side 2  free  transition at x/c =  0.8246   71

   1   rms: 0.1072E+00   max: -.5539E+00   T at   71  2   RLX: 0.903
       a = -1.500      CL = -0.1347
      Cm = -0.0171     CD =  0.01194   =>   CDf =  0.00521    CDp =  0.00672

 Side 1  free  transition at x/c =  0.9401   74
 Side 2  free  transition at x/c =  0.8702   73

   2   rms: 0.3133E-01   max: 0.3117E+00   D at    3  1
       a = -1.500      CL = -0.1409
      Cm = -0.0141     CD =  0.01203   =>   CDf =  0.00521    CDp =  0.00682

 Side 1  free  transition at x/c =  0.9354   74
 Side 2  free  transition at x/c =  0.8685   73

   3   rms: 0.9180E-02   max: 0.6044E-01   D at   74  2
       a = -1.500      CL = -0.1364
      Cm = -0.0149     CD =  0.01198   =>   CDf =  0.00515    CDp =  0.00683

 Side 1  free  transition at x/c =  0.9370   74
 Side 2  free  transition at x/c =  0.8682   73

   4   rms: 0.1161E-02   max: -.6703E-02   T at   74  1
       a = -1.500      CL = -0.1357
      Cm = -0.0151     CD =  0.01199   =>   CDf =  0.00515    CDp =  0.00684

 Side 1  free  transition at x/c =  0.9373   74
 Side 2  free  transition at x/c =  0.8681   73

   5   rms: 0.2401E-04   max: -.1440E-03   T at   74  1
       a = -1.500      CL = -0.1357
      Cm = -0.0151     CD =  0.01199   =>   CDf =  0.00515    CDp =  0.00684
 plradd ia,ip,cpol            6           0  1.66343059E-02

 Point added to stored polar  1
 Point written to save file  s8066_Re200k.base.pol                           
 Dump file unspecified or not available
 Calculating wake trajectory ...
 Calculating source influence matrix ...

 Solving BL system ...

 Side 1  free  transition at x/c =  0.9373   74
 Side 2  free  transition at x/c =  0.8681   73

   1   rms: 0.9385E-01   max: -.5389E+00   T at   73  2   RLX: 0.928
       a = -1.000      CL = -0.0886
      Cm = -0.0138     CD =  0.01207   =>   CDf =  0.00524    CDp =  0.00683

 MRCHDU: Convergence failed at  76  side 2    Res =  0.5779E+01
 MRCHDU: Convergence failed at  77  side 2    Res =  0.4137E+01
 MRCHDU: Convergence failed at  78  side 2    Res =  0.2540E+01
 MRCHDU: Convergence failed at  79  side 2    Res =  0.4560E+01
 MRCHDU: Convergence failed at  80  side 2    Res =  0.7999E+01
 MRCHDU: Convergence failed at  81  side 2    Res =  0.1024E+02
 MRCHDU: Convergence failed at  82  side 2    Res =  0.6589E+01
 Side 1  free  transition at x/c =  0.9250   74
 Side 2  free  transition at x/c =  0.9115   75

   2   rms: 0.6985E+00   max: -.8312E+01   T at    2  1   RLX: 0.060
       a = -1.000      CL = -0.0740
      Cm = -0.0092     CD =  0.01064   =>   CDf =  0.00510    CDp =  0.00555

 Side 1  free  transition at x/c =  0.9324   75
 Side 2  free  transition at x/c =  0.9048   75

   3   rms: 0.7237E-01   max: -.7755E+00   D at   81  2   RLX: 0.645
       a = -1.000      CL = -0.0711
      Cm = -0.0155     CD =  0.01294   =>   CDf =  0.00514    CDp =  0.00781

 Side 1  free  transition at x/c =  0.9299   75
 Side 2  free  transition at x/c =  0.9079   75

   4   rms: 0.6740E-01   max: -.7004E+00   D at   81  2   RLX: 0.714
       a = -1.000      CL = -0.0871
      Cm = -0.0125     CD =  0.01229   =>   CDf =  0.00513    CDp =  0.00716

 Side 1  free  transition at x/c =  0.9277   74
 Side 2  free  transition at x/c =  0.9139   76
 idif Ue xi dudx           1  0.34596223      2.35676765E-03   146.79523    
 Uenew xinew           2  0.10032380      6.83426857E-04

   5   rms: 0.2470E+00   max: 0.2036E+01   T at   74  1   RLX: 0.395
       a = -1.000      CL = -0.1652
      Cm =  0.0029     CD =  0.01213   =>   CDf =  0.00510    CDp =  0.00703

 Side 1  free  transition at x/c =  0.9050   72
 Side 2  free  transition at x/c =  0.9183   77

   6   rms: 0.1178E+00   max: -.7007E+00   T at   72  1   RLX: 0.714
       a = -1.000      CL = -0.1010
      Cm = -0.0092     CD =  0.01302   =>   CDf =  0.00504    CDp =  0.00797

 Side 1  free  transition at x/c =  0.9232   73
 Side 2  free  transition at x/c =  0.9119   76

   7   rms: 0.3141E-01   max: -.9414E-01   D at   88  2
       a = -1.000      CL = -0.0688
      Cm = -0.0161     CD =  0.01219   =>   CDf =  0.00523    CDp =  0.00696

 Side 1  free  transition at x/c =  0.9281   74
 Side 2  free  transition at x/c =  0.9042   75
 idif Ue xi dudx           1  0.32750317      2.26581097E-03   144.54126    
 Uenew xinew           2  8.56363848E-02  5.92470169E-04

   8   rms: 0.7441E+00   max: 0.6138E+01   T at   74  1   RLX: 0.132
       a = -1.000      CL = -0.1514
      Cm =  0.0000     CD =  0.01249   =>   CDf =  0.00515    CDp =  0.00734

 Side 1  free  transition at x/c =  0.9052   72
 Side 2  free  transition at x/c =  0.9096   76

   9   rms: 0.1202E+00   max: -.7141E+00   T at   72  1   RLX: 0.700
       a = -1.000      CL = -0.0956
      Cm = -0.0103     CD =  0.01330   =>   CDf =  0.00518    CDp =  0.00812

 Side 1  free  transition at x/c =  0.9234   74
 Side 2  free  transition at x/c =  0.9080   75

  10   rms: 0.8445E-01   max: -.1375E+01   T at    2  1   RLX: 0.364
       a = -1.000      CL = -0.0865
      Cm = -0.0124     CD =  0.01250   =>   CDf =  0.00517    CDp =  0.00733

 Side 1  free  transition at x/c =  0.9251   74
 Side 2  free  transition at x/c =  0.9071   75

  11   rms: 0.2614E-01   max: -.1178E+00   D at   87  2
       a = -1.000      CL = -0.0642
      Cm = -0.0170     CD =  0.01218   =>   CDf =  0.00518    CDp =  0.00700

 Side 1  free  transition at x/c =  0.9299   75
 Side 2  free  transition at x/c =  0.9048   75

  12   rms: 0.1531E-02   max: 0.1035E-01   D at   75  1
       a = -1.000      CL = -0.0631
      Cm = -0.0173     CD =  0.01220   =>   CDf =  0.00520    CDp =  0.00699

 Side 1  free  transition at x/c =  0.9300   75
 Side 2  free  transition at x/c =  0.9049   75

  13   rms: 0.2234E-04   max: -.1410E-03   T at   75  1
       a = -1.000      CL = -0.0631
      Cm = -0.0173     CD =  0.01220   =>   CDf =  0.00520    CDp =  0.00699
 plradd ia,ip,cpol            7           0  3.14837508E-02

 Point added to stored polar  1
 Point written to save file  s8066_Re200k.base.pol                           
 Dump file unspecified or not available
 Calculating wake trajectory ...
 Calculating source influence matrix ...

 Solving BL system ...

 Side 1  free  transition at x/c =  0.9300   75
 Side 2  free  transition at x/c =  0.9049   75

   1   rms: 0.1167E+00   max: -.4369E+00   T at   75  2
       a = -0.500      CL =  0.0236
      Cm = -0.0222     CD =  0.01239   =>   CDf =  0.00520    CDp =  0.00718

 Side 1  free  transition at x/c =  0.9263   74
 Side 2  free  transition at x/c =  0.9213   76

   2   rms: 0.1802E+00   max: 0.1322E+01   T at   74  1   RLX: 0.646
       a = -0.500      CL = -0.0724
      Cm = -0.0047     CD =  0.01249   =>   CDf =  0.00528    CDp =  0.00721

 MRCHDU: Convergence failed at  79  side 2    Res =  0.8036E+01
 MRCHDU: Convergence failed at  80  side 2    Res =  0.4170E+01
 MRCHDU: Convergence failed at  81  side 2    Res =  0.3005E+01
 MRCHDU: Convergence failed at  82  side 2    Res =  0.4018E+01
 Side 1  free  transition at x/c =  0.8998   72
 Side 2  free  transition at x/c =  0.9601   79

   3   rms: 0.5359E+00   max: -.4407E+01   T at   72  1   RLX: 0.113
       a = -0.500      CL = -0.0377
      Cm = -0.0065     CD =  0.01292   =>   CDf =  0.00516    CDp =  0.00776

 Side 1  free  transition at x/c =  0.9167   74
 Side 2  free  transition at x/c =  0.9421   77

   4   rms: 0.6137E-01   max: -.4560E+00   D at   81  2
       a = -0.500      CL =  0.0152
      Cm = -0.0212     CD =  0.01258   =>   CDf =  0.00522    CDp =  0.00736

 Side 1  free  transition at x/c =  0.9198   74
 Side 2  free  transition at x/c =  0.9278   76

   5   rms: 0.3208E-01   max: -.2726E+00   D at   79  2
       a = -0.500      CL =  0.0012
      Cm = -0.0185     CD =  0.01231   =>   CDf =  0.00525    CDp =  0.00706

 Side 1  free  transition at x/c =  0.9189   74
 Side 2  free  transition at x/c =  0.9388   77

   6   rms: 0.2555E-01   max: 0.2369E+00   D at   78  2
       a = -0.500      CL =  0.0057
      Cm = -0.0192     CD =  0.01231   =>   CDf =  0.00526    CDp =  0.00705

 Side 1  free  transition at x/c =  0.9196   74
 Side 2  free  transition at x/c =  0.9334   77

   7   rms: 0.5966E-02   max: 0.3714E-01   D at   78  2
       a = -0.500      CL =  0.0097
      Cm = -0.0201     CD =  0.01237   =>   CDf =  0.00526    CDp =  0.00712

 Side 1  free  transition at x/c =  0.9201   74
 Side 2  free  transition at x/c =  0.9314   77

   8   rms: 0.4443E-03   max: -.4429E-02   D at   78  2
       a = -0.500      CL =  0.0098
      Cm = -0.0201     CD =  0.01238   =>   CDf =  0.00526    CDp =  0.00712

 Side 1  free  transition at x/c =  0.9201   74
 Side 2  free  transition at x/c =  0.9314   77

   9   rms: 0.2461E-05   max: 0.1788E-04   T at   77  2
       a = -0.500      CL =  0.0098
      Cm = -0.0201     CD =  0.01238   =>   CDf =  0.00526    CDp =  0.00712
 plradd ia,ip,cpol            8           0  5.32387570E-02

 Point added to stored polar  1
 Point written to save file  s8066_Re200k.base.pol                           
 Dump file unspecified or not available
 Calculating wake trajectory ...
 Calculating source influence matrix ...

 Solving BL system ...

 Side 1  free  transition at x/c =  0.9201   74
 Side 2  free  transition at x/c =  0.9314   77

   1   rms: 0.1175E+00   max: 0.3195E+00   D at   81  2
       a =  0.000      CL =  0.1086
      Cm = -0.0284     CD =  0.01249   =>   CDf =  0.00532    CDp =  0.00718

 Side 1  free  transition at x/c =  0.9150   75
 Side 2  free  transition at x/c =  0.9413   76

   2   rms: 0.6726E-01   max: -.4319E+00   T at   76  2
       a =  0.000      CL =  0.0620
      Cm = -0.0189     CD =  0.01235   =>   CDf =  0.00532    CDp =  0.00703

 MRCHDU: Convergence failed at  79  side 2    Res =  0.4626E+02
 MRCHDU: Convergence failed at  80  side 2    Res =  0.1006E+02
 MRCHDU: Convergence failed at  81  side 2    Res =  0.1380E+02
 Side 1  free  transition at x/c =  0.9116   74
 Side 2  free  transition at x/c =  0.9729   79

   3   rms: 0.1482E+00   max: 0.1473E+01   C at   79  2
       a =  0.000      CL =  0.1363
      Cm = -0.0324     CD =  0.01133   =>   CDf =  0.00533    CDp =  0.00601

 Side 1  free  transition at x/c =  0.9315   76
 Side 2  free  transition at x/c =  0.9285   76

   4   rms: 0.5994E-01   max: -.5477E+00   D at   78  2   RLX: 0.913
       a =  0.000      CL =  0.1315
      Cm = -0.0331     CD =  0.01234   =>   CDf =  0.00534    CDp =  0.00699

 Side 1  free  transition at x/c =  0.9249   75
 Side 2  free  transition at x/c =  0.9382   76

   5   rms: 0.1408E+00   max: 0.9606E+00   T at   75  1   RLX: 0.938
       a =  0.000      CL =  0.0203
      Cm = -0.0111     CD =  0.01290   =>   CDf =  0.00534    CDp =  0.00756

 MRCHDU: Convergence failed at  79  side 2    Res =  0.2631E+01
 MRCHDU: Convergence failed at  80  side 2    Res =  0.4504E+01
 MRCHDU: Convergence failed at  81  side 2    Res =  0.4852E+01
 Side 1  free  transition at x/c =  0.8947   73
 Side 2  free  transition at x/c =  0.9778   79

   6   rms: 0.1957E+00   max: 0.1518E+01   C at   79  2   RLX: 0.464
       a =  0.000      CL =  0.0839
      Cm = -0.0215     CD =  0.01265   =>   CDf =  0.00528    CDp =  0.00737

 Side 1  free  transition at x/c =  0.9147   75
 Side 2  free  transition at x/c =  0.9443   77

   7   rms: 0.3661E-01   max: -.4071E+00   D at   78  2
       a =  0.000      CL =  0.1076
      Cm = -0.0283     CD =  0.01257   =>   CDf =  0.00532    CDp =  0.00725

 Side 1  free  transition at x/c =  0.9154   75
 Side 2  free  transition at x/c =  0.9442   77

   8   rms: 0.3627E-02   max: -.3531E-01   D at   78  2
       a =  0.000      CL =  0.1067
      Cm = -0.0281     CD =  0.01240   =>   CDf =  0.00532    CDp =  0.00708

 Side 1  free  transition at x/c =  0.9154   75
 Side 2  free  transition at x/c =  0.9451   77

   9   rms: 0.9598E-04   max: -.8896E-03   D at   78  2
       a =  0.000      CL =  0.1067
      Cm = -0.0281     CD =  0.01240   =>   CDf =  0.00532    CDp =  0.00708
 plradd ia,ip,cpol            9           0  0.25453371    

 Point added to stored polar  1
 Point written to save file  s8066_Re200k.base.pol                           
 Dump file unspecified or not available
 Calculating wake trajectory ...
 Calculating source influence matrix ...

 Solving BL system ...

 Side 1  free  transition at x/c =  0.9154   75
 Side 2  free  transition at x/c =  0.9451   77

   1   rms: 0.1216E+00   max: 0.2534E+00   D at   80  2
       a =  0.500      CL =  0.2134
      Cm = -0.0381     CD =  0.01234   =>   CDf =  0.00535    CDp =  0.00698

 Side 1  free  transition at x/c =  0.9115   75
 Side 2  free  transition at x/c =  0.9509   76

   2   rms: 0.5241E-01   max: 0.3727E+00   T at   75  1
       a =  0.500      CL =  0.1717
      Cm = -0.0303     CD =  0.01264   =>   CDf =  0.00533    CDp =  0.00731

 Side 1  free  transition at x/c =  0.8968   74
 Side 2  free  transition at x/c =  0.9641   77

   3   rms: 0.7401E-01   max: -.5486E+00   T at   74  1   RLX: 0.911
       a =  0.500      CL =  0.2088
      Cm = -0.0363     CD =  0.01210   =>   CDf =  0.00532    CDp =  0.00678

 MRCHDU: Convergence failed at  79  side 1    Res =  0.1582E+01
 MRCHDU: Convergence failed at  80  side 1    Res =  0.7613E+01
 MRCHDU: Convergence failed at  81  side 1    Res =  0.2196E+02
 MRCHDU: Convergence failed at  82  side 1    Res =  0.2367E+02
 Side 1  free  transition at x/c =  0.9201   76
 Side 2  free  transition at x/c =  0.9536   76

   4   rms: 0.1042E+00   max: 0.5851E+00   T at   82  1
       a =  0.500      CL =  0.1983
      Cm = -0.0348     CD =  0.01125   =>   CDf =  0.00535    CDp =  0.00590

 Side 1  free  transition at x/c =  0.9123   75
 Side 2  free  transition at x/c =  0.9577   77

   5   rms: 0.4333E-01   max: 0.3936E+00   T at   75  1
       a =  0.500      CL =  0.1782
      Cm = -0.0317     CD =  0.01267   =>   CDf =  0.00534    CDp =  0.00732

 Side 1  free  transition at x/c =  0.8968   74
 Side 2  free  transition at x/c =  0.9602   77

   6   rms: 0.7304E-01   max: -.5301E+00   T at   74  1   RLX: 0.943
       a =  0.500      CL =  0.2076
      Cm = -0.0361     CD =  0.01208   =>   CDf =  0.00531    CDp =  0.00677

 MRCHDU: Convergence failed at  79  side 1    Res =  0.1744E+01
 MRCHDU: Convergence failed at  80  side 1    Res =  0.1092E+02
 MRCHDU: Convergence failed at  81  side 1    Res =  0.3576E+02
 MRCHDU: Convergence failed at  82  side 1    Res =  0.1786E+02
 Side 1  free  transition at x/c =  0.9201   76
 Side 2  free  transition at x/c =  0.9543   76

   7   rms: 0.1044E+00   max: 0.5860E+00   T at   82  1
       a =  0.500      CL =  0.1985
      Cm = -0.0348     CD =  0.01126   =>   CDf =  0.00535    CDp =  0.00590

 Side 1  free  transition at x/c =  0.9124   75
 Side 2  free  transition at x/c =  0.9576   77

   8   rms: 0.4397E-01   max: 0.3980E+00   T at   75  1
       a =  0.500      CL =  0.1780
      Cm = -0.0317     CD =  0.01267   =>   CDf =  0.00534    CDp =  0.00733

 Side 1  free  transition at x/c =  0.8967   74
 Side 2  free  transition at x/c =  0.9603   77

   9   rms: 0.7321E-01   max: -.5275E+00   T at   74  1   RLX: 0.948
       a =  0.500      CL =  0.2077
      Cm = -0.0361     CD =  0.01207   =>   CDf =  0.00531    CDp =  0.00676

 MRCHDU: Convergence failed at  79  side 1    Res =  0.1702E+01
 MRCHDU: Convergence failed at  80  side 1    Res =  0.1104E+02
 MRCHDU: Convergence failed at  81  side 1    Res =  0.3837E+02
 MRCHDU: Convergence failed at  82  side 1    Res =  0.1732E+02
 Side 1  free  transition at x/c =  0.9200   76
 Side 2  free  transition at x/c =  0.9543   76

  10   rms: 0.1037E+00   max: 0.5825E+00   T at   82  1
       a =  0.500      CL =  0.1982
      Cm = -0.0347     CD =  0.01127   =>   CDf =  0.00535    CDp =  0.00592

 Side 1  free  transition at x/c =  0.9122   75
 Side 2  free  transition at x/c =  0.9577   77

  11   rms: 0.4282E-01   max: 0.3875E+00   T at   75  1
       a =  0.500      CL =  0.1786
      Cm = -0.0318     CD =  0.01266   =>   CDf =  0.00534    CDp =  0.00732

 Side 1  free  transition at x/c =  0.8969   74
 Side 2  free  transition at x/c =  0.9602   77

  12   rms: 0.7291E-01   max: -.5343E+00   T at   74  1   RLX: 0.936
       a =  0.500      CL =  0.2076
      Cm = -0.0361     CD =  0.01209   =>   CDf =  0.00531    CDp =  0.00677

 MRCHDU: Convergence failed at  79  side 1    Res =  0.1807E+01
 MRCHDU: Convergence failed at  80  side 1    Res =  0.1074E+02
 MRCHDU: Convergence failed at  81  side 1    Res =  0.3330E+02
 MRCHDU: Convergence failed at  82  side 1    Res =  0.1843E+02
 Side 1  free  transition at x/c =  0.9202   76
 Side 2  free  transition at x/c =  0.9543   76

  13   rms: 0.1055E+00   max: 0.5917E+00   T at   82  1
       a =  0.500      CL =  0.1987
      Cm = -0.0349     CD =  0.01124   =>   CDf =  0.00535    CDp =  0.00589

 Side 1  free  transition at x/c =  0.9124   75
 Side 2  free  transition at x/c =  0.9575   77

  14   rms: 0.4517E-01   max: 0.4090E+00   T at   75  1
       a =  0.500      CL =  0.1775
      Cm = -0.0316     CD =  0.01268   =>   CDf =  0.00534    CDp =  0.00734

 Side 1  free  transition at x/c =  0.8964   74
 Side 2  free  transition at x/c =  0.9604   77

  15   rms: 0.7364E-01   max: -.5212E+00   T at   74  1   RLX: 0.959
       a =  0.500      CL =  0.2078
      Cm = -0.0362     CD =  0.01205   =>   CDf =  0.00531    CDp =  0.00674

 MRCHDU: Convergence failed at  79  side 1    Res =  0.1583E+01
 MRCHDU: Convergence failed at  80  side 1    Res =  0.1133E+02
 MRCHDU: Convergence failed at  81  side 1    Res =  0.4174E+02
 MRCHDU: Convergence failed at  82  side 1    Res =  0.1650E+02
 Side 1  free  transition at x/c =  0.9197   76
 Side 2  free  transition at x/c =  0.9543   76

  16   rms: 0.1019E+00   max: 0.5729E+00   T at   82  1
       a =  0.500      CL =  0.1973
      Cm = -0.0346     CD =  0.01131   =>   CDf =  0.00535    CDp =  0.00595

 Side 1  free  transition at x/c =  0.9120   75
 Side 2  free  transition at x/c =  0.9579   77

  17   rms: 0.3996E-01   max: 0.3608E+00   T at   75  1
       a =  0.500      CL =  0.1799
      Cm = -0.0320     CD =  0.01264   =>   CDf =  0.00534    CDp =  0.00730

 Side 1  free  transition at x/c =  0.8976   74
 Side 2  free  transition at x/c =  0.9599   77

  18   rms: 0.7325E-01   max: -.5598E+00   T at   74  1   RLX: 0.893
       a =  0.500      CL =  0.2076
      Cm = -0.0360     CD =  0.01214   =>   CDf =  0.00531    CDp =  0.00682

 MRCHDU: Convergence failed at  79  side 1    Res =  0.2037E+01
 MRCHDU: Convergence failed at  80  side 1    Res =  0.1004E+02
 MRCHDU: Convergence failed at  81  side 1    Res =  0.2234E+02
 MRCHDU: Convergence failed at  82  side 1    Res =  0.2451E+02
 Side 1  free  transition at x/c =  0.9209   76
 Side 2  free  transition at x/c =  0.9543   76

  19   rms: 0.1093E+00   max: 0.6123E+00   T at   82  1
       a =  0.500      CL =  0.2009
      Cm = -0.0353     CD =  0.01116   =>   CDf =  0.00535    CDp =  0.00580

 Side 1  free  transition at x/c =  0.9131   75
 Side 2  free  transition at x/c =  0.9570   77

  20   rms: 0.5439E-01   max: 0.4902E+00   T at   75  1
       a =  0.500      CL =  0.1732
      Cm = -0.0308     CD =  0.01274   =>   CDf =  0.00534    CDp =  0.00740

 Side 1  free  transition at x/c =  0.8943   74
 Side 2  free  transition at x/c =  0.9611   77

  21   rms: 0.8950E-01   max: -.5636E+00   T at   74  1   RLX: 0.887
       a =  0.500      CL =  0.2110
      Cm = -0.0371     CD =  0.01218   =>   CDf =  0.00531    CDp =  0.00687

 Side 1  free  transition at x/c =  0.9173   76
 Side 2  free  transition at x/c =  0.9533   76

  22   rms: 0.3816E-01   max: 0.3048E+00   D at   76  1
       a =  0.500      CL =  0.2126
      Cm = -0.0380     CD =  0.01216   =>   CDf =  0.00535    CDp =  0.00681

 Side 1  free  transition at x/c =  0.9123   75
 Side 2  free  transition at x/c =  0.9525   76

  23   rms: 0.6782E-01   max: 0.4931E+00   T at   75  1
       a =  0.500      CL =  0.1617
      Cm = -0.0284     CD =  0.01276   =>   CDf =  0.00534    CDp =  0.00742

 Side 1  free  transition at x/c =  0.8934   74
 Side 2  free  transition at x/c =  0.9673   77

  24   rms: 0.8443E-01   max: -.5295E+00   T at   74  1   RLX: 0.944
       a =  0.500      CL =  0.2108
      Cm = -0.0371     CD =  0.01211   =>   CDf =  0.00531    CDp =  0.00680

 Side 1  free  transition at x/c =  0.9162   76
 Side 2  free  transition at x/c =  0.9527   76

  25   rms: 0.2996E-01   max: 0.2527E+00   D at   76  1
       a =  0.500      CL =  0.2109
      Cm = -0.0376     CD =  0.01221   =>   CDf =  0.00535    CDp =  0.00686

 Side 1  free  transition at x/c =  0.9120   75
 Side 2  free  transition at x/c =  0.9529   76

  26   rms: 0.6437E-01   max: 0.4605E+00   T at   75  1
       a =  0.500      CL =  0.1632
      Cm = -0.0286     CD =  0.01274   =>   CDf =  0.00534    CDp =  0.00740

 Side 1  free  transition at x/c =  0.8942   74
 Side 2  free  transition at x/c =  0.9672   77

  27   rms: 0.7799E-01   max: -.5078E+00   T at   74  1   RLX: 0.985
       a =  0.500      CL =  0.2097
      Cm = -0.0368     CD =  0.01204   =>   CDf =  0.00532    CDp =  0.00673

 Side 1  free  transition at x/c =  0.9173   76
 Side 2  free  transition at x/c =  0.9529   76

  28   rms: 0.3842E-01   max: 0.3257E+00   D at   77  1
       a =  0.500      CL =  0.2117
      Cm = -0.0378     CD =  0.01217   =>   CDf =  0.00535    CDp =  0.00682

 Side 1  free  transition at x/c =  0.9123   75
 Side 2  free  transition at x/c =  0.9527   76

  29   rms: 0.6842E-01   max: 0.4959E+00   T at   75  1
       a =  0.500      CL =  0.1606
      Cm = -0.0282     CD =  0.01277   =>   CDf =  0.00534    CDp =  0.00743

 Side 1  free  transition at x/c =  0.8933   74
 Side 2  free  transition at x/c =  0.9679   77

  30   rms: 0.8456E-01   max: -.5272E+00   T at   74  1   RLX: 0.948
       a =  0.500      CL =  0.2107
      Cm = -0.0371     CD =  0.01210   =>   CDf =  0.00531    CDp =  0.00679

 Side 1  free  transition at x/c =  0.9161   76
 Side 2  free  transition at x/c =  0.9526   76

  31   rms: 0.2866E-01   max: 0.2420E+00   D at   76  1
       a =  0.500      CL =  0.2105
      Cm = -0.0375     CD =  0.01222   =>   CDf =  0.00535    CDp =  0.00687

 Side 1  free  transition at x/c =  0.9119   75
 Side 2  free  transition at x/c =  0.9530   76

  32   rms: 0.6273E-01   max: 0.4470E+00   T at   75  1
       a =  0.500      CL =  0.1640
      Cm = -0.0288     CD =  0.01273   =>   CDf =  0.00534    CDp =  0.00739

 Side 1  free  transition at x/c =  0.8946   74
 Side 2  free  transition at x/c =  0.9670   77

  33   rms: 0.7624E-01   max: -.5066E+00   T at   74  1   RLX: 0.987
       a =  0.500      CL =  0.2094
      Cm = -0.0367     CD =  0.01205   =>   CDf =  0.00532    CDp =  0.00674

 Side 1  free  transition at x/c =  0.9177   76
 Side 2  free  transition at x/c =  0.9530   76

  34   rms: 0.4172E-01   max: 0.3565E+00   D at   77  1
       a =  0.500      CL =  0.2124
      Cm = -0.0379     CD =  0.01215   =>   CDf =  0.00535    CDp =  0.00679

 Side 1  free  transition at x/c =  0.9125   75
 Side 2  free  transition at x/c =  0.9526   76

  35   rms: 0.7095E-01   max: 0.5178E+00   T at   75  1
       a =  0.500      CL =  0.1592
      Cm = -0.0279     CD =  0.01278   =>   CDf =  0.00534    CDp =  0.00745

 Side 1  free  transition at x/c =  0.8927   74
 Side 2  free  transition at x/c =  0.9682   77

  36   rms: 0.8887E-01   max: -.5405E+00   T at   74  1   RLX: 0.925
       a =  0.500      CL =  0.2115
      Cm = -0.0373     CD =  0.01214   =>   CDf =  0.00531    CDp =  0.00683

 Side 1  free  transition at x/c =  0.9153   76
 Side 2  free  transition at x/c =  0.9523   76

  37   rms: 0.2285E-01   max: 0.1896E+00   D at   76  1
       a =  0.500      CL =  0.2099
      Cm = -0.0374     CD =  0.01224   =>   CDf =  0.00534    CDp =  0.00690

 Side 1  free  transition at x/c =  0.9118   75
 Side 2  free  transition at x/c =  0.9532   76

  38   rms: 0.6157E-01   max: 0.4345E+00   T at   75  1
       a =  0.500      CL =  0.1646
      Cm = -0.0289     CD =  0.01272   =>   CDf =  0.00534    CDp =  0.00738

 Side 1  free  transition at x/c =  0.8949   74
 Side 2  free  transition at x/c =  0.9669   77

  39   rms: 0.7455E-01   max: -.5025E+00   T at   74  1   RLX: 0.995
       a =  0.500      CL =  0.2092
      Cm = -0.0367     CD =  0.01204   =>   CDf =  0.00532    CDp =  0.00672

 Side 1  free  transition at x/c =  0.9181   76
 Side 2  free  transition at x/c =  0.9531   76

  40   rms: 0.4476E-01   max: 0.3851E+00   D at   77  1
       a =  0.500      CL =  0.2130
      Cm = -0.0380     CD =  0.01212   =>   CDf =  0.00535    CDp =  0.00677

 Side 1  free  transition at x/c =  0.9126   75
 Side 2  free  transition at x/c =  0.9524   76

  41   rms: 0.7426E-01   max: 0.5451E+00   T at   75  1
       a =  0.500      CL =  0.1572
      Cm = -0.0275     CD =  0.01280   =>   CDf =  0.00534    CDp =  0.00747

 Side 1  free  transition at x/c =  0.8920   74
 Side 2  free  transition at x/c =  0.9687   77

  42   rms: 0.9321E-01   max: -.5525E+00   T at   74  1   RLX: 0.905
       a =  0.500      CL =  0.2120
      Cm = -0.0375     CD =  0.01220   =>   CDf =  0.00531    CDp =  0.00689

 Side 1  free  transition at x/c =  0.9143   75
 Side 2  free  transition at x/c =  0.9519   76

  43   rms: 0.3349E+01   max: 0.2470E+02   T at   75  1   RLX: 0.030
       a =  0.500      CL =  0.1346
      Cm = -0.0237     CD =  0.01271   =>   CDf =  0.00534    CDp =  0.00737

 Side 1  free  transition at x/c =  0.8888   74
 Side 2  free  transition at x/c =  0.9802   78

  44   rms: 0.9508E-01   max: 0.8194E+00   C at   78  2
       a =  0.500      CL =  0.1809
      Cm = -0.0313     CD =  0.01217   =>   CDf =  0.00532    CDp =  0.00685

 Side 1  free  transition at x/c =  0.9068   75
 Side 2  free  transition at x/c =  0.9631   77

  45   rms: 0.3747E-01   max: 0.1998E+00   D at   80  2
       a =  0.500      CL =  0.1985
      Cm = -0.0353     CD =  0.01229   =>   CDf =  0.00534    CDp =  0.00695

 Side 1  free  transition at x/c =  0.9055   75
 Side 2  free  transition at x/c =  0.9551   76

  46   rms: 0.1394E-01   max: -.9572E-01   D at   79  2
       a =  0.500      CL =  0.1885
      Cm = -0.0333     CD =  0.01237   =>   CDf =  0.00533    CDp =  0.00704

 Side 1  free  transition at x/c =  0.9041   75
 Side 2  free  transition at x/c =  0.9597   77

  47   rms: 0.8991E-02   max: 0.7867E-01   D at   79  2
       a =  0.500      CL =  0.1931
      Cm = -0.0343     CD =  0.01235   =>   CDf =  0.00533    CDp =  0.00702

 Side 1  free  transition at x/c =  0.9048   75
 Side 2  free  transition at x/c =  0.9576   77

  48   rms: 0.3153E-03   max: 0.3154E-02   D at   79  2
       a =  0.500      CL =  0.1933
      Cm = -0.0343     CD =  0.01235   =>   CDf =  0.00533    CDp =  0.00703

 Side 1  free  transition at x/c =  0.9048   75
 Side 2  free  transition at x/c =  0.9575   77

  49   rms: 0.2228E-05   max: -.1556E-04   T at   75  1
       a =  0.500      CL =  0.1933
      Cm = -0.0343     CD =  0.01235   =>   CDf =  0.00533    CDp =  0.00703
 plradd ia,ip,cpol           10           0  0.15542987    

 Point added to stored polar  1
 Point written to save file  s8066_Re200k.base.pol                           
 Dump file unspecified or not available
 Calculating wake trajectory ...
 Calculating source influence matrix ...

 Solving BL system ...

 Side 1  free  transition at x/c =  0.9048   75
 Side 2  free  transition at x/c =  0.9575   77

   1   rms: 0.1216E+00   max: 0.1993E+00   D at   79  2
       a =  1.000      CL =  0.3004
      Cm = -0.0445     CD =  0.01208   =>   CDf =  0.00532    CDp =  0.00676

 Side 1  free  transition at x/c =  0.8962   75
 Side 2  free  transition at x/c =  0.9609   76

   2   rms: 0.1774E-01   max: -.8577E-01   T at   76  2
       a =  1.000      CL =  0.2878
      Cm = -0.0420     CD =  0.01209   =>   CDf =  0.00528    CDp =  0.00682

 Side 1  free  transition at x/c =  0.8932   75
 Side 2  free  transition at x/c =  0.9649   76

   3   rms: 0.3475E-02   max: -.2220E-01   D at   78  1
       a =  1.000      CL =  0.2881
      Cm = -0.0420     CD =  0.01207   =>   CDf =  0.00528    CDp =  0.00679

 Side 1  free  transition at x/c =  0.8938   75
 Side 2  free  transition at x/c =  0.9650   76

   4   rms: 0.1034E-03   max: -.6232E-03   D at   77  1
       a =  1.000      CL =  0.2881
      Cm = -0.0420     CD =  0.01207   =>   CDf =  0.00528    CDp =  0.00679

 Side 1  free  transition at x/c =  0.8938   75
 Side 2  free  transition at x/c =  0.9650   76

   5   rms: 0.1589E-05   max: 0.8125E-05   D at   79  2
       a =  1.000      CL =  0.2881
      Cm = -0.0420     CD =  0.01207   =>   CDf =  0.00528    CDp =  0.00679
 plradd ia,ip,cpol           11           0  3.80521305E-02

 Point added to stored polar  1
 Point written to save file  s8066_Re200k.base.pol                           
 Dump file unspecified or not available
 Calculating wake trajectory ...
 Calculating source influence matrix ...

 Solving BL system ...

 Side 1  free  transition at x/c =  0.8938   75
 Side 2  free  transition at x/c =  0.9650   76

   1   rms: 0.1049E+00   max: -.2154E+00   T at   76  2
       a =  1.500      CL =  0.3687
      Cm = -0.0467     CD =  0.01174   =>   CDf =  0.00528    CDp =  0.00645

 Side 1  free  transition at x/c =  0.8740   74
 Side 2  free  transition at x/c =  0.9757   77

   2   rms: 0.2370E-01   max: -.2461E+00   D at   74  1
       a =  1.500      CL =  0.3689
      Cm = -0.0464     CD =  0.01158   =>   CDf =  0.00522    CDp =  0.00636

 Side 1  free  transition at x/c =  0.8780   74
 Side 2  free  transition at x/c =  0.9753   77

   3   rms: 0.4020E-02   max: 0.3626E-01   D at   76  1
       a =  1.500      CL =  0.3684
      Cm = -0.0464     CD =  0.01162   =>   CDf =  0.00522    CDp =  0.00640

 Side 1  free  transition at x/c =  0.8768   74
 Side 2  free  transition at x/c =  0.9756   77

   4   rms: 0.1715E-03   max: -.1341E-02   D at   75  1
       a =  1.500      CL =  0.3683
      Cm = -0.0464     CD =  0.01162   =>   CDf =  0.00522    CDp =  0.00640

 Side 1  free  transition at x/c =  0.8768   74
 Side 2  free  transition at x/c =  0.9756   77

   5   rms: 0.2418E-05   max: -.1803E-04   D at    4  2
       a =  1.500      CL =  0.3683
      Cm = -0.0464     CD =  0.01162   =>   CDf =  0.00522    CDp =  0.00640
 plradd ia,ip,cpol           12           0  2.86200251E-02

 Point added to stored polar  1
 Point written to save file  s8066_Re200k.base.pol                           
 Dump file unspecified or not available
 Calculating wake trajectory ...
 Calculating source influence matrix ...

 Solving BL system ...

 Side 1  free  transition at x/c =  0.8768   74
 Side 2  free  transition at x/c =  0.9756   77

   1   rms: 0.1097E+00   max: -.1995E+00   T at   77  2
       a =  2.000      CL =  0.4503
      Cm = -0.0508     CD =  0.01097   =>   CDf =  0.00515    CDp =  0.00582

 Side 1  free  transition at x/c =  0.8525   73
 Side 2  free  transition at x/c =  0.9840   76

   2   rms: 0.3006E-01   max: -.2762E+00   D at   74  1
       a =  2.000      CL =  0.4354
      Cm = -0.0478     CD =  0.01115   =>   CDf =  0.00511    CDp =  0.00604

 Side 1  free  transition at x/c =  0.8536   73
 Side 2  free  transition at x/c =  0.9905   77

   3   rms: 0.1437E-01   max: 0.1516E+00   D at   78  2
       a =  2.000      CL =  0.4428
      Cm = -0.0494     CD =  0.01097   =>   CDf =  0.00515    CDp =  0.00583

 Side 1  free  transition at x/c =  0.8537   73
 Side 2  free  transition at x/c =  0.9871   77

   4   rms: 0.3546E-03   max: -.5219E-02   D at   77  2
       a =  2.000      CL =  0.4428
      Cm = -0.0494     CD =  0.01101   =>   CDf =  0.00514    CDp =  0.00587

 Side 1  free  transition at x/c =  0.8538   73
 Side 2  free  transition at x/c =  0.9871   77

   5   rms: 0.1536E-05   max: 0.1169E-04   D at   80  2
       a =  2.000      CL =  0.4428
      Cm = -0.0494     CD =  0.01101   =>   CDf =  0.00514    CDp =  0.00587
 plradd ia,ip,cpol           13           0  1.50457993E-02

 Point added to stored polar  1
 Point written to save file  s8066_Re200k.base.pol                           
 Dump file unspecified or not available
 Calculating wake trajectory ...
 Calculating source influence matrix ...

 Solving BL system ...

 Side 1  free  transition at x/c =  0.8538   73
 Side 2  free  transition at x/c =  0.9871   77

   1   rms: 0.1091E+00   max: 0.6254E+00   T at   73  1
       a =  2.500      CL =  0.5160
      Cm = -0.0531     CD =  0.01055   =>   CDf =  0.00503    CDp =  0.00552

 Side 1  free  transition at x/c =  0.8048   71
 Side 2  free  transition at x/c =  0.9995   77

   2   rms: 0.5023E-01   max: -.4838E+00   D at   73  1
       a =  2.500      CL =  0.5149
      Cm = -0.0517     CD =  0.01032   =>   CDf =  0.00506    CDp =  0.00526

 Side 1  free  transition at x/c =  0.8228   72
 Side 2  free  transition at x/c =  0.9989   77

   3   rms: 0.1304E-01   max: 0.1261E+00   D at   73  1
       a =  2.500      CL =  0.5162
      Cm = -0.0521     CD =  0.01024   =>   CDf =  0.00503    CDp =  0.00522

 Side 1  free  transition at x/c =  0.8197   72
 Side 2  free  transition at x/c =  0.9992   77

   4   rms: 0.8621E-03   max: 0.7710E-02   D at   73  1
       a =  2.500      CL =  0.5160
      Cm = -0.0521     CD =  0.01026   =>   CDf =  0.00504    CDp =  0.00522

 Side 1  free  transition at x/c =  0.8193   72
 Side 2  free  transition at x/c =  0.9993   77

   5   rms: 0.1686E-04   max: -.1518E-03   D at   73  1
       a =  2.500      CL =  0.5160
      Cm = -0.0521     CD =  0.01026   =>   CDf =  0.00504    CDp =  0.00522
 plradd ia,ip,cpol           14           0  1.08449105E-02

 Point added to stored polar  1
 Point written to save file  s8066_Re200k.base.pol                           
 Dump file unspecified or not available
 Calculating wake trajectory ...
 Calculating source influence matrix ...

 Solving BL system ...

 Side 1  free  transition at x/c =  0.8193   72
 Side 2  free  transition at x/c =  0.9993   77

   1   rms: 0.1184E+00   max: -.3356E+00   T at   77  2
       a =  3.000      CL =  0.5908
      Cm = -0.0552     CD =  0.00946   =>   CDf =  0.00505    CDp =  0.00441

 Side 1  free  transition at x/c =  0.7726   69
 Side 2 forced transition at x/c =  1.0000   77

   2   rms: 0.5638E-01   max: -.3828E+00   D at   77  2
       a =  3.000      CL =  0.5538
      Cm = -0.0482     CD =  0.00984   =>   CDf =  0.00492    CDp =  0.00492

 Side 1  free  transition at x/c =  0.7796   69
 Side 2 forced transition at x/c =  1.0000   77

   3   rms: 0.4930E-02   max: 0.4629E-01   D at   79  2
       a =  3.000      CL =  0.5532
      Cm = -0.0481     CD =  0.00981   =>   CDf =  0.00500    CDp =  0.00481

 Side 1  free  transition at x/c =  0.7779   69
 Side 2 forced transition at x/c =  1.0000   77

   4   rms: 0.7512E-04   max: -.7877E-03   D at   69  1
       a =  3.000      CL =  0.5532
      Cm = -0.0481     CD =  0.00982   =>   CDf =  0.00501    CDp =  0.00481
 plradd ia,ip,cpol           15           0  1.08449105E-02

 Point added to stored polar  1
 Point written to save file  s8066_Re200k.base.pol                           
 Dump file unspecified or not available
 Calculating wake trajectory ...
 Calculating source influence matrix ...

 Solving BL system ...

 Side 1  free  transition at x/c =  0.7779   69
 Side 2 forced transition at x/c =  1.0000   77

   1   rms: 0.8770E-01   max: 0.4029E+00   T at   69  1
       a =  3.500      CL =  0.5886
      Cm = -0.0438     CD =  0.00952   =>   CDf =  0.00485    CDp =  0.00467

 Side 1  free  transition at x/c =  0.7201   66
 Side 2 forced transition at x/c =  1.0000   76

   2   rms: 0.3025E-01   max: 0.3907E+00   D at   69  1
       a =  3.500      CL =  0.5873
      Cm = -0.0435     CD =  0.00971   =>   CDf =  0.00513    CDp =  0.00458

 Side 1  free  transition at x/c =  0.7277   66
 Side 2 forced transition at x/c =  1.0000   76

   3   rms: 0.5882E-02   max: 0.7428E-01   D at   70  1
       a =  3.500      CL =  0.5896
      Cm = -0.0438     CD =  0.00955   =>   CDf =  0.00504    CDp =  0.00451

 Side 1  free  transition at x/c =  0.7272   66
 Side 2 forced transition at x/c =  1.0000   76

   4   rms: 0.1249E-03   max: -.2487E-02   D at   70  1
       a =  3.500      CL =  0.5896
      Cm = -0.0438     CD =  0.00955   =>   CDf =  0.00502    CDp =  0.00453

 Side 1  free  transition at x/c =  0.7271   66
 Side 2 forced transition at x/c =  1.0000   76

   5   rms: 0.7214E-06   max: -.6857E-05   D at   70  1
       a =  3.500      CL =  0.5896
      Cm = -0.0438     CD =  0.00955   =>   CDf =  0.00502    CDp =  0.00453
 plradd ia,ip,cpol           16           0  1.83626183E-03

 Point added to stored polar  1
 Point written to save file  s8066_Re200k.base.pol                           
 Dump file unspecified or not available
 Calculating wake trajectory ...
 Calculating source influence matrix ...

 Solving BL system ...

 Side 1  free  transition at x/c =  0.7271   66
 Side 2 forced transition at x/c =  1.0000   76

   1   rms: 0.8707E-01   max: 0.3635E+00   T at   66  1
       a =  4.000      CL =  0.6208
      Cm = -0.0393     CD =  0.00960   =>   CDf =  0.00502    CDp =  0.00458

 Side 1  free  transition at x/c =  0.6331   60
 Side 2 forced transition at x/c =  1.0000   76

   2   rms: 0.3864E-01   max: -.4212E+00   D at   62  1
       a =  4.000      CL =  0.6225
      Cm = -0.0388     CD =  0.00958   =>   CDf =  0.00543    CDp =  0.00415

 Side 1  free  transition at x/c =  0.6560   61
 Side 2 forced transition at x/c =  1.0000   76

   3   rms: 0.5877E-02   max: -.8091E-01   D at   65  1
       a =  4.000      CL =  0.6234
      Cm = -0.0392     CD =  0.00962   =>   CDf =  0.00517    CDp =  0.00446

 Side 1  free  transition at x/c =  0.6475   61
 Side 2 forced transition at x/c =  1.0000   76

   4   rms: 0.2138E-02   max: -.2635E-01   C at   61  1
       a =  4.000      CL =  0.6235
      Cm = -0.0391     CD =  0.00963   =>   CDf =  0.00521    CDp =  0.00442

 Side 1  free  transition at x/c =  0.6485   61
 Side 2 forced transition at x/c =  1.0000   76

   5   rms: 0.1873E-04   max: -.2768E-03   D at   66  1
       a =  4.000      CL =  0.6235
      Cm = -0.0391     CD =  0.00963   =>   CDf =  0.00519    CDp =  0.00444
 plradd ia,ip,cpol           17           0  1.83626183E-03

 Point added to stored polar  1
 Point written to save file  s8066_Re200k.base.pol                           
 Dump file unspecified or not available
 Calculating wake trajectory ...
 Calculating source influence matrix ...

 Solving BL system ...

 Side 1  free  transition at x/c =  0.6485   61
 Side 2 forced transition at x/c =  1.0000   76

   1   rms: 0.1150E+00   max: 0.1042E+01   C at   61  1   RLX: 0.919
       a =  4.500      CL =  0.6527
      Cm = -0.0345     CD =  0.00995   =>   CDf =  0.00500    CDp =  0.00496

 Side 1  free  transition at x/c =  0.5030   52
 Side 2 forced transition at x/c =  1.0000   75

   2   rms: 0.3419E-01   max: -.2372E+00   C at   52  1
       a =  4.500      CL =  0.6507
      Cm = -0.0333     CD =  0.01026   =>   CDf =  0.00583    CDp =  0.00444

 Side 1  free  transition at x/c =  0.5075   52
 Side 2 forced transition at x/c =  1.0000   75

   3   rms: 0.4325E-02   max: 0.6181E-01   C at   52  1
       a =  4.500      CL =  0.6506
      Cm = -0.0333     CD =  0.01034   =>   CDf =  0.00573    CDp =  0.00462

 Side 1  free  transition at x/c =  0.5046   52
 Side 2 forced transition at x/c =  1.0000   75

   4   rms: 0.9418E-04   max: -.1485E-02   C at   52  1
       a =  4.500      CL =  0.6506
      Cm = -0.0333     CD =  0.01034   =>   CDf =  0.00575    CDp =  0.00460
 plradd ia,ip,cpol           18           0  1.83626183E-03

 Point added to stored polar  1
 Point written to save file  s8066_Re200k.base.pol                           
 Dump file unspecified or not available
 Calculating wake trajectory ...
 Calculating source influence matrix ...

 Solving BL system ...

 Side 1  free  transition at x/c =  0.5047   52
 Side 2 forced transition at x/c =  1.0000   75

   1   rms: 0.2073E+00   max: 0.3110E+01   C at   52  1   RLX: 0.482
       a =  5.000      CL =  0.6603
      Cm = -0.0301     CD =  0.01096   =>   CDf =  0.00575    CDp =  0.00521

 Side 1  free  transition at x/c =  0.3857   44
 Side 2 forced transition at x/c =  1.0000   75

   2   rms: 0.1038E+00   max: 0.1557E+01   C at   44  1   RLX: 0.961
       a =  5.000      CL =  0.6668
      Cm = -0.0267     CD =  0.01213   =>   CDf =  0.00637    CDp =  0.00576

 Side 1  free  transition at x/c =  0.2776   36
 Side 2 forced transition at x/c =  1.0000   75

   3   rms: 0.2126E-01   max: -.2146E+00   D at   45  1
       a =  5.000      CL =  0.6665
      Cm = -0.0266     CD =  0.01228   =>   CDf =  0.00694    CDp =  0.00534

 Side 1  free  transition at x/c =  0.2641   35
 Side 2 forced transition at x/c =  1.0000   75

   4   rms: 0.2224E-02   max: -.2965E-01   C at   35  1
       a =  5.000      CL =  0.6658
      Cm = -0.0265     CD =  0.01236   =>   CDf =  0.00699    CDp =  0.00537

 Side 1  free  transition at x/c =  0.2649   35
 Side 2 forced transition at x/c =  1.0000   75

   5   rms: 0.2859E-04   max: 0.4663E-03   C at   35  1
       a =  5.000      CL =  0.6658
      Cm = -0.0265     CD =  0.01236   =>   CDf =  0.00698    CDp =  0.00538
 plradd ia,ip,cpol           19           0  1.83626183E-03

 Point added to stored polar  1
 Point written to save file  s8066_Re200k.base.pol                           
 Dump file unspecified or not available
 Calculating wake trajectory ...
 Calculating source influence matrix ...

 Solving BL system ...

 Side 1  free  transition at x/c =  0.2649   35
 Side 2 forced transition at x/c =  1.0000   75

   1   rms: 0.3147E+00   max: 0.5594E+01   C at   35  1   RLX: 0.268
       a =  5.500      CL =  0.6712
      Cm = -0.0250     CD =  0.01298   =>   CDf =  0.00698    CDp =  0.00600

 Side 1  free  transition at x/c =  0.2084   31
 Side 2 forced transition at x/c =  1.0000   75

   2   rms: 0.1418E+00   max: 0.2150E+01   C at   31  1   RLX: 0.603
       a =  5.500      CL =  0.6841
      Cm = -0.0232     CD =  0.01384   =>   CDf =  0.00732    CDp =  0.00652

 Side 1  free  transition at x/c =  0.1491   27
 Side 2 forced transition at x/c =  1.0000   75

   3   rms: 0.4944E-01   max: -.4568E+00   D at   27  1
       a =  5.500      CL =  0.6925
      Cm = -0.0219     CD =  0.01446   =>   CDf =  0.00771    CDp =  0.00675

 Side 1  free  transition at x/c =  0.1222   25
 Side 2 forced transition at x/c =  1.0000   75

   4   rms: 0.2276E-01   max: 0.3252E+00   D at   26  1
       a =  5.500      CL =  0.6900
      Cm = -0.0217     CD =  0.01465   =>   CDf =  0.00792    CDp =  0.00673

 Side 1  free  transition at x/c =  0.1249   25
 Side 2 forced transition at x/c =  1.0000   75

   5   rms: 0.4341E-02   max: 0.5405E-01   C at   25  1
       a =  5.500      CL =  0.6904
      Cm = -0.0217     CD =  0.01462   =>   CDf =  0.00785    CDp =  0.00678

 Side 1  free  transition at x/c =  0.1232   25
 Side 2 forced transition at x/c =  1.0000   75

   6   rms: 0.2751E-03   max: -.3209E-02   C at   25  1
       a =  5.500      CL =  0.6903
      Cm = -0.0217     CD =  0.01462   =>   CDf =  0.00786    CDp =  0.00676

 Side 1  free  transition at x/c =  0.1232   25
 Side 2 forced transition at x/c =  1.0000   75

   7   rms: 0.4247E-05   max: 0.1995E-04   T at   25  1
       a =  5.500      CL =  0.6903
      Cm = -0.0217     CD =  0.01462   =>   CDf =  0.00786    CDp =  0.00677
 plradd ia,ip,cpol           20           0  8.80324340E-04

 Point added to stored polar  1
 Point written to save file  s8066_Re200k.base.pol                           
 Dump file unspecified or not available
 Calculating wake trajectory ...
 Calculating source influence matrix ...

 Solving BL system ...

 Side 1  free  transition at x/c =  0.1232   25
 Side 2 forced transition at x/c =  1.0000   75

   1   rms: 0.1305E+00   max: 0.1113E+01   T at   25  1   RLX: 0.758
       a =  6.000      CL =  0.7187
      Cm = -0.0192     CD =  0.01582   =>   CDf =  0.00762    CDp =  0.00821

 Side 1  free  transition at x/c =  0.0943   24
 Side 2 forced transition at x/c =  1.0000   74

   2   rms: 0.1065E+00   max: -.7712E+00   D at   25  1   RLX: 0.648
       a =  6.000      CL =  0.7145
      Cm = -0.0175     CD =  0.01661   =>   CDf =  0.00808    CDp =  0.00853

 Side 1  free  transition at x/c =  0.0945   24
 Side 2 forced transition at x/c =  1.0000   74

   3   rms: 0.4249E-01   max: -.4722E+00   D at   25  1
       a =  6.000      CL =  0.7277
      Cm = -0.0187     CD =  0.01593   =>   CDf =  0.00796    CDp =  0.00797

 Side 1  free  transition at x/c =  0.0880   24
 Side 2 forced transition at x/c =  1.0000   74

   4   rms: 0.7543E-02   max: -.1214E+00   D at   25  1
       a =  6.000      CL =  0.7247
      Cm = -0.0183     CD =  0.01644   =>   CDf =  0.00803    CDp =  0.00840

 Side 1  free  transition at x/c =  0.0877   24
 Side 2 forced transition at x/c =  1.0000   74

   5   rms: 0.4851E-03   max: -.7519E-02   D at   25  1
       a =  6.000      CL =  0.7247
      Cm = -0.0183     CD =  0.01645   =>   CDf =  0.00805    CDp =  0.00840

 Side 1  free  transition at x/c =  0.0877   24
 Side 2 forced transition at x/c =  1.0000   74

   6   rms: 0.4904E-05   max: -.3765E-04   D at   25  1
       a =  6.000      CL =  0.7246
      Cm = -0.0183     CD =  0.01645   =>   CDf =  0.00806    CDp =  0.00840
 plradd ia,ip,cpol           21           0  8.80324340E-04

 Point added to stored polar  1
 Point written to save file  s8066_Re200k.base.pol                           
 Dump file unspecified or not available
 Calculating wake trajectory ...
 Calculating source influence matrix ...

 Solving BL system ...

 Side 1  free  transition at x/c =  0.0877   24
 Side 2 forced transition at x/c =  1.0000   74

   1   rms: 0.1583E+00   max: 0.9189E+00   T at   24  1
       a =  6.500      CL =  0.7479
      Cm = -0.0134     CD =  0.02018   =>   CDf =  0.00806    CDp =  0.01212

 MRCHDU: Convergence failed at  24  side 1    Res =  0.5895E+02
 MRCHDU: Convergence failed at  25  side 1    Res =  0.1289E+03
 MRCHDU: Convergence failed at  26  side 1    Res =  0.1014E+02
 MRCHDU: Convergence failed at  27  side 1    Res =  0.7788E+01
 MRCHDU: Convergence failed at  28  side 1    Res =  0.8722E+01
 MRCHDU: Convergence failed at  29  side 1    Res =  0.1084E+02
 MRCHDU: Convergence failed at  30  side 1    Res =  0.1024E+02
 MRCHDU: Convergence failed at  31  side 1    Res =  0.8227E+01
 MRCHDU: Convergence failed at  32  side 1    Res =  0.7754E+01
 MRCHDU: Convergence failed at  33  side 1    Res =  0.8876E+01
 MRCHDU: Convergence failed at  34  side 1    Res =  0.1003E+02
 MRCHDU: Convergence failed at  35  side 1    Res =  0.1096E+02
 MRCHDU: Convergence failed at  36  side 1    Res =  0.1223E+02
 MRCHDU: Convergence failed at  37  side 1    Res =  0.1337E+02
 MRCHDU: Convergence failed at  38  side 1    Res =  0.1515E+02
 MRCHDU: Convergence failed at  39  side 1    Res =  0.1676E+02
 MRCHDU: Convergence failed at  40  side 1    Res =  0.1838E+02
 MRCHDU: Convergence failed at  41  side 1    Res =  0.1996E+02
 MRCHDU: Convergence failed at  42  side 1    Res =  0.2317E+02
 MRCHDU: Convergence failed at  43  side 1    Res =  0.2510E+02
 MRCHDU: Convergence failed at  44  side 1    Res =  0.2960E+02
 MRCHDU: Convergence failed at  45  side 1    Res =  0.3255E+02
 MRCHDU: Convergence failed at  46  side 1    Res =  0.3590E+02
 MRCHDU: Convergence failed at  47  side 1    Res =  0.3960E+02
 MRCHDU: Convergence failed at  48  side 1    Res =  0.4343E+02
 MRCHDU: Convergence failed at  49  side 1    Res =  0.5550E+02
 MRCHDU: Convergence failed at  50  side 1    Res =  0.7727E+02
 MRCHDU: Convergence failed at  51  side 1    Res =  0.1258E+03
 MRCHDU: Convergence failed at  52  side 1    Res =  0.3267E+03
 MRCHDU: Convergence failed at  53  side 1    Res =  0.5653E+03
 MRCHDU: Convergence failed at  54  side 1    Res =  0.1956E+03
 MRCHDU: Convergence failed at  55  side 1    Res =  0.2022E+03
 MRCHDU: Convergence failed at  56  side 1    Res =  0.1052E+03
 MRCHDU: Convergence failed at  57  side 1    Res =  0.7173E+02
 MRCHDU: Convergence failed at  58  side 1    Res =  0.5406E+02
 MRCHDU: Convergence failed at  59  side 1    Res =  0.4335E+02
 MRCHDU: Convergence failed at  60  side 1    Res =  0.3613E+02
 MRCHDU: Convergence failed at  61  side 1    Res =  0.3120E+02
 MRCHDU: Convergence failed at  62  side 1    Res =  0.2789E+02
 MRCHDU: Convergence failed at  63  side 1    Res =  0.2539E+02
 MRCHDU: Convergence failed at  64  side 1    Res =  0.2284E+02
 MRCHDU: Convergence failed at  65  side 1    Res =  0.2067E+02
 MRCHDU: Convergence failed at  66  side 1    Res =  0.1882E+02
 MRCHDU: Convergence failed at  67  side 1    Res =  0.1712E+02
 MRCHDU: Convergence failed at  68  side 1    Res =  0.1569E+02
[...]
      Cm =  0.0274     CD =  0.13025   =>   CDf =  0.00411    CDp =  0.12614

 Side 1  free  transition at x/c =  0.0341   20
 Side 2 forced transition at x/c =  1.0000   73

  88   rms: 0.8556E+03   max: -.1041E+05   C at   89  1   RLX: 0.000
       a = 11.750      CL =  0.5434
      Cm =  0.0274     CD =  0.13033   =>   CDf =  0.00411    CDp =  0.12622

 Side 1  free  transition at x/c =  0.0341   20
 Side 2 forced transition at x/c =  1.0000   73

  89   rms: 0.1508E+04   max: -.1835E+05   C at   89  1   RLX: 0.000
       a = 11.750      CL =  0.5432
      Cm =  0.0273     CD =  0.13035   =>   CDf =  0.00411    CDp =  0.12625

 Side 1  free  transition at x/c =  0.0341   20
 Side 2 forced transition at x/c =  1.0000   73

  90   rms: 0.3865E+04   max: -.4703E+05   C at   89  1   RLX: 0.000
       a = 11.750      CL =  0.5431
      Cm =  0.0273     CD =  0.13038   =>   CDf =  0.00411    CDp =  0.12627

 Side 1  free  transition at x/c =  0.0341   20
 Side 2 forced transition at x/c =  1.0000   73

  91   rms: 0.1552E+05   max: 0.1888E+06   C at   89  1   RLX: 0.000
       a = 11.750      CL =  0.5435
      Cm =  0.0274     CD =  0.13025   =>   CDf =  0.00411    CDp =  0.12614

 Side 1  free  transition at x/c =  0.0341   20
 Side 2 forced transition at x/c =  1.0000   73

  92   rms: 0.1052E+04   max: -.1280E+05   C at   89  1   RLX: 0.000
       a = 11.750      CL =  0.5433
      Cm =  0.0274     CD =  0.13033   =>   CDf =  0.00411    CDp =  0.12622

 Side 1  free  transition at x/c =  0.0341   20
 Side 2 forced transition at x/c =  1.0000   73

  93   rms: 0.1964E+04   max: -.2390E+05   C at   89  1   RLX: 0.000
       a = 11.750      CL =  0.5432
      Cm =  0.0273     CD =  0.13035   =>   CDf =  0.00411    CDp =  0.12625

 Side 1  free  transition at x/c =  0.0341   20
 Side 2 forced transition at x/c =  1.0000   73

  94   rms: 0.5693E+04   max: -.6926E+05   C at   89  1   RLX: 0.000
       a = 11.750      CL =  0.5431
      Cm =  0.0273     CD =  0.13038   =>   CDf =  0.00411    CDp =  0.12627

 Side 1  free  transition at x/c =  0.0341   20
 Side 2 forced transition at x/c =  1.0000   73

  95   rms: 0.6820E+04   max: 0.8294E+05   C at   89  1   RLX: 0.000
       a = 11.750      CL =  0.5435
      Cm =  0.0274     CD =  0.13025   =>   CDf =  0.00411    CDp =  0.12614

 MRCHDU: Convergence failed at  85  side 1    Res =  0.2788E-04
 Side 1  free  transition at x/c =  0.0341   20
 Side 2 forced transition at x/c =  1.0000   73

  96   rms: 0.1250E+04   max: -.1521E+05   C at   89  1   RLX: 0.000
       a = 11.750      CL =  0.5433
      Cm =  0.0273     CD =  0.13033   =>   CDf =  0.00411    CDp =  0.12622

 Side 1  free  transition at x/c =  0.0341   20
 Side 2 forced transition at x/c =  1.0000   73

  97   rms: 0.2586E+04   max: -.3147E+05   C at   89  1   RLX: 0.000
       a = 11.750      CL =  0.5431
      Cm =  0.0273     CD =  0.13035   =>   CDf =  0.00411    CDp =  0.12624

 MRCHDU: Convergence failed at  85  side 1    Res =  0.6642E-05
 Side 1  free  transition at x/c =  0.0341   20
 Side 2 forced transition at x/c =  1.0000   73

  98   rms: 0.1605E+05   max: -.1952E+06   C at   89  1   RLX: 0.000
       a = 11.750      CL =  0.5430
      Cm =  0.0273     CD =  0.13037   =>   CDf =  0.00411    CDp =  0.12627

 Side 1  free  transition at x/c =  0.0341   20
 Side 2 forced transition at x/c =  1.0000   73

  99   rms: 0.4548E+04   max: 0.5532E+05   C at   89  1   RLX: 0.000
       a = 11.750      CL =  0.5434
      Cm =  0.0274     CD =  0.13025   =>   CDf =  0.00411    CDp =  0.12614

 Side 1  free  transition at x/c =  0.0341   20
 Side 2 forced transition at x/c =  1.0000   73

 100   rms: 0.1538E+04   max: -.1871E+05   C at   89  1   RLX: 0.000
       a = 11.750      CL =  0.5432
      Cm =  0.0273     CD =  0.13033   =>   CDf =  0.00411    CDp =  0.12622

 Side 1  free  transition at x/c =  0.0341   20
 Side 2 forced transition at x/c =  1.0000   73

 101   rms: 0.3400E+04   max: -.4137E+05   C at   89  1   RLX: 0.000
       a = 11.750      CL =  0.5431
      Cm =  0.0273     CD =  0.13035   =>   CDf =  0.00411    CDp =  0.12624

 Side 1  free  transition at x/c =  0.0341   20
 Side 2 forced transition at x/c =  1.0000   73

 102   rms: 0.5749E+05   max: 0.6993E+06   C at   89  1   RLX: 0.000
       a = 11.750      CL =  0.5435
      Cm =  0.0274     CD =  0.13023   =>   CDf =  0.00411    CDp =  0.12612

 MRCHDU: Convergence failed at  85  side 1    Res =  0.5352E-05
 Side 1  free  transition at x/c =  0.0341   20
 Side 2 forced transition at x/c =  1.0000   73

 103   rms: 0.1092E+04   max: -.1329E+05   C at   89  1   RLX: 0.000
       a = 11.750      CL =  0.5433
      Cm =  0.0274     CD =  0.13031   =>   CDf =  0.00411    CDp =  0.12620

 Side 1  free  transition at x/c =  0.0341   20
 Side 2 forced transition at x/c =  1.0000   73

 104   rms: 0.1855E+04   max: -.2257E+05   C at   89  1   RLX: 0.000
       a = 11.750      CL =  0.5432
      Cm =  0.0273     CD =  0.13033   =>   CDf =  0.00411    CDp =  0.12622

 Side 1  free  transition at x/c =  0.0341   20
 Side 2 forced transition at x/c =  1.0000   73

 105   rms: 0.5384E+04   max: -.6549E+05   C at   89  1   RLX: 0.000
       a = 11.750      CL =  0.5431
      Cm =  0.0273     CD =  0.13035   =>   CDf =  0.00411    CDp =  0.12624

 Side 1  free  transition at x/c =  0.0341   20
 Side 2 forced transition at x/c =  1.0000   73

 106   rms: 0.1080E+05   max: 0.1314E+06   C at   89  1   RLX: 0.000
       a = 11.750      CL =  0.5434
      Cm =  0.0274     CD =  0.13023   =>   CDf =  0.00411    CDp =  0.12612

 Side 1  free  transition at x/c =  0.0341   20
 Side 2 forced transition at x/c =  1.0000   73

 107   rms: 0.1293E+04   max: -.1573E+05   C at   89  1   RLX: 0.000
       a = 11.750      CL =  0.5433
      Cm =  0.0273     CD =  0.13031   =>   CDf =  0.00411    CDp =  0.12620

 Side 1  free  transition at x/c =  0.0341   20
 Side 2 forced transition at x/c =  1.0000   73

 108   rms: 0.2538E+04   max: -.3088E+05   C at   89  1   RLX: 0.000
       a = 11.750      CL =  0.5432
      Cm =  0.0273     CD =  0.13033   =>   CDf =  0.00411    CDp =  0.12622

 Side 1  free  transition at x/c =  0.0341   20
 Side 2 forced transition at x/c =  1.0000   73

 109   rms: 0.8515E+04   max: -.1036E+06   C at   89  1   RLX: 0.000
       a = 11.750      CL =  0.5430
      Cm =  0.0273     CD =  0.13035   =>   CDf =  0.00411    CDp =  0.12624

 Side 1  free  transition at x/c =  0.0341   20
 Side 2 forced transition at x/c =  1.0000   73

 110   rms: 0.7715E+04   max: 0.9381E+05   C at   89  1   RLX: 0.000
       a = 11.750      CL =  0.5434
      Cm =  0.0274     CD =  0.13023   =>   CDf =  0.00411    CDp =  0.12613

 Side 1  free  transition at x/c =  0.0341   20
 Side 2 forced transition at x/c =  1.0000   73

 111   rms: 0.1555E+04   max: -.1892E+05   C at   89  1   RLX: 0.000
       a = 11.750      CL =  0.5432
      Cm =  0.0273     CD =  0.13031   =>   CDf =  0.00411    CDp =  0.12620

 MRCHDU: Convergence failed at  85  side 1    Res =  0.1172E-04
 Side 1  free  transition at x/c =  0.0341   20
 Side 2 forced transition at x/c =  1.0000   73

 112   rms: 0.3160E+04   max: -.3844E+05   C at   89  1   RLX: 0.000
       a = 11.750      CL =  0.5431
      Cm =  0.0273     CD =  0.13033   =>   CDf =  0.00411    CDp =  0.12622

 Side 1  free  transition at x/c =  0.0341   20
 Side 2 forced transition at x/c =  1.0000   73

 113   rms: 0.2780E+05   max: -.3382E+06   C at   89  1   RLX: 0.000
       a = 11.750      CL =  0.5430
      Cm =  0.0273     CD =  0.13035   =>   CDf =  0.00411    CDp =  0.12624

 Side 1  free  transition at x/c =  0.0341   20
 Side 2 forced transition at x/c =  1.0000   73

 114   rms: 0.5131E+04   max: 0.6238E+05   C at   89  1   RLX: 0.000
       a = 11.750      CL =  0.5433
      Cm =  0.0273     CD =  0.13024   =>   CDf =  0.00411    CDp =  0.12613

 Side 1  free  transition at x/c =  0.0341   20
 Side 2 forced transition at x/c =  1.0000   73

 115   rms: 0.1925E+04   max: -.2341E+05   C at   89  1   RLX: 0.000
       a = 11.750      CL =  0.5432
      Cm =  0.0273     CD =  0.13031   =>   CDf =  0.00411    CDp =  0.12620

 Side 1  free  transition at x/c =  0.0341   20
 Side 2 forced transition at x/c =  1.0000   73

 116   rms: 0.4342E+04   max: -.5281E+05   C at   89  1   RLX: 0.000
       a = 11.750      CL =  0.5431
      Cm =  0.0273     CD =  0.13033   =>   CDf =  0.00411    CDp =  0.12622

 Side 1  free  transition at x/c =  0.0341   20
 Side 2 forced transition at x/c =  1.0000   73

 117   rms: 0.4404E+05   max: 0.5356E+06   C at   89  1   RLX: 0.000
       a = 11.750      CL =  0.5434
      Cm =  0.0274     CD =  0.13022   =>   CDf =  0.00411    CDp =  0.12611

 Side 1  free  transition at x/c =  0.0341   20
 Side 2 forced transition at x/c =  1.0000   73

 118   rms: 0.1326E+04   max: -.1614E+05   C at   89  1   RLX: 0.000
       a = 11.750      CL =  0.5433
      Cm =  0.0274     CD =  0.13029   =>   CDf =  0.00411    CDp =  0.12618

 Side 1  free  transition at x/c =  0.0341   20
 Side 2 forced transition at x/c =  1.0000   73

 119   rms: 0.2722E+04   max: -.3311E+05   C at   89  1   RLX: 0.000
       a = 11.750      CL =  0.5431
      Cm =  0.0273     CD =  0.13031   =>   CDf =  0.00411    CDp =  0.12620

 Side 1  free  transition at x/c =  0.0341   20
 Side 2 forced transition at x/c =  1.0000   73

 120   rms: 0.7364E+04   max: -.8956E+05   C at   89  1   RLX: 0.000
       a = 11.750      CL =  0.5430
      Cm =  0.0273     CD =  0.13033   =>   CDf =  0.00411    CDp =  0.12622

 Side 1  free  transition at x/c =  0.0341   20
 Side 2 forced transition at x/c =  1.0000   73

 121   rms: 0.9708E+04   max: 0.1180E+06   C at   89  1   RLX: 0.000
       a = 11.750      CL =  0.5434
      Cm =  0.0274     CD =  0.13022   =>   CDf =  0.00411    CDp =  0.12612

 Side 1  free  transition at x/c =  0.0341   20
 Side 2 forced transition at x/c =  1.0000   73

 122   rms: 0.1617E+04   max: -.1967E+05   C at   89  1   RLX: 0.000
       a = 11.750      CL =  0.5432
      Cm =  0.0273     CD =  0.13029   =>   CDf =  0.00411    CDp =  0.12618

 Side 1  free  transition at x/c =  0.0341   20
 Side 2 forced transition at x/c =  1.0000   73

 123   rms: 0.3229E+04   max: -.3928E+05   C at   89  1   RLX: 0.000
       a = 11.750      CL =  0.5431
      Cm =  0.0273     CD =  0.13031   =>   CDf =  0.00411    CDp =  0.12620

 Side 1  free  transition at x/c =  0.0341   20
 Side 2 forced transition at x/c =  1.0000   73

 124   rms: 0.1899E+05   max: -.2310E+06   C at   89  1   RLX: 0.000
       a = 11.750      CL =  0.5430
      Cm =  0.0273     CD =  0.13033   =>   CDf =  0.00411    CDp =  0.12622

 MRCHDU: Convergence failed at  85  side 1    Res =  0.1454E-04
 Side 1  free  transition at x/c =  0.0341   20
 Side 2 forced transition at x/c =  1.0000   73

 125   rms: 0.6777E+04   max: 0.8240E+05   C at   89  1   RLX: 0.000
       a = 11.750      CL =  0.5433
      Cm =  0.0273     CD =  0.13022   =>   CDf =  0.00411    CDp =  0.12612

 Side 1  free  transition at x/c =  0.0341   20
 Side 2 forced transition at x/c =  1.0000   73

 126   rms: 0.1991E+04   max: -.2421E+05   C at   89  1   RLX: 0.000
       a = 11.750      CL =  0.5432
      Cm =  0.0273     CD =  0.13029   =>   CDf =  0.00411    CDp =  0.12618

 Side 1  free  transition at x/c =  0.0341   20
 Side 2 forced transition at x/c =  1.0000   73

 127   rms: 0.4397E+04   max: -.5348E+05   C at   89  1   RLX: 0.000
       a = 11.750      CL =  0.5431
      Cm =  0.0273     CD =  0.13031   =>   CDf =  0.00411    CDp =  0.12620

 Side 1  free  transition at x/c =  0.0341   20
 Side 2 forced transition at x/c =  1.0000   73

 128   rms: 0.5344E+05   max: 0.6498E+06   C at   89  1   RLX: 0.000
       a = 11.750      CL =  0.5434
      Cm =  0.0274     CD =  0.13020   =>   CDf =  0.00411    CDp =  0.12610

 Side 1  free  transition at x/c =  0.0341   20
 Side 2 forced transition at x/c =  1.0000   73

 129   rms: 0.1387E+04   max: -.1688E+05   C at   89  1   RLX: 0.000
       a = 11.750      CL =  0.5433
      Cm =  0.0274     CD =  0.13027   =>   CDf =  0.00411    CDp =  0.12616

 Side 1  free  transition at x/c =  0.0341   20
 Side 2 forced transition at x/c =  1.0000   73

 130   rms: 0.2148E+04   max: -.2612E+05   C at   89  1   RLX: 0.000
       a = 11.750      CL =  0.5432
      Cm =  0.0273     CD =  0.13029   =>   CDf =  0.00411    CDp =  0.12618

 Side 1  free  transition at x/c =  0.0341   20
 Side 2 forced transition at x/c =  1.0000   73

 131   rms: 0.5624E+04   max: -.6839E+05   C at   89  1   RLX: 0.000
       a = 11.750      CL =  0.5430
      Cm =  0.0273     CD =  0.13030   =>   CDf =  0.00411    CDp =  0.12620

 Side 1  free  transition at x/c =  0.0341   20
 Side 2 forced transition at x/c =  1.0000   73

 132   rms: 0.2602E+05   max: 0.3163E+06   C at   89  1   RLX: 0.000
       a = 11.750      CL =  0.5434
      Cm =  0.0274     CD =  0.13020   =>   CDf =  0.00411    CDp =  0.12609

 Side 1  free  transition at x/c =  0.0341   20
 Side 2 forced transition at x/c =  1.0000   73

 133   rms: 0.1584E+04   max: -.1926E+05   C at   89  1   RLX: 0.000
       a = 11.750      CL =  0.5432
      Cm =  0.0273     CD =  0.13027   =>   CDf =  0.00411    CDp =  0.12616

 Side 1  free  transition at x/c =  0.0341   20
 Side 2 forced transition at x/c =  1.0000   73

 134   rms: 0.2830E+04   max: -.3441E+05   C at   89  1   RLX: 0.000
       a = 11.750      CL =  0.5431
      Cm =  0.0273     CD =  0.13029   =>   CDf =  0.00411    CDp =  0.12618

 Side 1  free  transition at x/c =  0.0341   20
 Side 2 forced transition at x/c =  1.0000   73

 135   rms: 0.1046E+05   max: -.1271E+06   C at   89  1   RLX: 0.000
       a = 11.750      CL =  0.5430
      Cm =  0.0273     CD =  0.13030   =>   CDf =  0.00411    CDp =  0.12620

 Side 1  free  transition at x/c =  0.0341   20
 Side 2 forced transition at x/c =  1.0000   73

 136   rms: 0.1144E+05   max: 0.1391E+06   C at   89  1   RLX: 0.000
       a = 11.750      CL =  0.5433
      Cm =  0.0274     CD =  0.13021   =>   CDf =  0.00411    CDp =  0.12610

 Side 1  free  transition at x/c =  0.0341   20
 Side 2 forced transition at x/c =  1.0000   73

 137   rms: 0.1945E+04   max: -.2366E+05   C at   89  1   RLX: 0.000
       a = 11.750      CL =  0.5432
      Cm =  0.0273     CD =  0.13027   =>   CDf =  0.00411    CDp =  0.12616

 Side 1  free  transition at x/c =  0.0341   20
 Side 2 forced transition at x/c =  1.0000   73

 138   rms: 0.3810E+04   max: -.4633E+05   C at   89  1   RLX: 0.000
       a = 11.750      CL =  0.5431
      Cm =  0.0273     CD =  0.13029   =>   CDf =  0.00411    CDp =  0.12618

 Side 1  free  transition at x/c =  0.0341   20
 Side 2 forced transition at x/c =  1.0000   73

 139   rms: 0.2500E+05   max: -.3040E+06   C at   89  1   RLX: 0.000
       a = 11.750      CL =  0.5430
      Cm =  0.0273     CD =  0.13030   =>   CDf =  0.00411    CDp =  0.12620

 MRCHDU: Convergence failed at  89  side 1    Res =  0.4447E-02
 Side 1  free  transition at x/c =  0.0341   20
 Side 2 forced transition at x/c =  1.0000   73

 140   rms: 0.7193E+04   max: 0.8745E+05   C at   89  1   RLX: 0.000
       a = 11.750      CL =  0.5433
      Cm =  0.0273     CD =  0.13021   =>   CDf =  0.00411    CDp =  0.12610

 Side 1  free  transition at x/c =  0.0341   20
 Side 2 forced transition at x/c =  1.0000   73

 141   rms: 0.2358E+04   max: -.2868E+05   C at   89  1   RLX: 0.000
       a = 11.750      CL =  0.5431
      Cm =  0.0273     CD =  0.13027   =>   CDf =  0.00411    CDp =  0.12616

 Side 1  free  transition at x/c =  0.0341   20
 Side 2 forced transition at x/c =  1.0000   73

 142   rms: 0.5600E+04   max: -.6810E+05   C at   89  1   RLX: 0.000
       a = 11.750      CL =  0.5430
      Cm =  0.0273     CD =  0.13029   =>   CDf =  0.00411    CDp =  0.12618

 Side 1  free  transition at x/c =  0.0341   20
 Side 2 forced transition at x/c =  1.0000   73

 143   rms: 0.2618E+05   max: 0.3183E+06   C at   89  1   RLX: 0.000
       a = 11.750      CL =  0.5434
      Cm =  0.0274     CD =  0.13019   =>   CDf =  0.00411    CDp =  0.12608

 Side 1  free  transition at x/c =  0.0341   20
 Side 2 forced transition at x/c =  1.0000   73

 144   rms: 0.1630E+04   max: -.1983E+05   C at   89  1   RLX: 0.000
       a = 11.750      CL =  0.5432
      Cm =  0.0273     CD =  0.13025   =>   CDf =  0.00411    CDp =  0.12614

 Side 1  free  transition at x/c =  0.0341   20
 Side 2 forced transition at x/c =  1.0000   73

 145   rms: 0.3079E+04   max: -.3744E+05   C at   89  1   RLX: 0.000
       a = 11.750      CL =  0.5431
      Cm =  0.0273     CD =  0.13027   =>   CDf =  0.00411    CDp =  0.12616

 Side 1  free  transition at x/c =  0.0341   20
 Side 2 forced transition at x/c =  1.0000   73

 146   rms: 0.7837E+04   max: -.9529E+05   C at   89  1   RLX: 0.000
       a = 11.750      CL =  0.5430
      Cm =  0.0273     CD =  0.13029   =>   CDf =  0.00411    CDp =  0.12618

 Side 1  free  transition at x/c =  0.0341   20
 Side 2 forced transition at x/c =  1.0000   73

 147   rms: 0.1508E+05   max: 0.1833E+06   C at   89  1   RLX: 0.000
       a = 11.750      CL =  0.5433
      Cm =  0.0274     CD =  0.13019   =>   CDf =  0.00411    CDp =  0.12608

 Side 1  free  transition at x/c =  0.0341   20
 Side 2 forced transition at x/c =  1.0000   73

 148   rms: 0.1942E+04   max: -.2361E+05   C at   89  1   RLX: 0.000
       a = 11.750      CL =  0.5432
      Cm =  0.0273     CD =  0.13025   =>   CDf =  0.00411    CDp =  0.12614

 Side 1  free  transition at x/c =  0.0341   20
 Side 2 forced transition at x/c =  1.0000   73

 149   rms: 0.3813E+04   max: -.4636E+05   C at   89  1   RLX: 0.000
       a = 11.750      CL =  0.5431
      Cm =  0.0273     CD =  0.13027   =>   CDf =  0.00411    CDp =  0.12616

 Side 1  free  transition at x/c =  0.0341   20
 Side 2 forced transition at x/c =  1.0000   73

 150   rms: 0.1967E+05   max: -.2391E+06   C at   89  1   RLX: 0.000
       a = 11.750      CL =  0.5430
      Cm =  0.0273     CD =  0.13029   =>   CDf =  0.00411    CDp =  0.12618

 MRCHDU: Convergence failed at  88  side 1    Res =  0.4171E-02
 MRCHDU: Convergence failed at  89  side 1    Res =  0.1808E-01
 Side 1  free  transition at x/c =  0.0341   20
 Side 2 forced transition at x/c =  1.0000   73

 151   rms: 0.9399E+04   max: 0.1143E+06   C at   89  1   RLX: 0.000
       a = 11.750      CL =  0.5433
      Cm =  0.0273     CD =  0.13019   =>   CDf =  0.00411    CDp =  0.12609

 Side 1  free  transition at x/c =  0.0341   20
 Side 2 forced transition at x/c =  1.0000   73

 152   rms: 0.2351E+04   max: -.2859E+05   C at   89  1   RLX: 0.000
       a = 11.750      CL =  0.5432
      Cm =  0.0273     CD =  0.13025   =>   CDf =  0.00411    CDp =  0.12614

 Side 1  free  transition at x/c =  0.0341   20
 Side 2 forced transition at x/c =  1.0000   73

 153   rms: 0.5152E+04   max: -.6265E+05   C at   89  1   RLX: 0.000
       a = 11.750      CL =  0.5430
      Cm =  0.0273     CD =  0.13027   =>   CDf =  0.00411    CDp =  0.12616

 Side 1  free  transition at x/c =  0.0341   20
 Side 2 forced transition at x/c =  1.0000   73

 154   rms: 0.2573E+06   max: -.3128E+07   C at   89  1   RLX: 0.000
       a = 11.750      CL =  0.5430
      Cm =  0.0273     CD =  0.13029   =>   CDf =  0.00411    CDp =  0.12618

 MRCHDU: Convergence failed at  88  side 1    Res =  0.2702E-01
 MRCHDU: Convergence failed at  89  side 1    Res =  0.1809E-01
 Side 1  free  transition at x/c =  0.0341   20
 Side 2 forced transition at x/c =  1.0000   73

 155   rms: 0.6713E+04   max: 0.8161E+05   C at   89  1   RLX: 0.000
       a = 11.750      CL =  0.5433
      Cm =  0.0273     CD =  0.13019   =>   CDf =  0.00411    CDp =  0.12609
 VISCAL:  Convergence failed

 Sequence halted since previous  4 points did not converge
 Last-converged  alpha =  10.750    CL =   0.82470

.OPERva   c>  
 Polar accumulation disabled

.OPERv   c>  
 XFOIL   c>  
 XFOIL   c>  