
 ===================================================
  XFOIL Version 6.99
  Copyright (C) 2000   Mark Drela, Harold Youngren

  This software comes with ABSOLUTELY NO WARRANTY,
    subject to the GNU General Public License.

  Caveat computor
 ===================================================

 File  xfoil.def  not found

   QUIT    Exit program

  .OPER    Direct operating point(s)
  .MDES    Complex mapping design routine
  .QDES    Surface speed design routine
  .GDES    Geometry design routine

   SAVE f  Write airfoil to labeled coordinate file
   PSAV f  Write airfoil to plain coordinate file
   ISAV f  Write airfoil to ISES coordinate file
   MSAV f  Write airfoil to MSES coordinate file
   REVE    Reverse written-airfoil node ordering

   LOAD f  Read buffer airfoil from coordinate file
   NACA i  Set NACA 4,5-digit airfoil and buffer airfoil
   INTE    Set buffer airfoil by interpolating two airfoils
   NORM    Buffer airfoil normalization toggle
   XYCM rr Change CM reference location, currently  0.25000 0.00000

   BEND    Display structural properties of current airfoil

   PCOP    Set current-airfoil panel nodes directly from buffer airfoil points
   PANE    Set current-airfoil panel nodes ( 160 ) based on curvature
  .PPAR    Show/change paneling

  .PLOP    Plotting options

   WDEF f  Write  current-settings file
   RDEF f  Reread current-settings file
   NAME s  Specify new airfoil name
   NINC    Increment name version number

   Z       Zoom    | (available in all menus)
   U       Unzoom  | 

 XFOIL   c>  
 Labeled airfoil file.  Name:  S8065 (11% version of S8064)                    

 Number of input coordinate points:  81
 Counterclockwise ordering
 Max thickness =     0.110001  at x =   0.378
 Max camber    =     0.011875  at x =   0.525

  LE  x,y  =   0.00011  -0.00025  |   Chord =   0.99989
  TE  x,y  =   1.00000  -0.00000  |

 Current airfoil nodes set from buffer airfoil nodes (  81 )

 WARNING: Poor input coordinate distribution
          Excessive panel angle   42.1  at i =  42
          Repaneling with PANE and/or PPAR suggested
           (doing GDES,CADD before repaneling _may_
            improve excessively coarse LE spacing

 XFOIL   c>  
 XFOIL   c>  
 Sharp trailing edge

 Paneling parameters used...
   Number of panel nodes       160
   Panel bunching parameter    1.000
   TE/LE panel density ratio   0.150
   Refined-area/LE panel density ratio    0.200
   Top    side refined area x/c limits  1.000 1.000
   Bottom side refined area x/c limits  1.000 1.000

 XFOIL   c>  
.OPERi   c>  
 Xtr/c     =  1.0000    top    side
 Xtr/c     =  1.0000    bottom side
 Ncrit     =    9.00   ( 0.070 % turb. level )
 Vacc      =  0.0100

 Klag  =  5.6000     Uxwt  =    1.00
 A     =  6.7000     B     =  0.7500       KCt = 0.01485
 CtiniK=  1.8000     CtiniX=  3.3000

..VPAR   c>  
..VPAR   c>  
.OPERi   c>  
 M  =    0.0000
 Re =    500000

.OPERv   c>  
.OPERv   c>  
.OPERv   c>  
 Polar  1 newly created for accumulation
 Airfoil archived with polar: S8065 (11% version of S8064)                    

Enter  polar save filename  OR  <return> for no file   s>  
 New polar save file available

Enter  polar dump filename  OR  <return> for no file   s>  
 Polar dump file will NOT be written

 Polar accumulation enabled

.OPERva   c>   Calculating unit vorticity distributions ...
 Calculating wake trajectory ...
 Calculating source influence matrix ...

 Solving BL system ...

 Initializing BL ...
    side            1  ...
 MRCHUE: Inverse mode at  61     Hk =   3.948
 MRCHUE: Inverse mode at  62     Hk =   4.469
 MRCHUE: Inverse mode at  63     Hk =   4.988
 MRCHUE: Inverse mode at  64     Hk =   5.504
 MRCHUE: Inverse mode at  65     Hk =   6.017
 MRCHUE: Inverse mode at  66     Hk =   6.524
 MRCHUE: Inverse mode at  67     Hk =   7.025
 MRCHUE: Inverse mode at  68     Hk =   7.520
 MRCHUE: Inverse mode at  69     Hk =   8.009
 MRCHUE: Inverse mode at  70     Hk =   8.493
 MRCHUE: Inverse mode at  71     Hk =   8.971
 MRCHUE: Inverse mode at  72     Hk =   8.803
 MRCHUE: Inverse mode at  73     Hk =   6.724
 MRCHUE: Inverse mode at  74     Hk =   5.434
 MRCHUE: Inverse mode at  75     Hk =   4.536
 MRCHUE: Inverse mode at  76     Hk =   3.916
 MRCHUE: Inverse mode at  77     Hk =   3.638
    side            2  ...
 MRCHUE: Inverse mode at  10     Hk =   4.532
 MRCHUE: Inverse mode at  11     Hk =   5.703
 MRCHUE: Inverse mode at  12     Hk =   6.847
 MRCHUE: Inverse mode at  13     Hk =   8.012
 MRCHUE: Inverse mode at  14     Hk =   9.293
 MRCHUE: Inverse mode at  15     Hk =   9.626
 MRCHUE: Inverse mode at  16     Hk =   2.500
 MRCHUE: Inverse mode at  84     Hk =   2.500
 MRCHUE: Inverse mode at  85     Hk =   2.500

 Side 1  free  transition at x/c =  0.9410   72
 Side 2  free  transition at x/c =  0.0205   15
 idif Ue xi dudx           1  0.24838825      3.82661819E-03   64.910645    
 Uenew xinew           2  6.71808943E-02  1.03497505E-03

   1   rms: 0.5820E+00   max: 0.6022E+01   T at   72  1   RLX: 0.149
       a = -4.000      CL = -0.3839
      Cm = -0.0263     CD =  0.01156   =>   CDf =  0.00661    CDp =  0.00495

 Side 1  free  transition at x/c =  0.9185   70
 Side 2  free  transition at x/c =  0.0185   16

   2   rms: 0.3199E+00   max: -.2913E+01   T at   16  2   RLX: 0.172
       a = -4.000      CL = -0.3538
      Cm = -0.0304     CD =  0.01236   =>   CDf =  0.00673    CDp =  0.00564

 Side 1  free  transition at x/c =  0.9184   70
 Side 2  free  transition at x/c =  0.0230   17

   3   rms: 0.7193E+00   max: -.4857E+01   T at   17  2   RLX: 0.103
       a = -4.000      CL = -0.3386
      Cm = -0.0322     CD =  0.01173   =>   CDf =  0.00678    CDp =  0.00495

 Side 1  free  transition at x/c =  0.9185   70
 Side 2  free  transition at x/c =  0.0504   20

   4   rms: 0.5955E+00   max: -.8497E+01   C at   20  2   RLX: 0.059
       a = -4.000      CL = -0.3292
      Cm = -0.0337     CD =  0.01154   =>   CDf =  0.00662    CDp =  0.00492

 Side 1  free  transition at x/c =  0.9188   70
 Side 2  free  transition at x/c =  0.0762   22

   5   rms: 0.4967E+00   max: -.7628E+01   C at   22  2   RLX: 0.066
       a = -4.000      CL = -0.3181
      Cm = -0.0356     CD =  0.01124   =>   CDf =  0.00645    CDp =  0.00479

 Side 1  free  transition at x/c =  0.9193   70
 Side 2  free  transition at x/c =  0.0903   23

   6   rms: 0.5078E+00   max: -.8200E+01   C at   23  2   RLX: 0.061
       a = -4.000      CL = -0.3071
      Cm = -0.0375     CD =  0.01107   =>   CDf =  0.00645    CDp =  0.00461

 Side 1  free  transition at x/c =  0.9200   71
 Side 2  free  transition at x/c =  0.1012   22

   7   rms: 0.6921E+00   max: -.1082E+02   D at    2  1   RLX: 0.046
       a = -4.000      CL = -0.2966
      Cm = -0.0392     CD =  0.01105   =>   CDf =  0.00632    CDp =  0.00472

 Side 1  free  transition at x/c =  0.9208   71
 Side 2  free  transition at x/c =  0.1133   23

   8   rms: 0.1149E+01   max: -.2632E+02   C at   23  2   RLX: 0.019
       a = -4.000      CL = -0.2943
      Cm = -0.0398     CD =  0.01087   =>   CDf =  0.00623    CDp =  0.00464

 Side 1  free  transition at x/c =  0.9211   71
 Side 2  free  transition at x/c =  0.1145   23

   9   rms: 0.3289E+00   max: -.5353E+01   C at   23  2   RLX: 0.093
       a = -4.000      CL = -0.2788
      Cm = -0.0425     CD =  0.01072   =>   CDf =  0.00625    CDp =  0.00447

 Side 1  free  transition at x/c =  0.9224   71
 Side 2  free  transition at x/c =  0.1310   25

  10   rms: 0.3674E+00   max: -.5618E+01   C at   25  2   RLX: 0.089
       a = -4.000      CL = -0.2699
      Cm = -0.0439     CD =  0.01041   =>   CDf =  0.00617    CDp =  0.00424

 Side 1  free  transition at x/c =  0.9228   71
 Side 2  free  transition at x/c =  0.1435   26

  11   rms: 0.2619E+00   max: -.3639E+01   C at   26  2   RLX: 0.137
       a = -4.000      CL = -0.2615
      Cm = -0.0452     CD =  0.01015   =>   CDf =  0.00611    CDp =  0.00404

 Side 1  free  transition at x/c =  0.9223   71
 Side 2  free  transition at x/c =  0.1624   27

  12   rms: 0.2894E+00   max: -.5780E+01   C at   27  2   RLX: 0.086
       a = -4.000      CL = -0.2590
      Cm = -0.0454     CD =  0.01001   =>   CDf =  0.00600    CDp =  0.00401

 Side 1  free  transition at x/c =  0.9214   71
 Side 2  free  transition at x/c =  0.1710   27

  13   rms: 0.4427E+00   max: -.9615E+01   C at   27  2   RLX: 0.052
       a = -4.000      CL = -0.2583
      Cm = -0.0454     CD =  0.00995   =>   CDf =  0.00594    CDp =  0.00401

 Side 1  free  transition at x/c =  0.9209   71
 Side 2  free  transition at x/c =  0.1718   28

  14   rms: 0.1714E+00   max: -.2566E+01   C at   28  2   RLX: 0.195
       a = -4.000      CL = -0.2552
      Cm = -0.0456     CD =  0.00980   =>   CDf =  0.00598    CDp =  0.00383

 Side 1  free  transition at x/c =  0.9190   71
 Side 2  free  transition at x/c =  0.1915   29

  15   rms: 0.2297E+00   max: -.4803E+01   C at   29  2   RLX: 0.104
       a = -4.000      CL = -0.2548
      Cm = -0.0455     CD =  0.00972   =>   CDf =  0.00587    CDp =  0.00385

 Side 1  free  transition at x/c =  0.9181   71
 Side 2  free  transition at x/c =  0.2004   30

  16   rms: 0.2189E+00   max: -.4442E+01   C at   30  2   RLX: 0.113
       a = -4.000      CL = -0.2552
      Cm = -0.0453     CD =  0.00962   =>   CDf =  0.00582    CDp =  0.00380

 Side 1  free  transition at x/c =  0.9173   71
 Side 2  free  transition at x/c =  0.2127   30

  17   rms: 0.1873E+00   max: -.3900E+01   C at   30  2   RLX: 0.128
       a = -4.000      CL = -0.2554
      Cm = -0.0451     CD =  0.00958   =>   CDf =  0.00578    CDp =  0.00380

 Side 1  free  transition at x/c =  0.9165   71
 Side 2  free  transition at x/c =  0.2273   31

  18   rms: 0.1244E+00   max: -.2482E+01   C at   31  2   RLX: 0.201
       a = -4.000      CL = -0.2565
      Cm = -0.0448     CD =  0.00950   =>   CDf =  0.00573    CDp =  0.00377

 Side 1  free  transition at x/c =  0.9154   70
 Side 2  free  transition at x/c =  0.2446   33

  19   rms: 0.5508E-01   max: -.8478E+00   C at   33  2   RLX: 0.590
       a = -4.000      CL = -0.2648
      Cm = -0.0430     CD =  0.00944   =>   CDf =  0.00567    CDp =  0.00377

 Side 1  free  transition at x/c =  0.9083   70
 Side 2  free  transition at x/c =  0.2537   33

  20   rms: 0.3088E-01   max: -.5230E+00   C at   33  2   RLX: 0.956
       a = -4.000      CL = -0.2659
      Cm = -0.0424     CD =  0.00944   =>   CDf =  0.00564    CDp =  0.00380

 Side 1  free  transition at x/c =  0.9069   70
 Side 2  free  transition at x/c =  0.2670   34

  21   rms: 0.1868E-02   max: -.1579E-01   D at   71  1
       a = -4.000      CL = -0.2663
      Cm = -0.0423     CD =  0.00944   =>   CDf =  0.00561    CDp =  0.00384

 Side 1  free  transition at x/c =  0.9066   70
 Side 2  free  transition at x/c =  0.2669   34

  22   rms: 0.3034E-04   max: -.4152E-03   C at   34  2
       a = -4.000      CL = -0.2663
      Cm = -0.0424     CD =  0.00944   =>   CDf =  0.00561    CDp =  0.00383
 plradd ia,ip,cpol            1           0  7.58360140E-04

 Point added to stored polar  1
 Point written to save file  s8065_Re500k.base.pol                           
 Dump file unspecified or not available
 Calculating wake trajectory ...
 Calculating source influence matrix ...

 Solving BL system ...

 Side 1  free  transition at x/c =  0.9066   70
 Side 2  free  transition at x/c =  0.2669   34

   1   rms: 0.3599E+00   max: -.7324E+01   C at   34  2   RLX: 0.068
       a = -3.500      CL = -0.2636
      Cm = -0.0422     CD =  0.00935   =>   CDf =  0.00561    CDp =  0.00374

 Side 1  free  transition at x/c =  0.9062   70
 Side 2  free  transition at x/c =  0.2807   35

   2   rms: 0.3364E+00   max: -.6794E+01   C at   35  2   RLX: 0.074
       a = -3.500      CL = -0.2607
      Cm = -0.0420     CD =  0.00926   =>   CDf =  0.00555    CDp =  0.00371

 Side 1  free  transition at x/c =  0.9057   70
 Side 2  free  transition at x/c =  0.2952   36

   3   rms: 0.3041E+00   max: -.6093E+01   C at   36  2   RLX: 0.082
       a = -3.500      CL = -0.2577
      Cm = -0.0419     CD =  0.00918   =>   CDf =  0.00550    CDp =  0.00368

 Side 1  free  transition at x/c =  0.9052   70
 Side 2  free  transition at x/c =  0.3109   37

   4   rms: 0.2521E+00   max: -.4987E+01   C at   37  2   RLX: 0.100
       a = -3.500      CL = -0.2544
      Cm = -0.0417     CD =  0.00908   =>   CDf =  0.00544    CDp =  0.00365

 Side 1  free  transition at x/c =  0.9047   70
 Side 2  free  transition at x/c =  0.3294   38

   5   rms: 0.1732E+00   max: -.3305E+01   C at   38  2   RLX: 0.151
       a = -3.500      CL = -0.2496
      Cm = -0.0415     CD =  0.00899   =>   CDf =  0.00537    CDp =  0.00362

 Side 1  free  transition at x/c =  0.9040   70
 Side 2  free  transition at x/c =  0.3584   40

   6   rms: 0.8202E-01   max: -.1194E+01   C at   40  2   RLX: 0.419
       a = -3.500      CL = -0.2378
      Cm = -0.0411     CD =  0.00882   =>   CDf =  0.00527    CDp =  0.00355

 Side 1  free  transition at x/c =  0.9026   70
 Side 2  free  transition at x/c =  0.4137   44

   7   rms: 0.3778E-01   max: -.3574E+00   C at   44  2
       a = -3.500      CL = -0.2223
      Cm = -0.0404     CD =  0.00856   =>   CDf =  0.00512    CDp =  0.00344

 Side 1  free  transition at x/c =  0.9009   69
 Side 2  free  transition at x/c =  0.4725   48

   8   rms: 0.2418E-01   max: -.3783E+00   C at   48  2
       a = -3.500      CL = -0.2256
      Cm = -0.0399     CD =  0.00831   =>   CDf =  0.00495    CDp =  0.00336

 Side 1  free  transition at x/c =  0.9001   69
 Side 2  free  transition at x/c =  0.4591   47

   9   rms: 0.4169E-02   max: -.6245E-01   C at   47  2
       a = -3.500      CL = -0.2247
      Cm = -0.0401     CD =  0.00838   =>   CDf =  0.00492    CDp =  0.00346

 Side 1  free  transition at x/c =  0.9002   69
 Side 2  free  transition at x/c =  0.4598   47

  10   rms: 0.1221E-03   max: 0.2118E-02   C at   47  2
       a = -3.500      CL = -0.2247
      Cm = -0.0401     CD =  0.00838   =>   CDf =  0.00491    CDp =  0.00347

 Side 1  free  transition at x/c =  0.9002   69
 Side 2  free  transition at x/c =  0.4597   47

  11   rms: 0.7125E-06   max: 0.1052E-04   C at   47  2
       a = -3.500      CL = -0.2247
      Cm = -0.0401     CD =  0.00838   =>   CDf =  0.00491    CDp =  0.00347
 plradd ia,ip,cpol            2           0  7.58360140E-04

 Point added to stored polar  1
 Point written to save file  s8065_Re500k.base.pol                           
 Dump file unspecified or not available
 Calculating wake trajectory ...
 Calculating source influence matrix ...

 Solving BL system ...

 Side 1  free  transition at x/c =  0.9002   69
 Side 2  free  transition at x/c =  0.4597   47

   1   rms: 0.2049E+00   max: -.3630E+01   C at   47  2   RLX: 0.138
       a = -3.000      CL = -0.2182
      Cm = -0.0399     CD =  0.00830   =>   CDf =  0.00491    CDp =  0.00339

 Side 1  free  transition at x/c =  0.8989   69
 Side 2  free  transition at x/c =  0.4856   49

   2   rms: 0.1668E+00   max: -.2876E+01   C at   49  2   RLX: 0.174
       a = -3.000      CL = -0.2117
      Cm = -0.0396     CD =  0.00818   =>   CDf =  0.00492    CDp =  0.00326

 Side 1  free  transition at x/c =  0.8976   70
 Side 2  free  transition at x/c =  0.5138   50

   3   rms: 0.3385E+00   max: -.5559E+01   D at    2  1   RLX: 0.090
       a = -3.000      CL = -0.2092
      Cm = -0.0393     CD =  0.00811   =>   CDf =  0.00472    CDp =  0.00339

 Side 1  free  transition at x/c =  0.8970   70
 Side 2  free  transition at x/c =  0.5255   51

   4   rms: 0.1080E+00   max: -.1694E+01   C at   51  2   RLX: 0.295
       a = -3.000      CL = -0.2007
      Cm = -0.0389     CD =  0.00798   =>   CDf =  0.00468    CDp =  0.00331

 Side 1  free  transition at x/c =  0.8953   70
 Side 2  free  transition at x/c =  0.5471   52

   5   rms: 0.4476E-01   max: -.1536E+00   T at   52  2
       a = -3.000      CL = -0.1762
      Cm = -0.0388     CD =  0.00797   =>   CDf =  0.00464    CDp =  0.00333

 Side 1  free  transition at x/c =  0.8919   70
 Side 2  free  transition at x/c =  0.6093   57

   6   rms: 0.1531E-01   max: 0.2141E+00   D at   53  2
       a = -3.000      CL = -0.1794
      Cm = -0.0381     CD =  0.00774   =>   CDf =  0.00446    CDp =  0.00328

 Side 1  free  transition at x/c =  0.8920   70
 Side 2  free  transition at x/c =  0.5913   55

   7   rms: 0.2394E-02   max: -.2839E-01   D at   56  2
       a = -3.000      CL = -0.1789
      Cm = -0.0382     CD =  0.00777   =>   CDf =  0.00450    CDp =  0.00327

 Side 1  free  transition at x/c =  0.8921   70
 Side 2  free  transition at x/c =  0.5890   55

   8   rms: 0.2433E-03   max: -.4110E-02   C at   55  2
       a = -3.000      CL = -0.1789
      Cm = -0.0382     CD =  0.00777   =>   CDf =  0.00450    CDp =  0.00327

 Side 1  free  transition at x/c =  0.8921   70
 Side 2  free  transition at x/c =  0.5891   55

   9   rms: 0.1529E-05   max: -.2490E-04   C at   55  2
       a = -3.000      CL = -0.1789
      Cm = -0.0382     CD =  0.00777   =>   CDf =  0.00450    CDp =  0.00327
 plradd ia,ip,cpol            3           0  7.58360140E-04

 Point added to stored polar  1
 Point written to save file  s8065_Re500k.base.pol                           
 Dump file unspecified or not available
 Calculating wake trajectory ...
 Calculating source influence matrix ...

 Solving BL system ...

 Side 1  free  transition at x/c =  0.8921   70
 Side 2  free  transition at x/c =  0.5891   55

   1   rms: 0.1297E+00   max: -.1831E+01   C at   55  2   RLX: 0.273
       a = -2.500      CL = -0.1655
      Cm = -0.0378     CD =  0.00767   =>   CDf =  0.00450    CDp =  0.00317

 Side 1  free  transition at x/c =  0.8902   70
 Side 2  free  transition at x/c =  0.6139   57

   2   rms: 0.1011E+00   max: -.1473E+01   C at   57  2   RLX: 0.339
       a = -2.500      CL = -0.1538
      Cm = -0.0373     CD =  0.00757   =>   CDf =  0.00443    CDp =  0.00314

 Side 1  free  transition at x/c =  0.8888   70
 Side 2  free  transition at x/c =  0.6323   58

   3   rms: 0.5367E-01   max: -.6021E+00   C at   58  2   RLX: 0.830
       a = -2.500      CL = -0.1333
      Cm = -0.0369     CD =  0.00750   =>   CDf =  0.00440    CDp =  0.00310

 Side 1  free  transition at x/c =  0.8868   69
 Side 2  free  transition at x/c =  0.6698   61

   4   rms: 0.9888E-02   max: -.9290E-01   C at   61  2
       a = -2.500      CL = -0.1302
      Cm = -0.0365     CD =  0.00745   =>   CDf =  0.00428    CDp =  0.00317

 Side 1  free  transition at x/c =  0.8857   69
 Side 2  free  transition at x/c =  0.6750   61

   5   rms: 0.1634E-02   max: -.2490E-01   C at   61  2
       a = -2.500      CL = -0.1301
      Cm = -0.0366     CD =  0.00746   =>   CDf =  0.00427    CDp =  0.00318

 Side 1  free  transition at x/c =  0.8857   69
 Side 2  free  transition at x/c =  0.6757   61

   6   rms: 0.1419E-04   max: -.2266E-03   D at   64  2
       a = -2.500      CL = -0.1301
      Cm = -0.0366     CD =  0.00746   =>   CDf =  0.00427    CDp =  0.00319
 plradd ia,ip,cpol            4           0  1.77754182E-03

 Point added to stored polar  1
 Point written to save file  s8065_Re500k.base.pol                           
 Dump file unspecified or not available
 Calculating wake trajectory ...
 Calculating source influence matrix ...

 Solving BL system ...

 Side 1  free  transition at x/c =  0.8857   69
 Side 2  free  transition at x/c =  0.6757   61

   1   rms: 0.1022E+00   max: -.9354E+00   C at   61  2   RLX: 0.535
       a = -2.000      CL = -0.1027
      Cm = -0.0361     CD =  0.00741   =>   CDf =  0.00436    CDp =  0.00305

 Side 1  free  transition at x/c =  0.8800   70
 Side 2  free  transition at x/c =  0.7079   62

   2   rms: 0.4876E-01   max: -.3072E+00   T at    2  1
       a = -2.000      CL = -0.0779
      Cm = -0.0357     CD =  0.00741   =>   CDf =  0.00422    CDp =  0.00319

 Side 1  free  transition at x/c =  0.8773   70
 Side 2  free  transition at x/c =  0.7379   65

   3   rms: 0.1250E-01   max: 0.1779E+00   C at   65  2
       a = -2.000      CL = -0.0784
      Cm = -0.0355     CD =  0.00736   =>   CDf =  0.00418    CDp =  0.00319

 Side 1  free  transition at x/c =  0.8775   70
 Side 2  free  transition at x/c =  0.7336   64

   4   rms: 0.2460E-02   max: -.3338E-01   D at   67  2
       a = -2.000      CL = -0.0786
      Cm = -0.0355     CD =  0.00735   =>   CDf =  0.00419    CDp =  0.00316

 Side 1  free  transition at x/c =  0.8775   70
 Side 2  free  transition at x/c =  0.7316   64

   5   rms: 0.2160E-03   max: -.3101E-02   C at   64  2
       a = -2.000      CL = -0.0786
      Cm = -0.0355     CD =  0.00735   =>   CDf =  0.00420    CDp =  0.00315

 Side 1  free  transition at x/c =  0.8775   70
 Side 2  free  transition at x/c =  0.7317   64

   6   rms: 0.7001E-06   max: -.3949E-05   T at   70  1
       a = -2.000      CL = -0.0786
      Cm = -0.0355     CD =  0.00735   =>   CDf =  0.00420    CDp =  0.00316
 plradd ia,ip,cpol            5           0  1.52321802E-02

 Point added to stored polar  1
 Point written to save file  s8065_Re500k.base.pol                           
 Dump file unspecified or not available
 Calculating wake trajectory ...
 Calculating source influence matrix ...

 Solving BL system ...

 Side 1  free  transition at x/c =  0.8775   70
 Side 2  free  transition at x/c =  0.7317   64

   1   rms: 0.9038E-01   max: 0.3539E+00   D at   65  2
       a = -1.500      CL = -0.0262
      Cm = -0.0344     CD =  0.00729   =>   CDf =  0.00426    CDp =  0.00303

 Side 1  free  transition at x/c =  0.8710   70
 Side 2  free  transition at x/c =  0.7631   65

   2   rms: 0.1064E-01   max: 0.1182E+00   D at   66  2
       a = -1.500      CL = -0.0259
      Cm = -0.0345     CD =  0.00730   =>   CDf =  0.00421    CDp =  0.00309

 Side 1  free  transition at x/c =  0.8707   70
 Side 2  free  transition at x/c =  0.7678   66

   3   rms: 0.4737E-02   max: -.6265E-01   C at   66  2
       a = -1.500      CL = -0.0259
      Cm = -0.0345     CD =  0.00730   =>   CDf =  0.00423    CDp =  0.00307

 Side 1  free  transition at x/c =  0.8707   70
 Side 2  free  transition at x/c =  0.7687   66

   4   rms: 0.2618E-03   max: -.4372E-02   D at   68  2
       a = -1.500      CL = -0.0259
      Cm = -0.0345     CD =  0.00730   =>   CDf =  0.00420    CDp =  0.00310

 Side 1  free  transition at x/c =  0.8707   70
 Side 2  free  transition at x/c =  0.7687   66

   5   rms: 0.1498E-05   max: -.2099E-04   D at   68  2
       a = -1.500      CL = -0.0259
      Cm = -0.0345     CD =  0.00730   =>   CDf =  0.00420    CDp =  0.00310
 plradd ia,ip,cpol            6           0  2.86157727E-02

 Point added to stored polar  1
 Point written to save file  s8065_Re500k.base.pol                           
 Dump file unspecified or not available
 Calculating wake trajectory ...
 Calculating source influence matrix ...

 Solving BL system ...

 Side 1  free  transition at x/c =  0.8707   70
 Side 2  free  transition at x/c =  0.7687   66

   1   rms: 0.9373E-01   max: 0.4664E+00   D at   67  2
       a = -1.000      CL =  0.0259
      Cm = -0.0335     CD =  0.00721   =>   CDf =  0.00420    CDp =  0.00300

 Side 1  free  transition at x/c =  0.8588   70
 Side 2  free  transition at x/c =  0.7884   67

   2   rms: 0.3453E-01   max: -.2582E+00   D at   71  1
       a = -1.000      CL =  0.0271
      Cm = -0.0337     CD =  0.00723   =>   CDf =  0.00426    CDp =  0.00297

 Side 1  free  transition at x/c =  0.8618   70
 Side 2  free  transition at x/c =  0.7992   68

   3   rms: 0.4183E-02   max: -.3518E-01   D at   67  2
       a = -1.000      CL =  0.0269
      Cm = -0.0336     CD =  0.00724   =>   CDf =  0.00417    CDp =  0.00307

 Side 1  free  transition at x/c =  0.8620   70
 Side 2  free  transition at x/c =  0.7979   68

   4   rms: 0.2345E-03   max: -.2900E-02   D at   70  2
       a = -1.000      CL =  0.0269
      Cm = -0.0336     CD =  0.00724   =>   CDf =  0.00418    CDp =  0.00306

 Side 1  free  transition at x/c =  0.8620   70
 Side 2  free  transition at x/c =  0.7979   68

   5   rms: 0.1390E-05   max: -.1774E-04   D at   70  2
       a = -1.000      CL =  0.0269
      Cm = -0.0336     CD =  0.00724   =>   CDf =  0.00418    CDp =  0.00306
 plradd ia,ip,cpol            7           0  3.80801111E-02

 Point added to stored polar  1
 Point written to save file  s8065_Re500k.base.pol                           
 Dump file unspecified or not available
 Calculating wake trajectory ...
 Calculating source influence matrix ...

 Solving BL system ...

 Side 1  free  transition at x/c =  0.8620   70
 Side 2  free  transition at x/c =  0.7979   68

   1   rms: 0.9318E-01   max: 0.4605E+00   D at   69  2
       a = -0.500      CL =  0.0799
      Cm = -0.0324     CD =  0.00707   =>   CDf =  0.00421    CDp =  0.00286

 Side 1  free  transition at x/c =  0.8555   70
 Side 2  free  transition at x/c =  0.8157   68

   2   rms: 0.2499E-01   max: -.2094E+00   T at   69  2
       a = -0.500      CL =  0.0795
      Cm = -0.0326     CD =  0.00717   =>   CDf =  0.00422    CDp =  0.00296

 Side 1  free  transition at x/c =  0.8532   70
 Side 2  free  transition at x/c =  0.8243   68

   3   rms: 0.4978E-02   max: -.5515E-01   C at   68  2
       a = -0.500      CL =  0.0796
      Cm = -0.0326     CD =  0.00719   =>   CDf =  0.00417    CDp =  0.00303

 Side 1  free  transition at x/c =  0.8534   70
 Side 2  free  transition at x/c =  0.8243   68

   4   rms: 0.1447E-03   max: 0.2217E-02   D at   69  2
       a = -0.500      CL =  0.0796
      Cm = -0.0326     CD =  0.00720   =>   CDf =  0.00416    CDp =  0.00304

 Side 1  free  transition at x/c =  0.8534   70
 Side 2  free  transition at x/c =  0.8242   68

   5   rms: 0.1297E-05   max: -.8999E-05   D at    4  1
       a = -0.500      CL =  0.0796
      Cm = -0.0326     CD =  0.00720   =>   CDf =  0.00416    CDp =  0.00304
 plradd ia,ip,cpol            8           0  0.38501248    

 Point added to stored polar  1
 Point written to save file  s8065_Re500k.base.pol                           
 Dump file unspecified or not available
 Calculating wake trajectory ...
 Calculating source influence matrix ...

 Solving BL system ...

 Side 1  free  transition at x/c =  0.8534   70
 Side 2  free  transition at x/c =  0.8242   68

   1   rms: 0.8591E-01   max: -.3853E+00   T at   68  2
       a =  0.000      CL =  0.1320
      Cm = -0.0318     CD =  0.00720   =>   CDf =  0.00416    CDp =  0.00304

 MRCHDU: Convergence failed at  70  side 2    Res =  0.2919E+01
 MRCHDU: Convergence failed at  71  side 2    Res =  0.3918E+01
 MRCHDU: Convergence failed at  72  side 2    Res =  0.2205E+01
 MRCHDU: Convergence failed at  73  side 2    Res =  0.3783E+01
 MRCHDU: Convergence failed at  74  side 2    Res =  0.6370E+01
 MRCHDU: Convergence failed at  75  side 2    Res =  0.1139E+02
 MRCHDU: Convergence failed at  76  side 2    Res =  0.1799E+02
 MRCHDU: Convergence failed at  77  side 2    Res =  0.2559E+02
 MRCHDU: Convergence failed at  78  side 2    Res =  0.2884E+02
 MRCHDU: Convergence failed at  79  side 2    Res =  0.2245E+02
 MRCHDU: Convergence failed at  80  side 2    Res =  0.1384E+02
 MRCHDU: Convergence failed at  81  side 2    Res =  0.9871E+01
 Side 1  free  transition at x/c =  0.8420   69
 Side 2  free  transition at x/c =  0.8468   70

   2   rms: 0.1514E+00   max: 0.8653E+00   T at   77  2
       a =  0.000      CL =  0.1879
      Cm = -0.0436     CD =  0.00667   =>   CDf =  0.00384    CDp =  0.00283

 MRCHDU: Convergence failed at  72  side 1    Res =  0.1504E+01
 MRCHDU: Convergence failed at  73  side 1    Res =  0.4757E+01
 MRCHDU: Convergence failed at  74  side 1    Res =  0.2149E+01
 MRCHDU: Convergence failed at  75  side 1    Res =  0.2148E+01
 MRCHDU: Convergence failed at  76  side 1    Res =  0.3037E+01
 MRCHDU: Convergence failed at  77  side 1    Res =  0.4212E+01
 MRCHDU: Convergence failed at  78  side 1    Res =  0.5964E+01
 MRCHDU: Convergence failed at  79  side 1    Res =  0.8513E+01
 MRCHDU: Convergence failed at  80  side 1    Res =  0.1134E+02
 MRCHDU: Convergence failed at  81  side 1    Res =  0.1242E+02
 MRCHDU: Convergence failed at  82  side 1    Res =  0.7516E+01
 Side 1  free  transition at x/c =  0.8545   71
 Side 2  free  transition at x/c =  0.8351   68
 idif Ue xi dudx           1  0.43752211      2.50577927E-03   174.60521    
 Uenew xinew           2  0.16712013      9.57131386E-04

   3   rms: 0.2568E+00   max: 0.1361E+01   D at   82  1
       a =  0.000      CL =  0.0542
      Cm = -0.0158     CD =  0.00592   =>   CDf =  0.00399    CDp =  0.00193

 MRCHDU: Convergence failed at  71  side 1    Res =  0.1356E+01
 MRCHDU: Convergence failed at  72  side 1    Res =  0.2261E+01
 MRCHDU: Convergence failed at  73  side 1    Res =  0.1004E+01
 Side 1  free  transition at x/c =  0.8307   69
 Side 2  free  transition at x/c =  0.8536   70

   4   rms: 0.3229E+01   max: -.2233E+02   T at   69  1   RLX: 0.022
       a =  0.000      CL =  0.1108
      Cm = -0.0288     CD =  0.00866   =>   CDf =  0.00394    CDp =  0.00472

 Side 1  free  transition at x/c =  0.8449   70
 Side 2  free  transition at x/c =  0.8497   70

   5   rms: 0.7361E-01   max: -.4925E+00   D at   71  1
       a =  0.000      CL =  0.1291
      Cm = -0.0308     CD =  0.00715   =>   CDf =  0.00426    CDp =  0.00289

 Side 1  free  transition at x/c =  0.8462   70
 Side 2  free  transition at x/c =  0.8441   70

   6   rms: 0.1674E-01   max: 0.2007E+00   D at   70  1
       a =  0.000      CL =  0.1334
      Cm = -0.0317     CD =  0.00707   =>   CDf =  0.00414    CDp =  0.00292

 Side 1  free  transition at x/c =  0.8450   70
 Side 2  free  transition at x/c =  0.8448   70

   7   rms: 0.1015E-02   max: -.1272E-01   D at   73  1
       a =  0.000      CL =  0.1332
      Cm = -0.0317     CD =  0.00708   =>   CDf =  0.00413    CDp =  0.00295

 Side 1  free  transition at x/c =  0.8448   70
 Side 2  free  transition at x/c =  0.8448   70

   8   rms: 0.2260E-04   max: -.3014E-03   D at   73  1
       a =  0.000      CL =  0.1332
      Cm = -0.0317     CD =  0.00708   =>   CDf =  0.00414    CDp =  0.00294
 plradd ia,ip,cpol            9           0  0.34177238    

 Point added to stored polar  1
 Point written to save file  s8065_Re500k.base.pol                           
 Dump file unspecified or not available
 Calculating wake trajectory ...
 Calculating source influence matrix ...

 Solving BL system ...

 Side 1  free  transition at x/c =  0.8448   70
 Side 2  free  transition at x/c =  0.8448   70

   1   rms: 0.8688E-01   max: -.3471E+00   T at   70  2
       a =  0.500      CL =  0.1876
      Cm = -0.0309     CD =  0.00698   =>   CDf =  0.00414    CDp =  0.00284

 Side 1  free  transition at x/c =  0.8368   70
 Side 2  free  transition at x/c =  0.8558   70

   2   rms: 0.4023E-01   max: -.3734E+00   T at   70  2
       a =  0.500      CL =  0.1856
      Cm = -0.0309     CD =  0.00683   =>   CDf =  0.00419    CDp =  0.00264

 Side 1  free  transition at x/c =  0.8321   70
 Side 2  free  transition at x/c =  0.8645   70

   3   rms: 0.1092E-01   max: -.1317E+00   D at   70  2
       a =  0.500      CL =  0.1865
      Cm = -0.0309     CD =  0.00696   =>   CDf =  0.00412    CDp =  0.00284

 Side 1  free  transition at x/c =  0.8332   70
 Side 2  free  transition at x/c =  0.8617   70

   4   rms: 0.1290E-02   max: -.1275E-01   C at   70  2
       a =  0.500      CL =  0.1865
      Cm = -0.0309     CD =  0.00697   =>   CDf =  0.00410    CDp =  0.00286

 Side 1  free  transition at x/c =  0.8332   70
 Side 2  free  transition at x/c =  0.8620   70

   5   rms: 0.1110E-04   max: -.1798E-03   D at   72  2
       a =  0.500      CL =  0.1865
      Cm = -0.0309     CD =  0.00697   =>   CDf =  0.00410    CDp =  0.00287
 plradd ia,ip,cpol           10           0  0.25554410    

 Point added to stored polar  1
 Point written to save file  s8065_Re500k.base.pol                           
 Dump file unspecified or not available
 Calculating wake trajectory ...
 Calculating source influence matrix ...

 Solving BL system ...

 Side 1  free  transition at x/c =  0.8332   70
 Side 2  free  transition at x/c =  0.8620   70

   1   rms: 0.8531E-01   max: -.2843E+00   T at   70  2
       a =  1.000      CL =  0.2408
      Cm = -0.0302     CD =  0.00679   =>   CDf =  0.00408    CDp =  0.00271

 Side 1  free  transition at x/c =  0.8221   70
 Side 2  free  transition at x/c =  0.8762   70

   2   rms: 0.1279E-01   max: -.1569E+00   D at   70  1
       a =  1.000      CL =  0.2398
      Cm = -0.0301     CD =  0.00682   =>   CDf =  0.00408    CDp =  0.00274

 Side 1  free  transition at x/c =  0.8200   70
 Side 2  free  transition at x/c =  0.8781   70

   3   rms: 0.1357E-02   max: -.1227E-01   D at   71  1
       a =  1.000      CL =  0.2399
      Cm = -0.0301     CD =  0.00682   =>   CDf =  0.00407    CDp =  0.00275

 Side 1  free  transition at x/c =  0.8204   70
 Side 2  free  transition at x/c =  0.8782   70

   4   rms: 0.7813E-05   max: -.7917E-04   D at   73  1
       a =  1.000      CL =  0.2400
      Cm = -0.0301     CD =  0.00682   =>   CDf =  0.00406    CDp =  0.00275
 plradd ia,ip,cpol           11           0  0.15624578    

 Point added to stored polar  1
 Point written to save file  s8065_Re500k.base.pol                           
 Dump file unspecified or not available
 Calculating wake trajectory ...
 Calculating source influence matrix ...

 Solving BL system ...

 Side 1  free  transition at x/c =  0.8204   70
 Side 2  free  transition at x/c =  0.8782   70

   1   rms: 0.8549E-01   max: -.2634E+00   T at   70  2
       a =  1.500      CL =  0.2938
      Cm = -0.0293     CD =  0.00662   =>   CDf =  0.00407    CDp =  0.00255

 Side 1  free  transition at x/c =  0.8053   69
 Side 2  free  transition at x/c =  0.8931   71

   2   rms: 0.1451E-01   max: -.1966E+00   D at   69  1
       a =  1.500      CL =  0.2935
      Cm = -0.0293     CD =  0.00663   =>   CDf =  0.00404    CDp =  0.00260

 Side 1  free  transition at x/c =  0.8052   69
 Side 2  free  transition at x/c =  0.8937   71

   3   rms: 0.6603E-03   max: 0.7669E-02   D at   70  1
       a =  1.500      CL =  0.2934
      Cm = -0.0293     CD =  0.00664   =>   CDf =  0.00403    CDp =  0.00261

 Side 1  free  transition at x/c =  0.8050   69
 Side 2  free  transition at x/c =  0.8938   71

   4   rms: 0.8773E-05   max: -.1064E-03   D at   69  1
       a =  1.500      CL =  0.2934
      Cm = -0.0293     CD =  0.00664   =>   CDf =  0.00403    CDp =  0.00261
 plradd ia,ip,cpol           12           0  6.20398670E-02

 Point added to stored polar  1
 Point written to save file  s8065_Re500k.base.pol                           
 Dump file unspecified or not available
 Calculating wake trajectory ...
 Calculating source influence matrix ...

 Solving BL system ...

 Side 1  free  transition at x/c =  0.8050   69
 Side 2  free  transition at x/c =  0.8938   71

   1   rms: 0.8679E-01   max: -.2458E+00   T at   71  2
       a =  2.000      CL =  0.3472
      Cm = -0.0285     CD =  0.00643   =>   CDf =  0.00398    CDp =  0.00246

 Side 1  free  transition at x/c =  0.7853   68
 Side 2  free  transition at x/c =  0.9100   71

   2   rms: 0.2139E-01   max: -.2859E+00   D at   69  1
       a =  2.000      CL =  0.3469
      Cm = -0.0284     CD =  0.00645   =>   CDf =  0.00398    CDp =  0.00247

 Side 1  free  transition at x/c =  0.7865   68
 Side 2  free  transition at x/c =  0.9097   71

   3   rms: 0.1808E-02   max: 0.1337E-01   D at   69  1
       a =  2.000      CL =  0.3467
      Cm = -0.0284     CD =  0.00646   =>   CDf =  0.00400    CDp =  0.00246

 Side 1  free  transition at x/c =  0.7858   68
 Side 2  free  transition at x/c =  0.9095   71

   4   rms: 0.2897E-04   max: -.4583E-03   D at   69  1
       a =  2.000      CL =  0.3467
      Cm = -0.0284     CD =  0.00646   =>   CDf =  0.00400    CDp =  0.00246
 plradd ia,ip,cpol           13           0  2.94018276E-02

 Point added to stored polar  1
 Point written to save file  s8065_Re500k.base.pol                           
 Dump file unspecified or not available
 Calculating wake trajectory ...
 Calculating source influence matrix ...

 Solving BL system ...

 Side 1  free  transition at x/c =  0.7858   68
 Side 2  free  transition at x/c =  0.9095   71

   1   rms: 0.8819E-01   max: -.2580E+00   T at   71  2
       a =  2.500      CL =  0.3965
      Cm = -0.0272     CD =  0.00638   =>   CDf =  0.00400    CDp =  0.00238

 Side 1  free  transition at x/c =  0.7452   66
 Side 2  free  transition at x/c =  0.9272   72

   2   rms: 0.3893E-01   max: -.4832E+00   D at   67  1
       a =  2.500      CL =  0.3994
      Cm = -0.0273     CD =  0.00629   =>   CDf =  0.00411    CDp =  0.00219

 Side 1  free  transition at x/c =  0.7623   67
 Side 2  free  transition at x/c =  0.9266   72

   3   rms: 0.1248E-01   max: 0.1431E+00   C at   67  1
       a =  2.500      CL =  0.3997
      Cm = -0.0274     CD =  0.00632   =>   CDf =  0.00392    CDp =  0.00240

 Side 1  free  transition at x/c =  0.7584   66
 Side 2  free  transition at x/c =  0.9258   72

   4   rms: 0.9609E-03   max: -.1337E-01   D at   70  1
       a =  2.500      CL =  0.3996
      Cm = -0.0274     CD =  0.00634   =>   CDf =  0.00397    CDp =  0.00237

 Side 1  free  transition at x/c =  0.7579   66
 Side 2  free  transition at x/c =  0.9259   72

   5   rms: 0.1606E-04   max: -.1952E-03   D at   67  1
       a =  2.500      CL =  0.3996
      Cm = -0.0274     CD =  0.00634   =>   CDf =  0.00397    CDp =  0.00237
 plradd ia,ip,cpol           14           0  1.56484451E-02

 Point added to stored polar  1
 Point written to save file  s8065_Re500k.base.pol                           
 Dump file unspecified or not available
 Calculating wake trajectory ...
 Calculating source influence matrix ...

 Solving BL system ...

 Side 1  free  transition at x/c =  0.7579   66
 Side 2  free  transition at x/c =  0.9259   72

   1   rms: 0.8699E-01   max: -.2586E+00   T at   72  2
       a =  3.000      CL =  0.4494
      Cm = -0.0262     CD =  0.00630   =>   CDf =  0.00389    CDp =  0.00241

 Side 1  free  transition at x/c =  0.7029   64
 Side 2  free  transition at x/c =  0.9476   73

   2   rms: 0.3205E-01   max: 0.3216E+00   D at   66  1
       a =  3.000      CL =  0.4518
      Cm = -0.0262     CD =  0.00628   =>   CDf =  0.00418    CDp =  0.00210

 Side 1  free  transition at x/c =  0.7242   65
 Side 2  free  transition at x/c =  0.9437   73

   3   rms: 0.1956E-01   max: 0.3114E+00   C at   65  1
       a =  3.000      CL =  0.4533
      Cm = -0.0266     CD =  0.00634   =>   CDf =  0.00393    CDp =  0.00241

 Side 1  free  transition at x/c =  0.7164   65
 Side 2  free  transition at x/c =  0.9425   73

   4   rms: 0.1232E-02   max: -.1656E-01   D at   68  1
       a =  3.000      CL =  0.4535
      Cm = -0.0267     CD =  0.00636   =>   CDf =  0.00402    CDp =  0.00234

 Side 1  free  transition at x/c =  0.7161   64
 Side 2  free  transition at x/c =  0.9425   73

   5   rms: 0.2545E-04   max: 0.4012E-03   D at   65  1
       a =  3.000      CL =  0.4535
      Cm = -0.0267     CD =  0.00636   =>   CDf =  0.00402    CDp =  0.00234
 plradd ia,ip,cpol           15           0  1.56484451E-02

 Point added to stored polar  1
 Point written to save file  s8065_Re500k.base.pol                           
 Dump file unspecified or not available
 Calculating wake trajectory ...
 Calculating source influence matrix ...

 Solving BL system ...

 Side 1  free  transition at x/c =  0.7161   64
 Side 2  free  transition at x/c =  0.9425   73

   1   rms: 0.9779E-01   max: 0.2531E+00   D at   74  2
       a =  3.500      CL =  0.5152
      Cm = -0.0279     CD =  0.00645   =>   CDf =  0.00403    CDp =  0.00242

 Side 1  free  transition at x/c =  0.6524   60
 Side 2  free  transition at x/c =  0.9533   73

   2   rms: 0.3198E-01   max: -.2929E+00   D at   61  1
       a =  3.500      CL =  0.5072
      Cm = -0.0261     CD =  0.00661   =>   CDf =  0.00424    CDp =  0.00237

 Side 1  free  transition at x/c =  0.6691   61
 Side 2  free  transition at x/c =  0.9619   74

   3   rms: 0.1664E-01   max: 0.1550E+00   C at   61  1
       a =  3.500      CL =  0.5119
      Cm = -0.0271     CD =  0.00659   =>   CDf =  0.00409    CDp =  0.00250

 Side 1  free  transition at x/c =  0.6643   61
 Side 2  free  transition at x/c =  0.9578   74

   4   rms: 0.1307E-02   max: -.1143E-01   D at   77  2
       a =  3.500      CL =  0.5125
      Cm = -0.0273     CD =  0.00660   =>   CDf =  0.00412    CDp =  0.00248

 Side 1  free  transition at x/c =  0.6641   61
 Side 2  free  transition at x/c =  0.9574   74

   5   rms: 0.1530E-04   max: -.2096E-03   D at   74  2
       a =  3.500      CL =  0.5126
      Cm = -0.0273     CD =  0.00660   =>   CDf =  0.00412    CDp =  0.00248
 plradd ia,ip,cpol           16           0  1.13008656E-02

 Point added to stored polar  1
 Point written to save file  s8065_Re500k.base.pol                           
 Dump file unspecified or not available
 Calculating wake trajectory ...
 Calculating source influence matrix ...

 Solving BL system ...

 Side 1  free  transition at x/c =  0.6641   61
 Side 2  free  transition at x/c =  0.9574   74

   1   rms: 0.1229E+00   max: 0.1235E+01   C at   61  1   RLX: 0.844
       a =  4.000      CL =  0.5685
      Cm = -0.0293     CD =  0.00693   =>   CDf =  0.00402    CDp =  0.00291

 Side 1  free  transition at x/c =  0.5856   56
 Side 2  free  transition at x/c =  0.9650   73

   2   rms: 0.3070E-01   max: -.2076E+00   D at   57  1
       a =  4.000      CL =  0.5746
      Cm = -0.0288     CD =  0.00708   =>   CDf =  0.00441    CDp =  0.00267

 Side 1  free  transition at x/c =  0.5807   56
 Side 2  free  transition at x/c =  0.9702   73

   3   rms: 0.4020E-02   max: -.3320E-01   D at   75  2
       a =  4.000      CL =  0.5729
      Cm = -0.0285     CD =  0.00712   =>   CDf =  0.00437    CDp =  0.00275

 Side 1  free  transition at x/c =  0.5812   56
 Side 2  free  transition at x/c =  0.9718   74

   4   rms: 0.2703E-02   max: 0.2257E-01   D at   75  2
       a =  4.000      CL =  0.5739
      Cm = -0.0287     CD =  0.00712   =>   CDf =  0.00437    CDp =  0.00275

 Side 1  free  transition at x/c =  0.5804   56
 Side 2  free  transition at x/c =  0.9710   74

   5   rms: 0.1371E-03   max: 0.1112E-02   D at   75  2
       a =  4.000      CL =  0.5739
      Cm = -0.0287     CD =  0.00712   =>   CDf =  0.00438    CDp =  0.00275

 Side 1  free  transition at x/c =  0.5804   56
 Side 2  free  transition at x/c =  0.9709   74

   6   rms: 0.7580E-06   max: 0.5658E-05   C at   56  1
       a =  4.000      CL =  0.5739
      Cm = -0.0287     CD =  0.00712   =>   CDf =  0.00438    CDp =  0.00275
 plradd ia,ip,cpol           17           0  1.13008656E-02

 Point added to stored polar  1
 Point written to save file  s8065_Re500k.base.pol                           
 Dump file unspecified or not available
 Calculating wake trajectory ...
 Calculating source influence matrix ...

 Solving BL system ...

 Side 1  free  transition at x/c =  0.5804   56
 Side 2  free  transition at x/c =  0.9709   74

   1   rms: 0.1817E+00   max: 0.2741E+01   C at   56  1   RLX: 0.541
       a =  4.500      CL =  0.6104
      Cm = -0.0304     CD =  0.00755   =>   CDf =  0.00438    CDp =  0.00317

 Side 1  free  transition at x/c =  0.4919   50
 Side 2  free  transition at x/c =  0.9754   74

   2   rms: 0.7014E-01   max: 0.9589E+00   C at   50  1
       a =  4.500      CL =  0.6397
      Cm = -0.0317     CD =  0.00814   =>   CDf =  0.00462    CDp =  0.00352

 Side 1  free  transition at x/c =  0.4099   45
 Side 2  free  transition at x/c =  0.9805   73

   3   rms: 0.2446E-01   max: -.3997E+00   C at   45  1
       a =  4.500      CL =  0.6362
      Cm = -0.0311     CD =  0.00828   =>   CDf =  0.00508    CDp =  0.00321

 Side 1  free  transition at x/c =  0.4276   46
 Side 2  free  transition at x/c =  0.9828   73

   4   rms: 0.5749E-02   max: 0.1070E+00   C at   46  1
       a =  4.500      CL =  0.6363
      Cm = -0.0311     CD =  0.00826   =>   CDf =  0.00498    CDp =  0.00328

 Side 1  free  transition at x/c =  0.4245   46
 Side 2  free  transition at x/c =  0.9829   73

   5   rms: 0.2013E-03   max: -.3926E-02   C at   46  1
       a =  4.500      CL =  0.6363
      Cm = -0.0311     CD =  0.00826   =>   CDf =  0.00499    CDp =  0.00327

 Side 1  free  transition at x/c =  0.4246   46
 Side 2  free  transition at x/c =  0.9829   73

   6   rms: 0.1221E-05   max: 0.1066E-04   C at   46  1
       a =  4.500      CL =  0.6363
      Cm = -0.0311     CD =  0.00826   =>   CDf =  0.00499    CDp =  0.00327
 plradd ia,ip,cpol           18           0  2.05507176E-03

 Point added to stored polar  1
 Point written to save file  s8065_Re500k.base.pol                           
 Dump file unspecified or not available
 Calculating wake trajectory ...
 Calculating source influence matrix ...

 Solving BL system ...

 Side 1  free  transition at x/c =  0.4246   46
 Side 2  free  transition at x/c =  0.9829   73

   1   rms: 0.2775E+00   max: 0.5214E+01   C at   46  1   RLX: 0.288
       a =  5.000      CL =  0.6509
      Cm = -0.0311     CD =  0.00864   =>   CDf =  0.00499    CDp =  0.00365

 Side 1  free  transition at x/c =  0.3638   42
 Side 2  free  transition at x/c =  0.9900   74

   2   rms: 0.1919E+00   max: 0.3541E+01   C at   42  1   RLX: 0.424
       a =  5.000      CL =  0.6718
      Cm = -0.0326     CD =  0.00909   =>   CDf =  0.00527    CDp =  0.00381

 Side 1  free  transition at x/c =  0.2956   37
 Side 2  free  transition at x/c =  0.9917   74

   3   rms: 0.8577E-01   max: 0.1514E+01   C at   37  1   RLX: 0.991
       a =  5.000      CL =  0.7006
      Cm = -0.0346     CD =  0.00982   =>   CDf =  0.00559    CDp =  0.00423

 Side 1  free  transition at x/c =  0.2143   32
 Side 2  free  transition at x/c =  0.9938   74

   4   rms: 0.1948E-01   max: -.3068E+00   C at   32  1
       a =  5.000      CL =  0.6989
      Cm = -0.0344     CD =  0.01003   =>   CDf =  0.00598    CDp =  0.00405

 Side 1  free  transition at x/c =  0.2220   32
 Side 2  free  transition at x/c =  0.9943   74

   5   rms: 0.9167E-03   max: 0.1420E-01   C at   32  1
       a =  5.000      CL =  0.6987
      Cm = -0.0344     CD =  0.01005   =>   CDf =  0.00593    CDp =  0.00413

 Side 1  free  transition at x/c =  0.2219   32
 Side 2  free  transition at x/c =  0.9943   74

   6   rms: 0.6214E-05   max: 0.1213E-03   C at   32  1
       a =  5.000      CL =  0.6987
      Cm = -0.0344     CD =  0.01005   =>   CDf =  0.00593    CDp =  0.00412
 plradd ia,ip,cpol           19           0  2.05507176E-03

 Point added to stored polar  1
 Point written to save file  s8065_Re500k.base.pol                           
 Dump file unspecified or not available
 Calculating wake trajectory ...
 Calculating source influence matrix ...

 Solving BL system ...

 Side 1  free  transition at x/c =  0.2219   32
 Side 2  free  transition at x/c =  0.9943   74

   1   rms: 0.3228E+00   max: 0.6611E+01   C at   32  1   RLX: 0.227
       a =  5.500      CL =  0.7127
      Cm = -0.0351     CD =  0.01044   =>   CDf =  0.00593    CDp =  0.00451

 Side 1  free  transition at x/c =  0.1828   29
 Side 2  free  transition at x/c =  0.9977   75

   2   rms: 0.1517E+00   max: 0.2775E+01   C at   29  1   RLX: 0.541
       a =  5.500      CL =  0.7432
      Cm = -0.0373     CD =  0.01088   =>   CDf =  0.00598    CDp =  0.00490

 Side 1  free  transition at x/c =  0.1325   27
 Side 2 forced transition at x/c =  1.0000   74

   3   rms: 0.5000E-01   max: 0.5255E+00   C at   27  1
       a =  5.500      CL =  0.7475
      Cm = -0.0348     CD =  0.01138   =>   CDf =  0.00636    CDp =  0.00501

 Side 1  free  transition at x/c =  0.1116   25
 Side 2 forced transition at x/c =  1.0000   74

   4   rms: 0.1064E-01   max: -.1296E+00   D at   27  1
       a =  5.500      CL =  0.7485
      Cm = -0.0349     CD =  0.01139   =>   CDf =  0.00648    CDp =  0.00490

 Side 1  free  transition at x/c =  0.1095   25
 Side 2 forced transition at x/c =  1.0000   74

   5   rms: 0.7402E-03   max: 0.1196E-01   C at   25  1
       a =  5.500      CL =  0.7486
      Cm = -0.0349     CD =  0.01139   =>   CDf =  0.00648    CDp =  0.00491

 Side 1  free  transition at x/c =  0.1092   25
 Side 2 forced transition at x/c =  1.0000   74

   6   rms: 0.4176E-05   max: -.7501E-04   C at   25  1
       a =  5.500      CL =  0.7486
      Cm = -0.0349     CD =  0.01139   =>   CDf =  0.00648    CDp =  0.00491
 plradd ia,ip,cpol           20           0  1.04654755E-03

 Point added to stored polar  1
 Point written to save file  s8065_Re500k.base.pol                           
 Dump file unspecified or not available
 Calculating wake trajectory ...
 Calculating source influence matrix ...

 Solving BL system ...

 Side 1  free  transition at x/c =  0.1092   25
 Side 2 forced transition at x/c =  1.0000   74

   1   rms: 0.1404E+00   max: 0.2144E+01   C at   25  1   RLX: 0.632
       a =  6.000      CL =  0.7612
      Cm = -0.0310     CD =  0.01193   =>   CDf =  0.00648    CDp =  0.00545

 Side 1  free  transition at x/c =  0.0838   23
 Side 2 forced transition at x/c =  1.0000   74

   2   rms: 0.4037E-01   max: -.4416E+00   D at   23  1
       a =  6.000      CL =  0.7773
      Cm = -0.0303     CD =  0.01219   =>   CDf =  0.00665    CDp =  0.00554

 Side 1  free  transition at x/c =  0.0716   22
 Side 2 forced transition at x/c =  1.0000   74

   3   rms: 0.1114E-01   max: -.1355E+00   D at   22  1
       a =  6.000      CL =  0.7765
      Cm = -0.0302     CD =  0.01223   =>   CDf =  0.00667    CDp =  0.00556

 Side 1  free  transition at x/c =  0.0714   22
 Side 2 forced transition at x/c =  1.0000   74

   4   rms: 0.7722E-03   max: 0.1327E-01   C at   22  1
       a =  6.000      CL =  0.7763
      Cm = -0.0301     CD =  0.01225   =>   CDf =  0.00668    CDp =  0.00557

 Side 1  free  transition at x/c =  0.0712   22
 Side 2 forced transition at x/c =  1.0000   74

   5   rms: 0.5021E-05   max: -.3963E-04   D at   23  1
       a =  6.000      CL =  0.7763
      Cm = -0.0301     CD =  0.01225   =>   CDf =  0.00668    CDp =  0.00556
 plradd ia,ip,cpol           21           0  1.04654755E-03

 Point added to stored polar  1
 Point written to save file  s8065_Re500k.base.pol                           
 Dump file unspecified or not available
 Calculating wake trajectory ...
 Calculating source influence matrix ...

 Solving BL system ...

 Side 1  free  transition at x/c =  0.0712   22
 Side 2 forced transition at x/c =  1.0000   74

   1   rms: 0.9311E-01   max: -.6277E+00   D at   22  1   RLX: 0.797
       a =  6.500      CL =  0.8047
      Cm = -0.0274     CD =  0.01283   =>   CDf =  0.00668    CDp =  0.00615

 Side 1  free  transition at x/c =  0.0549   21
 Side 2 forced transition at x/c =  1.0000   74

   2   rms: 0.5003E-01   max: -.6296E+00   D at   21  1   RLX: 0.794
       a =  6.500      CL =  0.8126
      Cm = -0.0274     CD =  0.01287   =>   CDf =  0.00670    CDp =  0.00617

 Side 1  free  transition at x/c =  0.0539   21
 Side 2 forced transition at x/c =  1.0000   74

   3   rms: 0.9596E-02   max: -.1727E+00   D at   21  1
       a =  6.500      CL =  0.8117
      Cm = -0.0267     CD =  0.01306   =>   CDf =  0.00674    CDp =  0.00632

 Side 1  free  transition at x/c =  0.0520   21
 Side 2 forced transition at x/c =  1.0000   74

   4   rms: 0.1737E-02   max: -.2338E-01   D at   21  1
       a =  6.500      CL =  0.8112
      Cm = -0.0266     CD =  0.01310   =>   CDf =  0.00678    CDp =  0.00632

 Side 1  free  transition at x/c =  0.0516   21
 Side 2 forced transition at x/c =  1.0000   74

   5   rms: 0.9412E-04   max: -.1371E-02   D at   21  1
       a =  6.500      CL =  0.8111
      Cm = -0.0266     CD =  0.01310   =>   CDf =  0.00679    CDp =  0.00631
 plradd ia,ip,cpol           22           0  1.04654755E-03

 Point added to stored polar  1
 Point written to save file  s8065_Re500k.base.pol                           
 Dump file unspecified or not available
 Calculating wake trajectory ...
 Calculating source influence matrix ...

 Solving BL system ...

 Side 1  free  transition at x/c =  0.0515   21
 Side 2 forced transition at x/c =  1.0000   74

   1   rms: 0.1041E+00   max: 0.4286E+00   T at   21  1
       a =  7.000      CL =  0.8416
      Cm = -0.0222     CD =  0.01447   =>   CDf =  0.00659    CDp =  0.00788

 Side 1  free  transition at x/c =  0.0409   21
 Side 2 forced transition at x/c =  1.0000   73

   2   rms: 0.1076E+00   max: -.8059E+00   D at   21  1   RLX: 0.620
       a =  7.000      CL =  0.8440
      Cm = -0.0231     CD =  0.01415   =>   CDf =  0.00661    CDp =  0.00753

 Side 1  free  transition at x/c =  0.0424   21
 Side 2 forced transition at x/c =  1.0000   73

   3   rms: 0.4554E-01   max: -.5660E+00   D at   21  1   RLX: 0.883
       a =  7.000      CL =  0.8509
      Cm = -0.0239     CD =  0.01370   =>   CDf =  0.00666    CDp =  0.00704

 Side 1  free  transition at x/c =  0.0421   21
 Side 2 forced transition at x/c =  1.0000   73

   4   rms: 0.5817E-02   max: -.7092E-01   D at   21  1
       a =  7.000      CL =  0.8492
      Cm = -0.0236     CD =  0.01388   =>   CDf =  0.00673    CDp =  0.00715

 Side 1  free  transition at x/c =  0.0411   21
 Side 2 forced transition at x/c =  1.0000   73

   5   rms: 0.6775E-03   max: -.6192E-02   D at   21  1
       a =  7.000      CL =  0.8490
      Cm = -0.0236     CD =  0.01390   =>   CDf =  0.00675    CDp =  0.00714

 Side 1  free  transition at x/c =  0.0410   21
 Side 2 forced transition at x/c =  1.0000   73

   6   rms: 0.1329E-04   max: -.1114E-03   D at   21  1
       a =  7.000      CL =  0.8490
      Cm = -0.0236     CD =  0.01390   =>   CDf =  0.00676    CDp =  0.00714
 plradd ia,ip,cpol           23           0  1.04654755E-03

 Point added to stored polar  1
 Point written to save file  s8065_Re500k.base.pol                           
 Dump file unspecified or not available
 Calculating wake trajectory ...
 Calculating source influence matrix ...

 Solving BL system ...

 Side 1  free  transition at x/c =  0.0410   21
 Side 2 forced transition at x/c =  1.0000   73

   1   rms: 0.9973E-01   max: 0.4409E+00   T at   21  1
       a =  7.500      CL =  0.8813
      Cm = -0.0197     CD =  0.01531   =>   CDf =  0.00676    CDp =  0.00856

 MRCHDU: Convergence failed at  21  side 1    Res =  0.2167E+01
 Side 1  free  transition at x/c =  0.0327   20
 Side 2 forced transition at x/c =  1.0000   73

   2   rms: 0.1061E+00   max: -.8151E+00   D at   21  1   RLX: 0.613
       a =  7.500      CL =  0.8826
      Cm = -0.0195     CD =  0.01515   =>   CDf =  0.00641    CDp =  0.00874

 Side 1  free  transition at x/c =  0.0335   20
 Side 2 forced transition at x/c =  1.0000   73

   3   rms: 0.3599E-01   max: -.4925E+00   D at   20  1
       a =  7.500      CL =  0.8900
      Cm = -0.0213     CD =  0.01453   =>   CDf =  0.00664    CDp =  0.00789

 Side 1  free  transition at x/c =  0.0310   20
 Side 2 forced transition at x/c =  1.0000   73

   4   rms: 0.8048E-02   max: -.6771E-01   D at   20  1
       a =  7.500      CL =  0.8865
      Cm = -0.0207     CD =  0.01486   =>   CDf =  0.00673    CDp =  0.00814

 Side 1  free  transition at x/c =  0.0299   20
 Side 2 forced transition at x/c =  1.0000   73

   5   rms: 0.2608E-02   max: 0.1777E-01   D at   19  1
       a =  7.500      CL =  0.8857
      Cm = -0.0205     CD =  0.01493   =>   CDf =  0.00674    CDp =  0.00819

 Side 1  free  transition at x/c =  0.0295   20
 Side 2 forced transition at x/c =  1.0000   73

   6   rms: 0.2179E-03   max: 0.1401E-02   D at   19  1
       a =  7.500      CL =  0.8856
      Cm = -0.0205     CD =  0.01493   =>   CDf =  0.00674    CDp =  0.00819

 Side 1  free  transition at x/c =  0.0295   20
 Side 2 forced transition at x/c =  1.0000   73

   7   rms: 0.4790E-05   max: -.1931E-04   T at   20  1
       a =  7.500      CL =  0.8856
      Cm = -0.0205     CD =  0.01493   =>   CDf =  0.00674    CDp =  0.00819
 plradd ia,ip,cpol           24           0  1.04654755E-03

 Point added to stored polar  1
 Point written to save file  s8065_Re500k.base.pol                           
 Dump file unspecified or not available
 Calculating wake trajectory ...
 Calculating source influence matrix ...

 Solving BL system ...

 Side 1  free  transition at x/c =  0.0295   20
 Side 2 forced transition at x/c =  1.0000   73

   1   rms: 0.2477E+00   max: 0.1065E+01   T at   20  1
       a =  8.000      CL =  0.8821
      Cm = -0.0105     CD =  0.01959   =>   CDf =  0.00674    CDp =  0.01285

 Side 1  free  transition at x/c =  0.0201   18
 Side 2 forced transition at x/c =  1.0000   73

   2   rms: 0.1677E+00   max: -.1133E+01   D at   21  1   RLX: 0.441
       a =  8.000      CL =  0.8878
      Cm = -0.0131     CD =  0.02169   =>   CDf =  0.00632    CDp =  0.01536

 Side 1  free  transition at x/c =  0.0222   19
 Side 2 forced transition at x/c =  1.0000   73

   3   rms: 0.8583E-01   max: -.8614E+00   D at   19  1   RLX: 0.580
       a =  8.000      CL =  0.9073
      Cm = -0.0157     CD =  0.01650   =>   CDf =  0.00638    CDp =  0.01013

 Side 1  free  transition at x/c =  0.0219   20
 Side 2 forced transition at x/c =  1.0000   72

   4   rms: 0.3659E-01   max: -.6600E+00   D at   20  1   RLX: 0.758
       a =  8.000      CL =  0.9149
      Cm = -0.0165     CD =  0.01649   =>   CDf =  0.00664    CDp =  0.00985

 Side 1  free  transition at x/c =  0.0211   19
 Side 2 forced transition at x/c =  1.0000   72

   5   rms: 0.3348E-01   max: -.3412E+00   D at   20  1
       a =  8.000      CL =  0.9221
      Cm = -0.0174     CD =  0.01599   =>   CDf =  0.00663    CDp =  0.00936

 Side 1  free  transition at x/c =  0.0203   19
 Side 2 forced transition at x/c =  1.0000   72

   6   rms: 0.2721E-02   max: 0.3295E-01   D at   19  1
       a =  8.000      CL =  0.9208
      Cm = -0.0172     CD =  0.01618   =>   CDf =  0.00667    CDp =  0.00951

 Side 1  free  transition at x/c =  0.0202   19
 Side 2 forced transition at x/c =  1.0000   72

   7   rms: 0.2521E-04   max: 0.2038E-03   D at   19  1
       a =  8.000      CL =  0.9208
      Cm = -0.0172     CD =  0.01618   =>   CDf =  0.00667    CDp =  0.00950
 plradd ia,ip,cpol           25           0  1.04654755E-03

 Point added to stored polar  1
 Point written to save file  s8065_Re500k.base.pol                           
 Dump file unspecified or not available
 Calculating wake trajectory ...
 Calculating source influence matrix ...

 Solving BL system ...

 Side 1  free  transition at x/c =  0.0202   19
 Side 2 forced transition at x/c =  1.0000   72

   1   rms: 0.8416E-01   max: 0.5918E+00   T at   19  1
       a =  8.500      CL =  0.9605
      Cm = -0.0147     CD =  0.01715   =>   CDf =  0.00667    CDp =  0.01047

 Side 1  free  transition at x/c =  0.0160   19
 Side 2 forced transition at x/c =  1.0000   72

   2   rms: 0.1729E-01   max: -.8739E-01   D at   19  1
       a =  8.500      CL =  0.9541
      Cm = -0.0138     CD =  0.01751   =>   CDf =  0.00659    CDp =  0.01092

 Side 1  free  transition at x/c =  0.0162   19
 Side 2 forced transition at x/c =  1.0000   72

   3   rms: 0.3970E-03   max: 0.2551E-02   D at   18  1
       a =  8.500      CL =  0.9541
      Cm = -0.0138     CD =  0.01756   =>   CDf =  0.00661    CDp =  0.01095

 Side 1  free  transition at x/c =  0.0162   19
 Side 2 forced transition at x/c =  1.0000   72

   4   rms: 0.5767E-05   max: -.3403E-04   C at   72  2
       a =  8.500      CL =  0.9541
      Cm = -0.0138     CD =  0.01756   =>   CDf =  0.00661    CDp =  0.01095
 plradd ia,ip,cpol           26           0  4.12394613E-04

 Point added to stored polar  1
 Point written to save file  s8065_Re500k.base.pol                           
 Dump file unspecified or not available
 Calculating wake trajectory ...
 Calculating source influence matrix ...

 Solving BL system ...

 Side 1  free  transition at x/c =  0.0162   19
 Side 2 forced transition at x/c =  1.0000   72

   1   rms: 0.1169E+00   max: 0.4231E+00   T at   19  1
       a =  9.000      CL =  0.9737
      Cm = -0.0083     CD =  0.02035   =>   CDf =  0.00661    CDp =  0.01374

 MRCHDU: Convergence failed at  19  side 1    Res =  0.7887E+01
 MRCHDU: Convergence failed at  20  side 1    Res =  0.5390E+01
 MRCHDU: Convergence failed at  21  side 1    Res =  0.6917E+01
 MRCHDU: Convergence failed at  22  side 1    Res =  0.6741E+01
 MRCHDU: Convergence failed at  23  side 1    Res =  0.1353E+02
 MRCHDU: Convergence failed at  24  side 1    Res =  0.1288E+02
 MRCHDU: Convergence failed at  25  side 1    Res =  0.2543E+02
 MRCHDU: Convergence failed at  26  side 1    Res =  0.2575E+02
 MRCHDU: Convergence failed at  27  side 1    Res =  0.4325E+02
 MRCHDU: Convergence failed at  28  side 1    Res =  0.4390E+02
 MRCHDU: Convergence failed at  29  side 1    Res =  0.2194E+02
 MRCHDU: Convergence failed at  30  side 1    Res =  0.2379E+02
 MRCHDU: Convergence failed at  31  side 1    Res =  0.2555E+02
 MRCHDU: Convergence failed at  32  side 1    Res =  0.2732E+02
 MRCHDU: Convergence failed at  33  side 1    Res =  0.2915E+02
 MRCHDU: Convergence failed at  34  side 1    Res =  0.3865E+02
 MRCHDU: Convergence failed at  35  side 1    Res =  0.3096E+02
 MRCHDU: Convergence failed at  36  side 1    Res =  0.3194E+02
 MRCHDU: Convergence failed at  37  side 1    Res =  0.3334E+02
 MRCHDU: Convergence failed at  38  side 1    Res =  0.3546E+02
 MRCHDU: Convergence failed at  39  side 1    Res =  0.3664E+02
 MRCHDU: Convergence failed at  40  side 1    Res =  0.2985E+02
 MRCHDU: Convergence failed at  41  side 1    Res =  0.3157E+02
 MRCHDU: Convergence failed at  42  side 1    Res =  0.3332E+02
 MRCHDU: Convergence failed at  43  side 1    Res =  0.3505E+02
 MRCHDU: Convergence failed at  44  side 1    Res =  0.3698E+02
 MRCHDU: Convergence failed at  45  side 1    Res =  0.3902E+02
 MRCHDU: Convergence failed at  46  side 1    Res =  0.3276E+02
 MRCHDU: Convergence failed at  47  side 1    Res =  0.3441E+02
 MRCHDU: Convergence failed at  48  side 1    Res =  0.3613E+02
 MRCHDU: Convergence failed at  49  side 1    Res =  0.3796E+02
 MRCHDU: Convergence failed at  50  side 1    Res =  0.4007E+02
 MRCHDU: Convergence failed at  51  side 1    Res =  0.3303E+02
 MRCHDU: Convergence failed at  52  side 1    Res =  0.3457E+02
 MRCHDU: Convergence failed at  53  side 1    Res =  0.3650E+02
 MRCHDU: Convergence failed at  54  side 1    Res =  0.3883E+02
 MRCHDU: Convergence failed at  55  side 1    Res =  0.3592E+02
 MRCHDU: Convergence failed at  56  side 1    Res =  0.3221E+02
 MRCHDU: Convergence failed at  57  side 1    Res =  0.4110E+02
 MRCHDU: Convergence failed at  58  side 1    Res =  0.4445E+02
 MRCHDU: Convergence failed at  59  side 1    Res =  0.3441E+02
 MRCHDU: Convergence failed at  60  side 1    Res =  0.5307E+02
 MRCHDU: Convergence failed at  61  side 1    Res =  0.3880E+02
 MRCHDU: Convergence failed at  62  side 1    Res =  0.4190E+02
 MRCHDU: Convergence failed at  63  side 1    Res =  0.4577E+02
 MRCHDU: Convergence failed at  64  side 1    Res =  0.5038E+02
 MRCHDU: Convergence failed at  65  side 1    Res =  0.5553E+02
 MRCHDU: Convergence failed at  66  side 1    Res =  0.7097E+02
 MRCHDU: Convergence failed at  67  side 1    Res =  0.7720E+02
 MRCHDU: Convergence failed at  68  side 1    Res =  0.1554E+03
 MRCHDU: Convergence failed at  69  side 1    Res =  0.2334E+03
 MRCHDU: Convergence failed at  70  side 1    Res =  0.1881E+04
 MRCHDU: Convergence failed at  71  side 1    Res =  0.3642E+02
 MRCHDU: Convergence failed at  72  side 1    Res =  0.8469E+02
 MRCHDU: Convergence failed at  73  side 1    Res =  0.1051E+03
 MRCHDU: Convergence failed at  74  side 1    Res =  0.5800E+02
 MRCHDU: Convergence failed at  75  side 1    Res =  0.7532E+02
 MRCHDU: Convergence failed at  76  side 1    Res =  0.9078E+02
 MRCHDU: Convergence failed at  77  side 1    Res =  0.8017E+02
 MRCHDU: Convergence failed at  78  side 1    Res =  0.7285E+02
 MRCHDU: Convergence failed at  79  side 1    Res =  0.5458E+02
 MRCHDU: Convergence failed at  80  side 1    Res =  0.9676E+02
 MRCHDU: Convergence failed at  81  side 1    Res =  0.3459E+04
 MRCHDU: Convergence failed at  82  side 1    Res =  0.4959E+02
 MRCHDU: Convergence failed at  83  side 1    Res =  0.1551E+05
 MRCHDU: Convergence failed at  84  side 1    Res =  0.1432E+04
 MRCHDU: Convergence failed at  85  side 1    Res =  0.7336E+03
 MRCHDU: Convergence failed at  86  side 1    Res =  0.5807E+03
 MRCHDU: Convergence failed at  87  side 1    Res =  0.3934E+03
 MRCHDU: Convergence failed at  88  side 1    Res =  0.2691E+03
 MRCHDU: Convergence failed at  89  side 1    Res =  0.1813E+03
 MRCHDU: Convergence failed at  90  side 1    Res =  0.1055E+03
 Side 1  free  transition at x/c =  0.0146   18
 Side 2 forced transition at x/c =  1.0000   72

   2   rms: 0.2319E+01   max: 0.9361E+01   D at   75  2   RLX: 0.160
       a =  9.000      CL =  3.4940
      Cm = -0.8121     CD =  0.00423   =>   CDf =  0.00117    CDp =  0.00306

 MRCHDU: Convergence failed at  75  side 2    Res =  0.4411E+01
 MRCHDU: Convergence failed at  76  side 2    Res =  0.4940E+01
 MRCHDU: Convergence failed at  77  side 2    Res =  0.5956E+01
 MRCHDU: Convergence failed at  78  side 2    Res =  0.1620E+01
 Side 1  free  transition at x/c =  0.0151   18
 Side 2 forced transition at x/c =  1.0000   72

   3   rms: 0.1056E+01   max: -.3592E+01   T at   19  1   RLX: 0.139
       a =  9.000      CL =  2.4373
      Cm = -0.5008     CD =  0.05227   =>   CDf =  0.00242    CDp =  0.04985

 Side 1  free  transition at x/c =  0.0144   18
 Side 2 forced transition at x/c =  1.0000   72
 idif Ue xi dudx           1  0.17247427      6.89327717E-03   25.020649    
 Uenew xinew           2  1.84121691E-02  7.35878944E-04

   4   rms: 0.8426E+00   max: 0.2956E+01   C at   72  2   RLX: 0.267
       a =  9.000      CL =  1.8936
      Cm = -0.3578     CD =  0.06191   =>   CDf =  0.00250    CDp =  0.05940

 Side 1  free  transition at x/c =  0.0182   18
 Side 2 forced transition at x/c =  1.0000   73

   5   rms: 0.6926E+00   max: -.3353E+01   T at   18  1   RLX: 0.149
       a =  9.000      CL =  1.5934
      Cm = -0.2705     CD =  0.07941   =>   CDf =  0.00268    CDp =  0.07673

 MRCHDU: Convergence failed at  28  side 1    Res =  0.2329E+00
 MRCHDU: Convergence failed at  29  side 1    Res =  0.7950E+00
 MRCHDU: Convergence failed at  30  side 1    Res =  0.2838E+00
 MRCHDU: Convergence failed at  31  side 1    Res =  0.2113E+00
 MRCHDU: Convergence failed at  32  side 1    Res =  0.1087E+00
 Side 1  free  transition at x/c =  0.0221   19
 Side 2 forced transition at x/c =  1.0000   73

   6   rms: 0.4789E+00   max: -.2422E+01   T at   19  1   RLX: 0.206
       a =  9.000      CL =  0.9793
      Cm = -0.0991     CD =  0.08275   =>   CDf =  0.00228    CDp =  0.08048

 Side 1  free  transition at x/c =  0.0294   20
 Side 2 forced transition at x/c =  1.0000   73

   7   rms: 0.1676E+01   max: 0.1551E+02   D at   19  1   RLX: 0.041
       a =  9.000      CL =  0.8143
      Cm = -0.0525     CD =  0.09035   =>   CDf =  0.00257    CDp =  0.08778

 Side 1  free  transition at x/c =  0.0221   19
 Side 2 forced transition at x/c =  1.0000   73

   8   rms: 0.4044E+00   max: -.1965E+01   T at   19  1   RLX: 0.254
       a =  9.000      CL =  0.8195
      Cm = -0.0587     CD =  0.08176   =>   CDf =  0.00240    CDp =  0.07937

 Side 1  free  transition at x/c =  0.0239   19
 Side 2 forced transition at x/c =  1.0000   73

   9   rms: 0.4099E+00   max: -.2813E+01   T at   19  1   RLX: 0.178
       a =  9.000      CL =  0.7727
      Cm = -0.0431     CD =  0.08537   =>   CDf =  0.00243    CDp =  0.08294

 Side 1  free  transition at x/c =  0.0281   19
 Side 2 forced transition at x/c =  1.0000   73

  10   rms: 0.1468E+01   max: 0.1562E+02   T at   19  1   RLX: 0.040
       a =  9.000      CL =  0.7982
      Cm = -0.0464     CD =  0.09482   =>   CDf =  0.00247    CDp =  0.09235

 Side 1  free  transition at x/c =  0.0264   19
 Side 2 forced transition at x/c =  1.0000   73

  11   rms: 0.6073E+00   max: -.5174E+01   T at   19  1   RLX: 0.097
       a =  9.000      CL =  0.8396
      Cm = -0.0557     CD =  0.09251   =>   CDf =  0.00240    CDp =  0.09011

 Side 1  free  transition at x/c =  0.0297   20
 Side 2 forced transition at x/c =  1.0000   73

  12   rms: 0.3383E+00   max: -.1150E+01   T at   20  1   RLX: 0.435
       a =  9.000      CL =  0.6756
      Cm =  0.0012     CD =  0.05549   =>   CDf =  0.00348    CDp =  0.05200

 Side 1  free  transition at x/c =  0.0347   20
 Side 2 forced transition at x/c =  1.0000   73

  13   rms: 0.5340E+00   max: -.2845E+01   T at   20  1   RLX: 0.176
       a =  9.000      CL =  0.6581
      Cm =  0.0083     CD =  0.05785   =>   CDf =  0.00360    CDp =  0.05425

 Side 1  free  transition at x/c =  0.0420   21
 Side 2 forced transition at x/c =  1.0000   73

  14   rms: 0.9139E+00   max: -.3580E+01   D at   23  1   RLX: 0.140
       a =  9.000      CL =  0.6694
      Cm =  0.0369     CD =  0.04618   =>   CDf =  0.00448    CDp =  0.04169

 Side 1  free  transition at x/c =  0.0367   20
 Side 2 forced transition at x/c =  1.0000   73

  15   rms: 0.1707E+01   max: -.5723E+01   D at   55  1   RLX: 0.087
       a =  9.000      CL =  0.7414
      Cm =  0.0399     CD =  0.03610   =>   CDf =  0.00437    CDp =  0.03173

 Side 1  free  transition at x/c =  0.0279   20
 Side 2 forced transition at x/c =  1.0000   72

  16   rms: 0.2172E+01   max: 0.8494E+01   D at    2  1   RLX: 0.059
       a =  9.000      CL =  0.8054
      Cm =  0.0356     CD =  0.02922   =>   CDf =  0.00489    CDp =  0.02434

 Side 1  free  transition at x/c =  0.0215   20
 Side 2 forced transition at x/c =  1.0000   72

  17   rms: 0.4230E+00   max: -.1850E+01   D at   47  1   RLX: 0.270
       a =  9.000      CL =  0.8175
      Cm =  0.0231     CD =  0.02849   =>   CDf =  0.00512    CDp =  0.02337

 Side 1  free  transition at x/c =  0.0191   19
 Side 2 forced transition at x/c =  1.0000   72

  18   rms: 0.4540E+00   max: -.1832E+01   D at   68  1   RLX: 0.273
       a =  9.000      CL =  0.8650
      Cm =  0.0222     CD =  0.02339   =>   CDf =  0.00564    CDp =  0.01776

 Side 1  free  transition at x/c =  0.0165   19
 Side 2 forced transition at x/c =  1.0000   72

  19   rms: 0.3139E+00   max: -.1243E+01   D at   72  1   RLX: 0.402
       a =  9.000      CL =  0.9269
      Cm =  0.0101     CD =  0.02049   =>   CDf =  0.00596    CDp =  0.01453

 Side 1  free  transition at x/c =  0.0155   18
 Side 2 forced transition at x/c =  1.0000   72

  20   rms: 0.1750E+00   max: -.7895E+00   D at   73  1   RLX: 0.633
       a =  9.000      CL =  0.9696
      Cm = -0.0016     CD =  0.01906   =>   CDf =  0.00624    CDp =  0.01282

 Side 1  free  transition at x/c =  0.0149   18
 Side 2 forced transition at x/c =  1.0000   72

  21   rms: 0.6739E-01   max: -.3804E+00   D at   73  1
       a =  9.000      CL =  0.9810
      Cm = -0.0081     CD =  0.01896   =>   CDf =  0.00637    CDp =  0.01260

 Side 1  free  transition at x/c =  0.0146   18
 Side 2 forced transition at x/c =  1.0000   72

  22   rms: 0.8119E-02   max: -.7146E-01   D at   78  1
       a =  9.000      CL =  0.9817
      Cm = -0.0094     CD =  0.01936   =>   CDf =  0.00644    CDp =  0.01293

 Side 1  free  transition at x/c =  0.0146   18
 Side 2 forced transition at x/c =  1.0000   72

  23   rms: 0.3707E-03   max: -.4327E-02   D at   78  1
       a =  9.000      CL =  0.9815
      Cm = -0.0094     CD =  0.01937   =>   CDf =  0.00643    CDp =  0.01294

 Side 1  free  transition at x/c =  0.0146   18
 Side 2 forced transition at x/c =  1.0000   72

  24   rms: 0.2115E-05   max: 0.2326E-04   C at   72  2
       a =  9.000      CL =  0.9815
      Cm = -0.0094     CD =  0.01937   =>   CDf =  0.00643    CDp =  0.01294
 plradd ia,ip,cpol           27           0  4.12394613E-04

 Point added to stored polar  1
 Point written to save file  s8065_Re500k.base.pol                           
 Dump file unspecified or not available
 Calculating wake trajectory ...
 Calculating source influence matrix ...

 Solving BL system ...

 Side 1  free  transition at x/c =  0.0146   18
 Side 2 forced transition at x/c =  1.0000   72

   1   rms: 0.7817E-01   max: 0.2656E+00   T at   18  1
       a =  9.500      CL =  1.0117
      Cm = -0.0055     CD =  0.02104   =>   CDf =  0.00643    CDp =  0.01460

 Side 1  free  transition at x/c =  0.0134   18
 Side 2 forced transition at x/c =  1.0000   72

   2   rms: 0.4544E-02   max: 0.1844E-01   D at   88  1
       a =  9.500      CL =  1.0088
      Cm = -0.0052     CD =  0.02112   =>   CDf =  0.00624    CDp =  0.01488

 Side 1  free  transition at x/c =  0.0134   18
 Side 2 forced transition at x/c =  1.0000   72

   3   rms: 0.1817E-03   max: 0.9664E-03   C at   72  2
       a =  9.500      CL =  1.0090
      Cm = -0.0052     CD =  0.02113   =>   CDf =  0.00625    CDp =  0.01488

 Side 1  free  transition at x/c =  0.0134   18
 Side 2 forced transition at x/c =  1.0000   72

   4   rms: 0.4636E-05   max: -.1512E-04   T at   88  1
       a =  9.500      CL =  1.0090
      Cm = -0.0052     CD =  0.02113   =>   CDf =  0.00625    CDp =  0.01488
 plradd ia,ip,cpol           28           0  4.12394613E-04

 Point added to stored polar  1
 Point written to save file  s8065_Re500k.base.pol                           
 Dump file unspecified or not available
 Calculating wake trajectory ...
 Calculating source influence matrix ...

 Solving BL system ...

 Side 1  free  transition at x/c =  0.0134   18
 Side 2 forced transition at x/c =  1.0000   72

   1   rms: 0.7729E-01   max: 0.2301E+00   T at   18  1
       a = 10.000      CL =  1.0389
      Cm = -0.0016     CD =  0.02303   =>   CDf =  0.00589    CDp =  0.01714

 Side 1  free  transition at x/c =  0.0125   19
 Side 2 forced transition at x/c =  1.0000   71

   2   rms: 0.1005E-01   max: -.4737E-01   D at   19  1
       a = 10.000      CL =  1.0359
      Cm = -0.0013     CD =  0.02305   =>   CDf =  0.00604    CDp =  0.01700

 Side 1  free  transition at x/c =  0.0125   19
 Side 2 forced transition at x/c =  1.0000   71

   3   rms: 0.1000E-02   max: -.9125E-02   D at    4  1
       a = 10.000      CL =  1.0365
      Cm = -0.0014     CD =  0.02306   =>   CDf =  0.00607    CDp =  0.01700

 Side 1  free  transition at x/c =  0.0125   19
 Side 2 forced transition at x/c =  1.0000   71

   4   rms: 0.1315E-04   max: 0.4404E-04   D at   86  1
       a = 10.000      CL =  1.0364
      Cm = -0.0014     CD =  0.02306   =>   CDf =  0.00607    CDp =  0.01700
 plradd ia,ip,cpol           29           0  1.28802931E-04

 Point added to stored polar  1
 Point written to save file  s8065_Re500k.base.pol                           
 Dump file unspecified or not available

.OPERva   c>  
 Solving BL system ...

 Side 1  free  transition at x/c =  0.0125   19
 Side 2 forced transition at x/c =  1.0000   71

   1   rms: 0.4189E-06   max: 0.4230E-05   C at   71  2
       a = 10.000      CL =  1.0364
      Cm = -0.0014     CD =  0.02306   =>   CDf =  0.00607    CDp =  0.01700
 plradd ia,ip,cpol           30         182  1.28802931E-04

 Point added to stored polar  1
 Point written to save file  s8065_Re500k.base.pol                           
 Dump file unspecified or not available
 Calculating wake trajectory ...
 Calculating source influence matrix ...

 Solving BL system ...

 Side 1  free  transition at x/c =  0.0125   19
 Side 2 forced transition at x/c =  1.0000   71

   1   rms: 0.3982E-01   max: 0.8741E-01   T at   19  1
       a = 10.250      CL =  1.0509
      Cm =  0.0003     CD =  0.02424   =>   CDf =  0.00607    CDp =  0.01817

 Side 1  free  transition at x/c =  0.0123   19
 Side 2 forced transition at x/c =  1.0000   71

   2   rms: 0.1812E-02   max: 0.7482E-02   D at   86  1
       a = 10.250      CL =  1.0495
      Cm =  0.0005     CD =  0.02425   =>   CDf =  0.00596    CDp =  0.01828

 Side 1  free  transition at x/c =  0.0123   19
 Side 2 forced transition at x/c =  1.0000   71

   3   rms: 0.5826E-04   max: -.2589E-03   D at   88  1
       a = 10.250      CL =  1.0495
      Cm =  0.0004     CD =  0.02425   =>   CDf =  0.00596    CDp =  0.01828
 plradd ia,ip,cpol           31           0  1.28802931E-04

 Point added to stored polar  1
 Point written to save file  s8065_Re500k.base.pol                           
 Dump file unspecified or not available
 Calculating wake trajectory ...
 Calculating source influence matrix ...

 Solving BL system ...

 Side 1  free  transition at x/c =  0.0123   19
 Side 2 forced transition at x/c =  1.0000   71

   1   rms: 0.4159E-01   max: 0.9066E-01   T at   19  1
       a = 10.500      CL =  1.0637
      Cm =  0.0021     CD =  0.02561   =>   CDf =  0.00597    CDp =  0.01964

 Side 1  free  transition at x/c =  0.0116   19
 Side 2 forced transition at x/c =  1.0000   71

   2   rms: 0.5121E-01   max: -.2700E+00   D at   19  1
       a = 10.500      CL =  1.0559
      Cm =  0.0031     CD =  0.02521   =>   CDf =  0.00579    CDp =  0.01941

 Side 1  free  transition at x/c =  0.0118   19
 Side 2 forced transition at x/c =  1.0000   71

   3   rms: 0.6984E-02   max: -.3254E-01   D at   86  1
       a = 10.500      CL =  1.0612
      Cm =  0.0023     CD =  0.02546   =>   CDf =  0.00589    CDp =  0.01957

 Side 1  free  transition at x/c =  0.0117   19
 Side 2 forced transition at x/c =  1.0000   71

   4   rms: 0.5202E-03   max: 0.3918E-02   D at   84  1
       a = 10.500      CL =  1.0611
      Cm =  0.0023     CD =  0.02549   =>   CDf =  0.00590    CDp =  0.01960

 Side 1  free  transition at x/c =  0.0117   19
 Side 2 forced transition at x/c =  1.0000   71

   5   rms: 0.2499E-04   max: -.8244E-04   T at   19  1
       a = 10.500      CL =  1.0611
      Cm =  0.0023     CD =  0.02549   =>   CDf =  0.00590    CDp =  0.01959
 plradd ia,ip,cpol           32           0  1.28802931E-04

 Point added to stored polar  1
 Point written to save file  s8065_Re500k.base.pol                           
 Dump file unspecified or not available
 Calculating wake trajectory ...
 Calculating source influence matrix ...

 Solving BL system ...

 Side 1  free  transition at x/c =  0.0117   19
 Side 2 forced transition at x/c =  1.0000   71

   1   rms: 0.5682E-01   max: 0.1595E+00   T at   19  1
       a = 10.750      CL =  1.0727
      Cm =  0.0041     CD =  0.02771   =>   CDf =  0.00590    CDp =  0.02181

 Side 1  free  transition at x/c =  0.0113   19
 Side 2 forced transition at x/c =  1.0000   71

   2   rms: 0.6096E-02   max: -.1087E-01   D at   80  1
       a = 10.750      CL =  1.0698
      Cm =  0.0043     CD =  0.02834   =>   CDf =  0.00565    CDp =  0.02269

 Side 1  free  transition at x/c =  0.0113   19
 Side 2 forced transition at x/c =  1.0000   71

   3   rms: 0.1148E-03   max: 0.5650E-03   D at   19  1
       a = 10.750      CL =  1.0698
      Cm =  0.0043     CD =  0.02834   =>   CDf =  0.00566    CDp =  0.02268

 Side 1  free  transition at x/c =  0.0113   19
 Side 2 forced transition at x/c =  1.0000   71

   4   rms: 0.8975E-05   max: -.2935E-04   D at   21  1
       a = 10.750      CL =  1.0698
      Cm =  0.0043     CD =  0.02834   =>   CDf =  0.00566    CDp =  0.02268
 plradd ia,ip,cpol           33           0  1.28802931E-04

 Point added to stored polar  1
 Point written to save file  s8065_Re500k.base.pol                           
 Dump file unspecified or not available
 Calculating wake trajectory ...
 Calculating source influence matrix ...

 Solving BL system ...

 Side 1  free  transition at x/c =  0.0113   19
 Side 2 forced transition at x/c =  1.0000   71

   1   rms: 0.9763E-01   max: 0.2961E+00   D at   22  1
       a = 11.000      CL =  1.0805
      Cm =  0.0057     CD =  0.03277   =>   CDf =  0.00566    CDp =  0.02711

[...]
       a = 15.750      CL =  0.0039
      Cm =  0.0513     CD =  0.04169   =>   CDf =  0.00132    CDp =  0.04036

 MRCHDU: Convergence failed at  89  side 2    Res =  0.2819E+01
 Side 1  free  transition at x/c =  0.0291   18
 Side 2  free  transition at x/c =  0.9685   71

  99   rms: 0.6965E+06   max: -.6669E+07   C at   92  2   RLX: 0.000
       a = 15.750      CL =  0.0039
      Cm =  0.0513     CD =  0.04169   =>   CDf =  0.00132    CDp =  0.04037

 MRCHDU: Convergence failed at  89  side 2    Res =  0.2870E+01
 Side 1  free  transition at x/c =  0.0291   18
 Side 2  free  transition at x/c =  0.9685   71

 100   rms: 0.2099E+06   max: 0.2010E+07   C at   92  2   RLX: 0.000
       a = 15.750      CL =  0.0039
      Cm =  0.0513     CD =  0.04168   =>   CDf =  0.00132    CDp =  0.04036

 MRCHDU: Convergence failed at  89  side 2    Res =  0.2726E+01
 Side 1  free  transition at x/c =  0.0291   18
 Side 2  free  transition at x/c =  0.9685   71

 101   rms: 0.1048E+06   max: -.1004E+07   C at   92  2   RLX: 0.000
       a = 15.750      CL =  0.0039
      Cm =  0.0513     CD =  0.04169   =>   CDf =  0.00132    CDp =  0.04036

 MRCHDU: Convergence failed at  89  side 2    Res =  0.2776E+01
 Side 1  free  transition at x/c =  0.0291   18
 Side 2  free  transition at x/c =  0.9685   71

 102   rms: 0.2290E+06   max: -.2192E+07   C at   92  2   RLX: 0.000
       a = 15.750      CL =  0.0039
      Cm =  0.0513     CD =  0.04169   =>   CDf =  0.00132    CDp =  0.04036

 MRCHDU: Convergence failed at  89  side 2    Res =  0.2827E+01
 Side 1  free  transition at x/c =  0.0291   18
 Side 2  free  transition at x/c =  0.9685   71

 103   rms: 0.5072E+06   max: -.4857E+07   C at   92  2   RLX: 0.000
       a = 15.750      CL =  0.0039
      Cm =  0.0513     CD =  0.04169   =>   CDf =  0.00132    CDp =  0.04037

 MRCHDU: Convergence failed at  89  side 2    Res =  0.2877E+01
 Side 1  free  transition at x/c =  0.0291   18
 Side 2  free  transition at x/c =  0.9685   71

 104   rms: 0.4762E+06   max: 0.4559E+07   C at   92  2   RLX: 0.000
       a = 15.750      CL =  0.0039
      Cm =  0.0513     CD =  0.04168   =>   CDf =  0.00132    CDp =  0.04036

 MRCHDU: Convergence failed at  89  side 2    Res =  0.2734E+01
 Side 1  free  transition at x/c =  0.0291   18
 Side 2  free  transition at x/c =  0.9685   71

 105   rms: 0.1081E+06   max: -.1035E+07   C at   92  2   RLX: 0.000
       a = 15.750      CL =  0.0039
      Cm =  0.0513     CD =  0.04169   =>   CDf =  0.00132    CDp =  0.04036

 MRCHDU: Convergence failed at  89  side 2    Res =  0.2783E+01
 Side 1  free  transition at x/c =  0.0291   18
 Side 2  free  transition at x/c =  0.9685   71

 106   rms: 0.1949E+06   max: -.1866E+07   C at   92  2   RLX: 0.000
       a = 15.750      CL =  0.0039
      Cm =  0.0513     CD =  0.04169   =>   CDf =  0.00132    CDp =  0.04036

 MRCHDU: Convergence failed at  89  side 2    Res =  0.2834E+01
 Side 1  free  transition at x/c =  0.0291   18
 Side 2  free  transition at x/c =  0.9685   71

 107   rms: 0.4089E+06   max: -.3915E+07   C at   92  2   RLX: 0.000
       a = 15.750      CL =  0.0039
      Cm =  0.0513     CD =  0.04169   =>   CDf =  0.00132    CDp =  0.04037

 MRCHDU: Convergence failed at  89  side 2    Res =  0.2884E+01
 Side 1  free  transition at x/c =  0.0291   18
 Side 2  free  transition at x/c =  0.9685   71

 108   rms: 0.6535E+06   max: 0.6258E+07   C at   92  2   RLX: 0.000
       a = 15.750      CL =  0.0039
      Cm =  0.0513     CD =  0.04168   =>   CDf =  0.00132    CDp =  0.04036

 MRCHDU: Convergence failed at  89  side 2    Res =  0.2741E+01
 Side 1  free  transition at x/c =  0.0291   18
 Side 2  free  transition at x/c =  0.9685   71

 109   rms: 0.9790E+05   max: -.9373E+06   C at   92  2   RLX: 0.000
       a = 15.750      CL =  0.0039
      Cm =  0.0513     CD =  0.04169   =>   CDf =  0.00132    CDp =  0.04036

 MRCHDU: Convergence failed at  89  side 2    Res =  0.2791E+01
 Side 1  free  transition at x/c =  0.0291   18
 Side 2  free  transition at x/c =  0.9685   71

 110   rms: 0.1657E+06   max: -.1587E+07   C at   92  2   RLX: 0.000
       a = 15.750      CL =  0.0039
      Cm =  0.0513     CD =  0.04169   =>   CDf =  0.00132    CDp =  0.04037

 MRCHDU: Convergence failed at  89  side 2    Res =  0.2841E+01
 Side 1  free  transition at x/c =  0.0291   18
 Side 2  free  transition at x/c =  0.9685   71

 111   rms: 0.4942E+06   max: -.4732E+07   C at   92  2   RLX: 0.000
       a = 15.750      CL =  0.0039
      Cm =  0.0513     CD =  0.04169   =>   CDf =  0.00132    CDp =  0.04037

 MRCHDU: Convergence failed at  89  side 2    Res =  0.2892E+01
 Side 1  free  transition at x/c =  0.0291   18
 Side 2  free  transition at x/c =  0.9685   71

 112   rms: 0.3783E+06   max: 0.3623E+07   C at   92  2   RLX: 0.000
       a = 15.750      CL =  0.0039
      Cm =  0.0513     CD =  0.04168   =>   CDf =  0.00132    CDp =  0.04036

 MRCHDU: Convergence failed at  89  side 2    Res =  0.2748E+01
 Side 1  free  transition at x/c =  0.0291   18
 Side 2  free  transition at x/c =  0.9685   71

 113   rms: 0.1027E+06   max: -.9833E+06   C at   92  2   RLX: 0.000
       a = 15.750      CL =  0.0039
      Cm =  0.0513     CD =  0.04169   =>   CDf =  0.00132    CDp =  0.04036

 MRCHDU: Convergence failed at  89  side 2    Res =  0.2798E+01
 Side 1  free  transition at x/c =  0.0291   18
 Side 2  free  transition at x/c =  0.9685   71

 114   rms: 0.1637E+06   max: -.1567E+07   C at   92  2   RLX: 0.000
       a = 15.750      CL =  0.0039
      Cm =  0.0513     CD =  0.04169   =>   CDf =  0.00132    CDp =  0.04037

 MRCHDU: Convergence failed at  89  side 2    Res =  0.2848E+01
 Side 1  free  transition at x/c =  0.0291   18
 Side 2  free  transition at x/c =  0.9685   71

 115   rms: 0.4161E+06   max: -.3984E+07   C at   92  2   RLX: 0.000
       a = 15.750      CL =  0.0039
      Cm =  0.0513     CD =  0.04169   =>   CDf =  0.00132    CDp =  0.04037

 MRCHDU: Convergence failed at  89  side 2    Res =  0.2899E+01
 Side 1  free  transition at x/c =  0.0291   18
 Side 2  free  transition at x/c =  0.9685   71

 116   rms: 0.8917E+06   max: 0.8539E+07   C at   92  2   RLX: 0.000
       a = 15.750      CL =  0.0039
      Cm =  0.0513     CD =  0.04168   =>   CDf =  0.00132    CDp =  0.04036

 MRCHDU: Convergence failed at  89  side 2    Res =  0.2755E+01
 Side 1  free  transition at x/c =  0.0291   18
 Side 2  free  transition at x/c =  0.9685   71

 117   rms: 0.9878E+05   max: -.9458E+06   C at   92  2   RLX: 0.000
       a = 15.750      CL =  0.0039
      Cm =  0.0513     CD =  0.04169   =>   CDf =  0.00132    CDp =  0.04036

 MRCHDU: Convergence failed at  89  side 2    Res =  0.2805E+01
 Side 1  free  transition at x/c =  0.0291   18
 Side 2  free  transition at x/c =  0.9685   71

 118   rms: 0.1865E+06   max: -.1786E+07   C at   92  2   RLX: 0.000
       a = 15.750      CL =  0.0039
      Cm =  0.0513     CD =  0.04169   =>   CDf =  0.00132    CDp =  0.04037

 MRCHDU: Convergence failed at  89  side 2    Res =  0.2855E+01
 Side 1  free  transition at x/c =  0.0291   18
 Side 2  free  transition at x/c =  0.9685   71

 119   rms: 0.2467E+06   max: -.2362E+07   C at   92  2   RLX: 0.000
       a = 15.750      CL =  0.0039
      Cm =  0.0513     CD =  0.04169   =>   CDf =  0.00132    CDp =  0.04037

 MRCHDU: Convergence failed at  89  side 2    Res =  0.2906E+01
 Side 1  free  transition at x/c =  0.0291   18
 Side 2  free  transition at x/c =  0.9685   71

 120   rms: 0.6499E+06   max: 0.6223E+07   C at   92  2   RLX: 0.000
       a = 15.750      CL =  0.0039
      Cm =  0.0513     CD =  0.04168   =>   CDf =  0.00132    CDp =  0.04036

 MRCHDU: Convergence failed at  89  side 2    Res =  0.2763E+01
 Side 1  free  transition at x/c =  0.0291   18
 Side 2  free  transition at x/c =  0.9685   71

 121   rms: 0.9590E+05   max: -.9182E+06   C at   92  2   RLX: 0.000
       a = 15.750      CL =  0.0039
      Cm =  0.0513     CD =  0.04169   =>   CDf =  0.00132    CDp =  0.04036

 MRCHDU: Convergence failed at  89  side 2    Res =  0.2812E+01
 Side 1  free  transition at x/c =  0.0291   18
 Side 2  free  transition at x/c =  0.9685   71

 122   rms: 0.1544E+06   max: -.1478E+07   C at   92  2   RLX: 0.000
       a = 15.750      CL =  0.0039
      Cm =  0.0513     CD =  0.04169   =>   CDf =  0.00132    CDp =  0.04037

 MRCHDU: Convergence failed at  89  side 2    Res =  0.2863E+01
 Side 1  free  transition at x/c =  0.0291   18
 Side 2  free  transition at x/c =  0.9685   71

 123   rms: 0.4163E+06   max: -.3986E+07   C at   92  2   RLX: 0.000
       a = 15.750      CL =  0.0039
      Cm =  0.0513     CD =  0.04169   =>   CDf =  0.00132    CDp =  0.04037

 MRCHDU: Convergence failed at  89  side 2    Res =  0.2913E+01
 Side 1  free  transition at x/c =  0.0291   18
 Side 2  free  transition at x/c =  0.9685   71

 124   rms: 0.1352E+07   max: 0.1295E+08   C at   92  2   RLX: 0.000
       a = 15.750      CL =  0.0039
      Cm =  0.0513     CD =  0.04168   =>   CDf =  0.00132    CDp =  0.04036

 MRCHDU: Convergence failed at  89  side 2    Res =  0.2770E+01
 Side 1  free  transition at x/c =  0.0291   18
 Side 2  free  transition at x/c =  0.9685   71

 125   rms: 0.8976E+05   max: -.8595E+06   C at   92  2   RLX: 0.000
       a = 15.750      CL =  0.0039
      Cm =  0.0513     CD =  0.04169   =>   CDf =  0.00132    CDp =  0.04036

 MRCHDU: Convergence failed at  89  side 2    Res =  0.2820E+01
 Side 1  free  transition at x/c =  0.0291   18
 Side 2  free  transition at x/c =  0.9685   71

 126   rms: 0.1439E+06   max: -.1378E+07   C at   92  2   RLX: 0.000
       a = 15.750      CL =  0.0039
      Cm =  0.0513     CD =  0.04169   =>   CDf =  0.00132    CDp =  0.04037

 MRCHDU: Convergence failed at  89  side 2    Res =  0.2870E+01
 Side 1  free  transition at x/c =  0.0291   18
 Side 2  free  transition at x/c =  0.9685   71

 127   rms: 0.2479E+06   max: -.2374E+07   C at   92  2   RLX: 0.000
       a = 15.750      CL =  0.0039
      Cm =  0.0513     CD =  0.04169   =>   CDf =  0.00132    CDp =  0.04037

 MRCHDU: Convergence failed at  89  side 2    Res =  0.2920E+01
 Side 1  free  transition at x/c =  0.0291   18
 Side 2  free  transition at x/c =  0.9685   71

 128   rms: 0.2164E+07   max: 0.2072E+08   C at   92  2   RLX: 0.000
       a = 15.750      CL =  0.0039
      Cm =  0.0513     CD =  0.04168   =>   CDf =  0.00132    CDp =  0.04036

 MRCHDU: Convergence failed at  89  side 2    Res =  0.2777E+01
 Side 1  free  transition at x/c =  0.0291   18
 Side 2  free  transition at x/c =  0.9685   71

 129   rms: 0.8931E+05   max: -.8551E+06   C at   92  2   RLX: 0.000
       a = 15.750      CL =  0.0039
      Cm =  0.0513     CD =  0.04169   =>   CDf =  0.00132    CDp =  0.04036

 MRCHDU: Convergence failed at  89  side 2    Res =  0.2827E+01
 Side 1  free  transition at x/c =  0.0291   18
 Side 2  free  transition at x/c =  0.9685   71

 130   rms: 0.1557E+06   max: -.1491E+07   C at   92  2   RLX: 0.000
       a = 15.750      CL =  0.0039
      Cm =  0.0513     CD =  0.04169   =>   CDf =  0.00132    CDp =  0.04037

 MRCHDU: Convergence failed at  89  side 2    Res =  0.2877E+01
 Side 1  free  transition at x/c =  0.0291   18
 Side 2  free  transition at x/c =  0.9685   71

 131   rms: 0.3307E+06   max: -.3167E+07   C at   92  2   RLX: 0.000
       a = 15.750      CL =  0.0039
      Cm =  0.0513     CD =  0.04169   =>   CDf =  0.00132    CDp =  0.04037

 MRCHDU: Convergence failed at  89  side 2    Res =  0.2927E+01
 Side 1  free  transition at x/c =  0.0291   18
 Side 2  free  transition at x/c =  0.9685   71

 132   rms: 0.8898E+06   max: 0.8520E+07   C at   92  2   RLX: 0.000
       a = 15.750      CL =  0.0039
      Cm =  0.0513     CD =  0.04168   =>   CDf =  0.00132    CDp =  0.04036

 MRCHDU: Convergence failed at  89  side 2    Res =  0.2784E+01
 Side 1  free  transition at x/c =  0.0291   18
 Side 2  free  transition at x/c =  0.9685   71

 133   rms: 0.9202E+05   max: -.8811E+06   C at   92  2   RLX: 0.000
       a = 15.750      CL =  0.0039
      Cm =  0.0513     CD =  0.04169   =>   CDf =  0.00132    CDp =  0.04036

 MRCHDU: Convergence failed at  89  side 2    Res =  0.2834E+01
 Side 1  free  transition at x/c =  0.0291   18
 Side 2  free  transition at x/c =  0.9685   71

 134   rms: 0.1242E+06   max: -.1189E+07   C at   92  2   RLX: 0.000
       a = 15.750      CL =  0.0039
      Cm =  0.0513     CD =  0.04169   =>   CDf =  0.00132    CDp =  0.04037

 MRCHDU: Convergence failed at  89  side 2    Res =  0.2884E+01
 Side 1  free  transition at x/c =  0.0291   18
 Side 2  free  transition at x/c =  0.9685   71

 135   rms: 0.2860E+06   max: -.2739E+07   C at   92  2   RLX: 0.000
       a = 15.750      CL =  0.0039
      Cm =  0.0513     CD =  0.04169   =>   CDf =  0.00132    CDp =  0.04037

 MRCHDU: Convergence failed at  89  side 2    Res =  0.2934E+01
 Side 1  free  transition at x/c =  0.0291   18
 Side 2  free  transition at x/c =  0.9685   71

 136   rms: 0.5448E+07   max: 0.5217E+08   C at   92  2   RLX: 0.000
       a = 15.750      CL =  0.0039
      Cm =  0.0513     CD =  0.04168   =>   CDf =  0.00132    CDp =  0.04036

 MRCHDU: Convergence failed at  89  side 2    Res =  0.2791E+01
 Side 1  free  transition at x/c =  0.0291   18
 Side 2  free  transition at x/c =  0.9685   71

 137   rms: 0.8803E+05   max: -.8429E+06   C at   92  2   RLX: 0.000
       a = 15.750      CL =  0.0039
      Cm =  0.0513     CD =  0.04169   =>   CDf =  0.00132    CDp =  0.04036

 MRCHDU: Convergence failed at  89  side 2    Res =  0.2841E+01
 Side 1  free  transition at x/c =  0.0291   18
 Side 2  free  transition at x/c =  0.9685   71

 138   rms: 0.1336E+06   max: -.1279E+07   C at   92  2   RLX: 0.000
       a = 15.750      CL =  0.0039
      Cm =  0.0513     CD =  0.04169   =>   CDf =  0.00132    CDp =  0.04037

 MRCHDU: Convergence failed at  89  side 2    Res =  0.2891E+01
 Side 1  free  transition at x/c =  0.0291   18
 Side 2  free  transition at x/c =  0.9685   71

 139   rms: 0.3233E+06   max: -.3096E+07   C at   92  2   RLX: 0.000
       a = 15.750      CL =  0.0039
      Cm =  0.0513     CD =  0.04169   =>   CDf =  0.00132    CDp =  0.04037

 MRCHDU: Convergence failed at  89  side 2    Res =  0.2942E+01
 Side 1  free  transition at x/c =  0.0291   18
 Side 2  free  transition at x/c =  0.9685   71

 140   rms: 0.4758E+06   max: 0.4557E+07   C at   92  2   RLX: 0.000
       a = 15.750      CL =  0.0039
      Cm =  0.0513     CD =  0.04168   =>   CDf =  0.00132    CDp =  0.04036

 MRCHDU: Convergence failed at  89  side 2    Res =  0.2798E+01
 Side 1  free  transition at x/c =  0.0291   18
 Side 2  free  transition at x/c =  0.9685   71

 141   rms: 0.8452E+05   max: -.8093E+06   C at   92  2   RLX: 0.000
       a = 15.750      CL =  0.0039
      Cm =  0.0513     CD =  0.04169   =>   CDf =  0.00132    CDp =  0.04036

 MRCHDU: Convergence failed at  89  side 2    Res =  0.2848E+01
 Side 1  free  transition at x/c =  0.0291   18
 Side 2  free  transition at x/c =  0.9685   71

 142   rms: 0.1208E+06   max: -.1156E+07   C at   92  2   RLX: 0.000
       a = 15.750      CL =  0.0039
      Cm =  0.0513     CD =  0.04169   =>   CDf =  0.00132    CDp =  0.04037

 MRCHDU: Convergence failed at  89  side 2    Res =  0.2898E+01
 Side 1  free  transition at x/c =  0.0291   18
 Side 2  free  transition at x/c =  0.9685   71

 143   rms: 0.3290E+06   max: -.3151E+07   C at   92  2   RLX: 0.000
       a = 15.750      CL =  0.0039
      Cm =  0.0513     CD =  0.04169   =>   CDf =  0.00132    CDp =  0.04037

 MRCHDU: Convergence failed at  89  side 2    Res =  0.2949E+01
 Side 1  free  transition at x/c =  0.0291   18
 Side 2  free  transition at x/c =  0.9685   71

 144   rms: 0.6010E+07   max: 0.5755E+08   C at   92  2   RLX: 0.000
       a = 15.750      CL =  0.0039
      Cm =  0.0513     CD =  0.04168   =>   CDf =  0.00132    CDp =  0.04036

 MRCHDU: Convergence failed at  89  side 2    Res =  0.2805E+01
 Side 1  free  transition at x/c =  0.0291   18
 Side 2  free  transition at x/c =  0.9685   71

 145   rms: 0.9171E+05   max: -.8781E+06   C at   92  2   RLX: 0.000
       a = 15.750      CL =  0.0039
      Cm =  0.0513     CD =  0.04169   =>   CDf =  0.00132    CDp =  0.04036

 MRCHDU: Convergence failed at  89  side 2    Res =  0.2855E+01
 Side 1  free  transition at x/c =  0.0291   18
 Side 2  free  transition at x/c =  0.9685   71

 146   rms: 0.1387E+06   max: -.1328E+07   C at   92  2   RLX: 0.000
       a = 15.750      CL =  0.0039
      Cm =  0.0513     CD =  0.04169   =>   CDf =  0.00132    CDp =  0.04037

 MRCHDU: Convergence failed at  89  side 2    Res =  0.2906E+01
 Side 1  free  transition at x/c =  0.0291   18
 Side 2  free  transition at x/c =  0.9685   71

 147   rms: 0.2576E+06   max: -.2467E+07   C at   92  2   RLX: 0.000
       a = 15.750      CL =  0.0039
      Cm =  0.0513     CD =  0.04169   =>   CDf =  0.00132    CDp =  0.04037

 MRCHDU: Convergence failed at  89  side 2    Res =  0.2956E+01
 Side 1  free  transition at x/c =  0.0291   18
 Side 2  free  transition at x/c =  0.9685   71

 148   rms: 0.6325E+06   max: 0.6057E+07   C at   92  2   RLX: 0.000
       a = 15.750      CL =  0.0039
      Cm =  0.0513     CD =  0.04168   =>   CDf =  0.00132    CDp =  0.04036

 MRCHDU: Convergence failed at  89  side 2    Res =  0.2812E+01
 Side 1  free  transition at x/c =  0.0291   18
 Side 2  free  transition at x/c =  0.9685   71

 149   rms: 0.8494E+05   max: -.8133E+06   C at   92  2   RLX: 0.000
       a = 15.750      CL =  0.0039
      Cm =  0.0513     CD =  0.04169   =>   CDf =  0.00132    CDp =  0.04036

 MRCHDU: Convergence failed at  89  side 2    Res =  0.2862E+01
 Side 1  free  transition at x/c =  0.0291   18
 Side 2  free  transition at x/c =  0.9685   71

 150   rms: 0.1290E+06   max: -.1236E+07   C at   92  2   RLX: 0.000
       a = 15.750      CL =  0.0039
      Cm =  0.0513     CD =  0.04169   =>   CDf =  0.00132    CDp =  0.04037

 MRCHDU: Convergence failed at  89  side 2    Res =  0.2912E+01
 Side 1  free  transition at x/c =  0.0291   18
 Side 2  free  transition at x/c =  0.9685   71

 151   rms: 0.2706E+06   max: -.2591E+07   C at   92  2   RLX: 0.000
       a = 15.750      CL =  0.0039
      Cm =  0.0513     CD =  0.04169   =>   CDf =  0.00132    CDp =  0.04037

 MRCHDU: Convergence failed at  89  side 2    Res =  0.2963E+01
 Side 1  free  transition at x/c =  0.0291   18
 Side 2  free  transition at x/c =  0.9685   71

 152   rms: 0.1010E+07   max: -.9668E+07   C at   92  2   RLX: 0.000
       a = 15.750      CL =  0.0039
      Cm =  0.0513     CD =  0.04169   =>   CDf =  0.00132    CDp =  0.04037

 MRCHDU: Convergence failed at  89  side 2    Res =  0.3013E+01
 Side 1  free  transition at x/c =  0.0291   18
 Side 2  free  transition at x/c =  0.9685   71

 153   rms: 0.5538E+06   max: 0.5304E+07   C at   92  2   RLX: 0.000
       a = 15.750      CL =  0.0039
      Cm =  0.0513     CD =  0.04169   =>   CDf =  0.00132    CDp =  0.04036

 MRCHDU: Convergence failed at  89  side 2    Res =  0.2870E+01
 Side 1  free  transition at x/c =  0.0291   18
 Side 2  free  transition at x/c =  0.9685   71

 154   rms: 0.1287E+06   max: -.1232E+07   C at   92  2   RLX: 0.000
       a = 15.750      CL =  0.0039
      Cm =  0.0513     CD =  0.04169   =>   CDf =  0.00132    CDp =  0.04037

 MRCHDU: Convergence failed at  89  side 2    Res =  0.2920E+01
 Side 1  free  transition at x/c =  0.0291   18
 Side 2  free  transition at x/c =  0.9685   71

 155   rms: 0.2585E+06   max: -.2475E+07   C at   92  2   RLX: 0.000
       a = 15.750      CL =  0.0039
      Cm =  0.0513     CD =  0.04169   =>   CDf =  0.00132    CDp =  0.04037
 VISCAL:  Convergence failed

 Sequence halted since previous  4 points did not converge
 Last-converged  alpha =  14.750    CL =   0.89357

.OPERva   c>  
 Polar accumulation disabled

.OPERv   c>  
 XFOIL   c>  
 XFOIL   c>  