
 ===================================================
  XFOIL Version 6.99
  Copyright (C) 2000   Mark Drela, Harold Youngren

  This software comes with ABSOLUTELY NO WARRANTY,
    subject to the GNU General Public License.

  Caveat computor
 ===================================================

 File  xfoil.def  not found

   QUIT    Exit program

  .OPER    Direct operating point(s)
  .MDES    Complex mapping design routine
  .QDES    Surface speed design routine
  .GDES    Geometry design routine

   SAVE f  Write airfoil to labeled coordinate file
   PSAV f  Write airfoil to plain coordinate file
   ISAV f  Write airfoil to ISES coordinate file
   MSAV f  Write airfoil to MSES coordinate file
   REVE    Reverse written-airfoil node ordering

   LOAD f  Read buffer airfoil from coordinate file
   NACA i  Set NACA 4,5-digit airfoil and buffer airfoil
   INTE    Set buffer airfoil by interpolating two airfoils
   NORM    Buffer airfoil normalization toggle
   XYCM rr Change CM reference location, currently  0.25000 0.00000

   BEND    Display structural properties of current airfoil

   PCOP    Set current-airfoil panel nodes directly from buffer airfoil points
   PANE    Set current-airfoil panel nodes ( 160 ) based on curvature
  .PPAR    Show/change paneling

  .PLOP    Plotting options

   WDEF f  Write  current-settings file
   RDEF f  Reread current-settings file
   NAME s  Specify new airfoil name
   NINC    Increment name version number

   Z       Zoom    | (available in all menus)
   U       Unzoom  | 

 XFOIL   c>  
 Labeled airfoil file.  Name:  S9000 (9%)                                      

 Number of input coordinate points: 121
 Counterclockwise ordering
 Max thickness =     0.090079  at x =   0.282
 Max camber    =     0.023706  at x =   0.422

  LE  x,y  =  -0.00001  -0.00004  |   Chord =   1.00001
  TE  x,y  =   1.00000   0.00000  |

 Current airfoil nodes set from buffer airfoil nodes ( 121 )

 XFOIL   c>  
 XFOIL   c>  
 Sharp trailing edge

 Paneling parameters used...
   Number of panel nodes       160
   Panel bunching parameter    1.000
   TE/LE panel density ratio   0.150
   Refined-area/LE panel density ratio    0.200
   Top    side refined area x/c limits  1.000 1.000
   Bottom side refined area x/c limits  1.000 1.000

 XFOIL   c>  
.OPERi   c>  
 Xtr/c     =  1.0000    top    side
 Xtr/c     =  1.0000    bottom side
 Ncrit     =    9.00   ( 0.070 % turb. level )
 Vacc      =  0.0100

 Klag  =  5.6000     Uxwt  =    1.00
 A     =  6.7000     B     =  0.7500       KCt = 0.01485
 CtiniK=  1.8000     CtiniX=  3.3000

..VPAR   c>  
..VPAR   c>  
.OPERi   c>  
 M  =    0.0000
 Re =    400000

.OPERv   c>  
.OPERv   c>  
.OPERv   c>  
 Polar  1 newly created for accumulation
 Airfoil archived with polar: S9000 (9%)                                      

Enter  polar save filename  OR  <return> for no file   s>  
 New polar save file available

Enter  polar dump filename  OR  <return> for no file   s>  
 Polar dump file will NOT be written

 Polar accumulation enabled

.OPERva   c>   Calculating unit vorticity distributions ...
 Calculating wake trajectory ...
 Calculating source influence matrix ...

 Solving BL system ...

 Initializing BL ...
    side            1  ...
 MRCHUE: Inverse mode at  66     Hk =   4.151
 MRCHUE: Inverse mode at  67     Hk =   4.561
 MRCHUE: Inverse mode at  68     Hk =   4.966
 MRCHUE: Inverse mode at  69     Hk =   5.366
 MRCHUE: Inverse mode at  70     Hk =   5.760
 MRCHUE: Inverse mode at  71     Hk =   6.150
 MRCHUE: Inverse mode at  72     Hk =   6.532
 MRCHUE: Inverse mode at  73     Hk =   6.906
 MRCHUE: Inverse mode at  74     Hk =   7.275
 MRCHUE: Inverse mode at  75     Hk =   7.628
 MRCHUE: Inverse mode at  76     Hk =   7.922
 MRCHUE: Inverse mode at  77     Hk =   7.824
    side            2  ...
 MRCHUE: Inverse mode at   9     Hk =   4.199
 MRCHUE: Inverse mode at  10     Hk =   5.512
 MRCHUE: Inverse mode at  11     Hk =   6.620
 MRCHUE: Inverse mode at  12     Hk =   7.720
 MRCHUE: Inverse mode at  13     Hk =   8.933
 MRCHUE: Inverse mode at  14     Hk =  10.346
 MRCHUE: Inverse mode at  15     Hk =   3.248
 MRCHUE: Inverse mode at  16     Hk =   2.500

 Side 1  free  transition at x/c =  0.9985   77
 Side 2  free  transition at x/c =  0.0167   15

   1   rms: 0.1029E+00   max: 0.7197E+00   T at   77  1   RLX: 0.983
       a = -4.000      CL = -0.1644
      Cm = -0.0642     CD =  0.01147   =>   CDf =  0.00614    CDp =  0.00533

 MRCHDU: Convergence failed at  15  side 2    Res =  0.4725E+01
 MRCHDU: Convergence failed at  16  side 2    Res =  0.3099E+01
 MRCHDU: Convergence failed at  17  side 2    Res =  0.3813E+01
 MRCHDU: Convergence failed at  18  side 2    Res =  0.6005E+01
 MRCHDU: Convergence failed at  19  side 2    Res =  0.7690E+01
 MRCHDU: Convergence failed at  20  side 2    Res =  0.8451E+01
 MRCHDU: Convergence failed at  21  side 2    Res =  0.8059E+01
 MRCHDU: Convergence failed at  22  side 2    Res =  0.2604E+02
 MRCHDU: Convergence failed at  23  side 2    Res =  0.3084E+02
 MRCHDU: Convergence failed at  24  side 2    Res =  0.4585E+03
 MRCHDU: Convergence failed at  25  side 2    Res =  0.1334E+03
 MRCHDU: Convergence failed at  26  side 2    Res =  0.2255E+03
 MRCHDU: Convergence failed at  27  side 2    Res =  0.1723E+03
 MRCHDU: Convergence failed at  28  side 2    Res =  0.3422E+04
 MRCHDU: Convergence failed at  29  side 2    Res =  0.1785E+03
 MRCHDU: Convergence failed at  30  side 2    Res =  0.3473E+03
 MRCHDU: Convergence failed at  31  side 2    Res =  0.8649E+02
 MRCHDU: Convergence failed at  32  side 2    Res =  0.1291E+03
 MRCHDU: Convergence failed at  33  side 2    Res =  0.1903E+03
 MRCHDU: Convergence failed at  34  side 2    Res =  0.1099E+03
 MRCHDU: Convergence failed at  35  side 2    Res =  0.5937E+02
 MRCHDU: Convergence failed at  36  side 2    Res =  0.1562E+03
 MRCHDU: Convergence failed at  37  side 2    Res =  0.3047E+04
 MRCHDU: Convergence failed at  38  side 2    Res =  0.4822E+03
 MRCHDU: Convergence failed at  39  side 2    Res =  0.2523E+02
 MRCHDU: Convergence failed at  40  side 2    Res =  0.2538E+02
 MRCHDU: Convergence failed at  41  side 2    Res =  0.2469E+02
 MRCHDU: Convergence failed at  42  side 2    Res =  0.2422E+02
 MRCHDU: Convergence failed at  43  side 2    Res =  0.3054E+02
 MRCHDU: Convergence failed at  44  side 2    Res =  0.3356E+02
 MRCHDU: Convergence failed at  45  side 2    Res =  0.3547E+02
 MRCHDU: Convergence failed at  46  side 2    Res =  0.4273E+02
 MRCHDU: Convergence failed at  47  side 2    Res =  0.4991E+02
 MRCHDU: Convergence failed at  48  side 2    Res =  0.6266E+02
 MRCHDU: Convergence failed at  49  side 2    Res =  0.4591E+02
 MRCHDU: Convergence failed at  50  side 2    Res =  0.4662E+02
 MRCHDU: Convergence failed at  51  side 2    Res =  0.4698E+02
 MRCHDU: Convergence failed at  52  side 2    Res =  0.2608E+02
 MRCHDU: Convergence failed at  53  side 2    Res =  0.2669E+02
 MRCHDU: Convergence failed at  54  side 2    Res =  0.2739E+02
 MRCHDU: Convergence failed at  55  side 2    Res =  0.2804E+02
 MRCHDU: Convergence failed at  56  side 2    Res =  0.2878E+02
 MRCHDU: Convergence failed at  57  side 2    Res =  0.2953E+02
 MRCHDU: Convergence failed at  58  side 2    Res =  0.3038E+02
 MRCHDU: Convergence failed at  59  side 2    Res =  0.3162E+02
 MRCHDU: Convergence failed at  60  side 2    Res =  0.3313E+02
 MRCHDU: Convergence failed at  61  side 2    Res =  0.3844E+02
 MRCHDU: Convergence failed at  62  side 2    Res =  0.4052E+02
 MRCHDU: Convergence failed at  63  side 2    Res =  0.4307E+02
 MRCHDU: Convergence failed at  64  side 2    Res =  0.5124E+02
 MRCHDU: Convergence failed at  65  side 2    Res =  0.3483E+02
 MRCHDU: Convergence failed at  66  side 2    Res =  0.6621E+02
 MRCHDU: Convergence failed at  67  side 2    Res =  0.8839E+02
 MRCHDU: Convergence failed at  68  side 2    Res =  0.9878E+02
 MRCHDU: Convergence failed at  69  side 2    Res =  0.1111E+03
 MRCHDU: Convergence failed at  70  side 2    Res =  0.3727E+02
 MRCHDU: Convergence failed at  71  side 2    Res =  0.3912E+02
 MRCHDU: Convergence failed at  72  side 2    Res =  0.4102E+02
 MRCHDU: Convergence failed at  73  side 2    Res =  0.7172E+02
 MRCHDU: Convergence failed at  74  side 2    Res =  0.7647E+02
 MRCHDU: Convergence failed at  75  side 2    Res =  0.8124E+02
 MRCHDU: Convergence failed at  76  side 2    Res =  0.8184E+02
 MRCHDU: Convergence failed at  77  side 2    Res =  0.8559E+02
 MRCHDU: Convergence failed at  78  side 2    Res =  0.8835E+02
 MRCHDU: Convergence failed at  79  side 2    Res =  0.8964E+02
 MRCHDU: Convergence failed at  80  side 2    Res =  0.8795E+02
 MRCHDU: Convergence failed at  81  side 2    Res =  0.4978E+02
 MRCHDU: Convergence failed at  82  side 2    Res =  0.3945E+02
 MRCHDU: Convergence failed at  83  side 2    Res =  0.3954E+02
 MRCHDU: Convergence failed at  84  side 2    Res =  0.4421E+02
 MRCHDU: Convergence failed at  85  side 2    Res =  0.3268E+04
 Side 1  free  transition at x/c =  0.9772   75
 Side 2  free  transition at x/c =  0.0152   14

   2   rms: 0.1427E+01   max: 0.4492E+01   D at   87  2   RLX: 0.233
       a = -4.000      CL = -1.4872
      Cm =  0.3434     CD =  0.00579   =>   CDf =  0.00166    CDp =  0.00413

 MRCHDU: Convergence failed at  21  side 2    Res =  0.4333E+00
 MRCHDU: Convergence failed at  23  side 2    Res =  0.5396E+00
 MRCHDU: Convergence failed at  24  side 2    Res =  0.5002E+00
 MRCHDU: Convergence failed at  25  side 2    Res =  0.4484E+00
 MRCHDU: Convergence failed at  26  side 2    Res =  0.3653E+00
 MRCHDU: Convergence failed at  27  side 2    Res =  0.4708E-01
 MRCHDU: Convergence failed at  88  side 2    Res =  0.2286E+01
 MRCHDU: Convergence failed at  89  side 2    Res =  0.3230E+02
 MRCHDU: Convergence failed at  90  side 2    Res =  0.1710E+01
 Side 1  free  transition at x/c =  0.9996   77
 Side 2  free  transition at x/c =  0.0159   15

   3   rms: 0.5461E+00   max: -.9437E+00   C at  101  2   RLX: 0.378
       a = -4.000      CL = -0.7069
      Cm =  0.1156     CD =  0.04581   =>   CDf =  0.00259    CDp =  0.04321

 MRCHDU: Convergence failed at  27  side 2    Res =  0.4244E+00
 MRCHDU: Convergence failed at  28  side 2    Res =  0.7203E+00
 MRCHDU: Convergence failed at  29  side 2    Res =  0.4756E+00
 MRCHDU: Convergence failed at  30  side 2    Res =  0.4476E+00
 MRCHDU: Convergence failed at  31  side 2    Res =  0.4166E+00
 MRCHDU: Convergence failed at  32  side 2    Res =  0.3829E+00
 MRCHDU: Convergence failed at  33  side 2    Res =  0.3480E+00
 MRCHDU: Convergence failed at  34  side 2    Res =  0.3122E+00
 MRCHDU: Convergence failed at  35  side 2    Res =  0.2749E+00
 MRCHDU: Convergence failed at  36  side 2    Res =  0.2366E+00
 MRCHDU: Convergence failed at  37  side 2    Res =  0.1970E+00
 MRCHDU: Convergence failed at  38  side 2    Res =  0.1550E+00
 MRCHDU: Convergence failed at  39  side 2    Res =  0.1100E+00
 MRCHDU: Convergence failed at  40  side 2    Res =  0.4921E-01
 MRCHDU: Convergence failed at  41  side 2    Res =  0.2408E+01
 Side 1 forced transition at x/c =  1.0000   77
 Side 2  free  transition at x/c =  0.0157   14

   4   rms: 0.8520E+00   max: 0.7370E+01   D at   40  2   RLX: 0.204
       a = -4.000      CL = -0.3954
      Cm =  0.0170     CD =  0.04561   =>   CDf =  0.00244    CDp =  0.04317

 Side 1  free  transition at x/c =  0.9840   76
 Side 2  free  transition at x/c =  0.0136   14
 idif Ue xi dudx           1  0.21355836      3.43060493E-03   62.250935    
 Uenew xinew           2  8.77149124E-03  1.40905380E-04

   5   rms: 0.7435E+00   max: -.3709E+01   D at   33  2   RLX: 0.135
       a = -4.000      CL = -0.2832
      Cm = -0.0046     CD =  0.04264   =>   CDf =  0.00283    CDp =  0.03981

 Side 1  free  transition at x/c =  0.9839   75
 Side 2  free  transition at x/c =  0.0133   15

   6   rms: 0.4180E+01   max: -.2551E+02   D at   34  2   RLX: 0.020
       a = -4.000      CL = -0.2647
      Cm = -0.0035     CD =  0.04144   =>   CDf =  0.00323    CDp =  0.03821

 MRCHDU: Convergence failed at  34  side 2    Res =  0.1839E+00
 MRCHDU: Convergence failed at  35  side 2    Res =  0.2657E+00
 MRCHDU: Convergence failed at  36  side 2    Res =  0.1992E+00
 Side 1  free  transition at x/c =  0.9849   75
 Side 2  free  transition at x/c =  0.0133   15

   7   rms: 0.3124E+01   max: 0.1839E+02   D at   38  2   RLX: 0.082
       a = -4.000      CL = -0.2355
      Cm = -0.0157     CD =  0.04366   =>   CDf =  0.00292    CDp =  0.04073

 Side 1  free  transition at x/c =  0.9820   75
 Side 2  free  transition at x/c =  0.0139   14
 idif Ue xi dudx           1  0.19557346      3.33273411E-03   58.682587    
 Uenew xinew           2  2.52537895E-03  4.30345535E-05

   8   rms: 0.1068E+01   max: -.5322E+01   D at   32  2   RLX: 0.094
       a = -4.000      CL = -0.1708
      Cm = -0.0258     CD =  0.03723   =>   CDf =  0.00280    CDp =  0.03443

 Side 1  free  transition at x/c =  0.9815   74
 Side 2  free  transition at x/c =  0.0136   15

   9   rms: 0.5089E+01   max: 0.4113E+02   T at    2  2   RLX: 0.017
       a = -4.000      CL = -0.1530
      Cm = -0.0261     CD =  0.03722   =>   CDf =  0.00327    CDp =  0.03395

 MRCHDU: Convergence failed at  33  side 2    Res =  0.9502E-01
 Side 1  free  transition at x/c =  0.9833   74
 Side 2  free  transition at x/c =  0.0137   15

  10   rms: 0.1070E+02   max: -.8085E+02   D at   33  2   RLX: 0.006
       a = -4.000      CL = -0.1543
      Cm = -0.0247     CD =  0.03714   =>   CDf =  0.00353    CDp =  0.03361

 MRCHDU: Convergence failed at  33  side 2    Res =  0.2717E+00
 MRCHDU: Convergence failed at  34  side 2    Res =  0.3876E+00
 MRCHDU: Convergence failed at  35  side 2    Res =  0.3272E+00
 MRCHDU: Convergence failed at  36  side 2    Res =  0.3010E+00
 MRCHDU: Convergence failed at  37  side 2    Res =  0.1309E+00
 MRCHDU: Convergence failed at  38  side 2    Res =  0.1680E+00
 MRCHDU: Convergence failed at  39  side 2    Res =  0.3602E+00
 MRCHDU: Convergence failed at  40  side 2    Res =  0.3856E+00
 MRCHDU: Convergence failed at  41  side 2    Res =  0.4104E+00
 MRCHDU: Convergence failed at  42  side 2    Res =  0.4512E+00
 MRCHDU: Convergence failed at  43  side 2    Res =  0.2329E+00
 MRCHDU: Convergence failed at  44  side 2    Res =  0.2245E+00
 MRCHDU: Convergence failed at  45  side 2    Res =  0.2101E+00
 MRCHDU: Convergence failed at  46  side 2    Res =  0.1937E+00
 MRCHDU: Convergence failed at  47  side 2    Res =  0.1760E+00
 MRCHDU: Convergence failed at  48  side 2    Res =  0.1568E+00
 MRCHDU: Convergence failed at  49  side 2    Res =  0.1366E+00
 MRCHDU: Convergence failed at  50  side 2    Res =  0.1155E+00
 MRCHDU: Convergence failed at  51  side 2    Res =  0.9374E-01
 Side 1  free  transition at x/c =  0.9848   75
 Side 2  free  transition at x/c =  0.0136   15

  11   rms: 0.2095E+01   max: 0.1703E+02   D at   51  2   RLX: 0.088
       a = -4.000      CL =  0.0072
      Cm = -0.0742     CD =  0.03702   =>   CDf =  0.00265    CDp =  0.03437

 Side 1  free  transition at x/c =  0.9807   75
 Side 2  free  transition at x/c =  0.0148   14
 idif Ue xi dudx           1  0.19746228      3.46314907E-03   57.018127    
 Uenew xinew           2  9.88976657E-03  1.73449516E-04

  12   rms: 0.1007E+02   max: -.4664E+02   D at   40  2   RLX: 0.011
       a = -4.000      CL =  0.0460
      Cm = -0.0843     CD =  0.03236   =>   CDf =  0.00267    CDp =  0.02969

 Side 1  free  transition at x/c =  0.9850   75
 Side 2  free  transition at x/c =  0.0146   15

  13   rms: 0.7447E+02   max: 0.3772E+03   D at   41  2   RLX: 0.002
       a = -4.000      CL =  0.0477
      Cm = -0.0877     CD =  0.03603   =>   CDf =  0.00333    CDp =  0.03270

 Side 1  free  transition at x/c =  0.9829   75
 Side 2  free  transition at x/c =  0.0149   14

  14   rms: 0.3335E+01   max: 0.1592E+02   D at   17  2   RLX: 0.079
       a = -4.000      CL = -0.0617
      Cm = -0.0783     CD =  0.05017   =>   CDf =  0.00239    CDp =  0.04777

 Side 1  free  transition at x/c =  0.9627   74
 Side 2  free  transition at x/c =  0.0150   14

  15   rms: 0.5714E+00   max: -.2140E+01   D at   30  2   RLX: 0.234
       a = -4.000      CL = -0.0269
      Cm = -0.0743     CD =  0.03173   =>   CDf =  0.00242    CDp =  0.02931

 Side 1  free  transition at x/c =  0.9626   74
 Side 2  free  transition at x/c =  0.0144   14

  16   rms: 0.1225E+01   max: -.7191E+01   D at   30  2   RLX: 0.070
       a = -4.000      CL = -0.0140
      Cm = -0.0753     CD =  0.02941   =>   CDf =  0.00267    CDp =  0.02674

 MRCHDU: Convergence failed at  30  side 2    Res =  0.7663E-01
 Side 1  free  transition at x/c =  0.9636   74
 Side 2  free  transition at x/c =  0.0145   14

  17   rms: 0.3786E+01   max: -.2760E+02   D at   30  2   RLX: 0.018
       a = -4.000      CL = -0.0136
      Cm = -0.0753     CD =  0.02798   =>   CDf =  0.00277    CDp =  0.02520

 MRCHDU: Convergence failed at  30  side 2    Res =  0.2592E+00
 MRCHDU: Convergence failed at  31  side 2    Res =  0.4675E+00
 MRCHDU: Convergence failed at  32  side 2    Res =  0.1827E+00
 MRCHDU: Convergence failed at  33  side 2    Res =  0.1652E+00
 MRCHDU: Convergence failed at  34  side 2    Res =  0.1394E+00
 MRCHDU: Convergence failed at  35  side 2    Res =  0.1116E+00
 MRCHDU: Convergence failed at  36  side 2    Res =  0.8223E-01
 MRCHDU: Convergence failed at  37  side 2    Res =  0.2843E+01
 MRCHDU: Convergence failed at  38  side 2    Res =  0.1963E+01
 MRCHDU: Convergence failed at  39  side 2    Res =  0.3958E+01
 Side 1  free  transition at x/c =  0.9620   74
 Side 2  free  transition at x/c =  0.0145   14

  18   rms: 0.2662E+02   max: 0.1806E+03   D at   36  2   RLX: 0.008
       a = -4.000      CL =  0.0633
      Cm = -0.0972     CD =  0.02933   =>   CDf =  0.00373    CDp =  0.02560

 Side 1  free  transition at x/c =  0.9578   74
 Side 2  free  transition at x/c =  0.0148   14

  19   rms: 0.1993E+02   max: -.9164E+02   D at   17  2   RLX: 0.005
       a = -4.000      CL =  0.0747
      Cm = -0.0868     CD =  0.02727   =>   CDf =  0.00323    CDp =  0.02404

 Side 1  free  transition at x/c =  0.9647   74
 Side 2  free  transition at x/c =  0.0156   14

  20   rms: 0.3722E+01   max: 0.1911E+02   D at   17  2   RLX: 0.079
       a = -4.000      CL =  0.0218
      Cm = -0.0913     CD =  0.03522   =>   CDf =  0.00316    CDp =  0.03207

 Side 1  free  transition at x/c =  0.9497   73
 Side 2  free  transition at x/c =  0.0152   14

  21   rms: 0.1128E+01   max: -.5001E+01   D at   30  2   RLX: 0.100
       a = -4.000      CL =  0.0405
      Cm = -0.0865     CD =  0.02637   =>   CDf =  0.00367    CDp =  0.02270

 Side 1  free  transition at x/c =  0.9513   73
 Side 2  free  transition at x/c =  0.0152   14

  22   rms: 0.1062E+01   max: -.6088E+01   D at   30  2   RLX: 0.082
       a = -4.000      CL =  0.0385
      Cm = -0.0847     CD =  0.02366   =>   CDf =  0.00418    CDp =  0.01948

 MRCHDU: Convergence failed at  30  side 2    Res =  0.6871E-01
 Side 1  free  transition at x/c =  0.9590   74
 Side 2  free  transition at x/c =  0.0157   14

  23   rms: 0.7429E+00   max: -.3382E+01   D at   30  2   RLX: 0.148
       a = -4.000      CL =  0.0018
      Cm = -0.0829     CD =  0.02025   =>   CDf =  0.00436    CDp =  0.01589

 MRCHDU: Convergence failed at  30  side 2    Res =  0.1339E+00
 MRCHDU: Convergence failed at  31  side 2    Res =  0.1591E+00
 MRCHDU: Convergence failed at  32  side 2    Res =  0.9586E-01
 Side 1  free  transition at x/c =  0.9559   73
 Side 2  free  transition at x/c =  0.0149   14
 idif Ue xi dudx           1  0.23399386      4.09245491E-03   57.176895    
 Uenew xinew           2  4.58990596E-02  8.02755356E-04

  24   rms: 0.1589E+01   max: 0.8227E+01   T at   73  1   RLX: 0.082
       a = -4.000      CL = -0.0543
      Cm = -0.0702     CD =  0.01867   =>   CDf =  0.00427    CDp =  0.01440

 MRCHDU: Convergence failed at  33  side 2    Res =  0.2158E+00
 Side 1  free  transition at x/c =  0.9330   71
 Side 2  free  transition at x/c =  0.0125   15

  25   rms: 0.1011E+01   max: -.4530E+01   D at   26  2   RLX: 0.110
       a = -4.000      CL = -0.0920
      Cm = -0.0639     CD =  0.01927   =>   CDf =  0.00414    CDp =  0.01513

 Side 1  free  transition at x/c =  0.9288   70
 Side 2  free  transition at x/c =  0.0119   15

  26   rms: 0.6464E+00   max: -.2885E+01   D at   28  2   RLX: 0.173
       a = -4.000      CL = -0.1218
      Cm = -0.0633     CD =  0.01744   =>   CDf =  0.00434    CDp =  0.01310

 Side 1  free  transition at x/c =  0.9330   71
 Side 2  free  transition at x/c =  0.0118   15

  27   rms: 0.4645E+00   max: -.1850E+01   D at   30  2   RLX: 0.270
       a = -4.000      CL = -0.1565
      Cm = -0.0618     CD =  0.01459   =>   CDf =  0.00472    CDp =  0.00987

 Side 1  free  transition at x/c =  0.9342   71
 Side 2  free  transition at x/c =  0.0117   15

  28   rms: 0.4289E+00   max: -.1474E+01   D at   56  2   RLX: 0.339
       a = -4.000      CL = -0.1804
      Cm = -0.0611     CD =  0.01281   =>   CDf =  0.00516    CDp =  0.00765

 MRCHDU: Convergence failed at  52  side 2    Res =  0.2098E+01
 Side 1  free  transition at x/c =  0.9382   71
 Side 2  free  transition at x/c =  0.0118   15

  29   rms: 0.2809E+00   max: -.1361E+01   T at   71  1   RLX: 0.367
       a = -4.000      CL = -0.1626
      Cm = -0.0641     CD =  0.01239   =>   CDf =  0.00595    CDp =  0.00643

 Side 1  free  transition at x/c =  0.9631   73
 Side 2  free  transition at x/c =  0.0129   15

  30   rms: 0.1331E+00   max: -.7312E+00   D at   33  2   RLX: 0.684
       a = -4.000      CL = -0.1787
      Cm = -0.0613     CD =  0.01187   =>   CDf =  0.00615    CDp =  0.00572

 Side 1  free  transition at x/c =  0.9661   74
 Side 2  free  transition at x/c =  0.0136   14

  31   rms: 0.6149E-01   max: -.6592E+00   D at    2  1   RLX: 0.758
       a = -4.000      CL = -0.1749
      Cm = -0.0616     CD =  0.01214   =>   CDf =  0.00621    CDp =  0.00593

 Side 1  free  transition at x/c =  0.9712   75
 Side 2  free  transition at x/c =  0.0142   14

  32   rms: 0.1337E-01   max: -.1084E+00   D at   32  2
       a = -4.000      CL = -0.1742
      Cm = -0.0615     CD =  0.01214   =>   CDf =  0.00629    CDp =  0.00585

 Side 1  free  transition at x/c =  0.9725   75
 Side 2  free  transition at x/c =  0.0144   14

  33   rms: 0.6750E-03   max: 0.5995E-02   D at   76  1
       a = -4.000      CL = -0.1743
      Cm = -0.0615     CD =  0.01214   =>   CDf =  0.00631    CDp =  0.00582

 Side 1  free  transition at x/c =  0.9724   75
 Side 2  free  transition at x/c =  0.0144   14

  34   rms: 0.5199E-05   max: -.4082E-04   D at   14  2
       a = -4.000      CL = -0.1743
      Cm = -0.0615     CD =  0.01214   =>   CDf =  0.00631    CDp =  0.00582
 plradd ia,ip,cpol            1           0  4.33855283E-04

 Point added to stored polar  1
 Point written to save file  s9000_Re400k.base.pol                           
 Dump file unspecified or not available
 Calculating wake trajectory ...
 Calculating source influence matrix ...

 Solving BL system ...

 Side 1  free  transition at x/c =  0.9724   75
 Side 2  free  transition at x/c =  0.0144   14

   1   rms: 0.1421E+00   max: -.8684E+00   T at   14  2   RLX: 0.576
       a = -3.500      CL = -0.1297
      Cm = -0.0641     CD =  0.01131   =>   CDf =  0.00631    CDp =  0.00500

 Side 1  free  transition at x/c =  0.9695   74
 Side 2  free  transition at x/c =  0.0198   15

   2   rms: 0.6282E-01   max: 0.8616E+00   D at   15  2
       a = -3.500      CL = -0.1267
      Cm = -0.0597     CD =  0.01074   =>   CDf =  0.00644    CDp =  0.00431

 Side 1  free  transition at x/c =  0.9507   73
 Side 2  free  transition at x/c =  0.0263   16

   3   rms: 0.1118E+00   max: 0.1196E+01   D at   16  2   RLX: 0.519
       a = -3.500      CL = -0.1071
      Cm = -0.0635     CD =  0.01094   =>   CDf =  0.00639    CDp =  0.00455

 Side 1  free  transition at x/c =  0.9628   74
 Side 2  free  transition at x/c =  0.0360   17

   4   rms: 0.2179E-01   max: 0.2368E+00   D at   17  2
       a = -3.500      CL = -0.1043
      Cm = -0.0645     CD =  0.01046   =>   CDf =  0.00633    CDp =  0.00413

 Side 1  free  transition at x/c =  0.9632   74
 Side 2  free  transition at x/c =  0.0407   17

   5   rms: 0.2676E-02   max: -.3322E-01   D at   17  2
       a = -3.500      CL = -0.1043
      Cm = -0.0644     CD =  0.01051   =>   CDf =  0.00632    CDp =  0.00419

 Side 1  free  transition at x/c =  0.9631   74
 Side 2  free  transition at x/c =  0.0409   17

   6   rms: 0.1388E-04   max: 0.1668E-03   T at   17  2
       a = -3.500      CL = -0.1043
      Cm = -0.0644     CD =  0.01051   =>   CDf =  0.00632    CDp =  0.00419
 plradd ia,ip,cpol            2           0  4.33855283E-04

 Point added to stored polar  1
 Point written to save file  s9000_Re400k.base.pol                           
 Dump file unspecified or not available
 Calculating wake trajectory ...
 Calculating source influence matrix ...

 Solving BL system ...

 Side 1  free  transition at x/c =  0.9631   74
 Side 2  free  transition at x/c =  0.0409   17

   1   rms: 0.1900E+00   max: 0.2147E+01   C at   17  2   RLX: 0.246
       a = -3.000      CL = -0.0858
      Cm = -0.0654     CD =  0.01037   =>   CDf =  0.00632    CDp =  0.00405

 MRCHDU: Convergence failed at  19  side 2    Res =  0.1239E+02
 MRCHDU: Convergence failed at  20  side 2    Res =  0.5848E+02
 MRCHDU: Convergence failed at  21  side 2    Res =  0.1544E+02
 MRCHDU: Convergence failed at  22  side 2    Res =  0.1533E+02
 MRCHDU: Convergence failed at  23  side 2    Res =  0.1534E+02
 MRCHDU: Convergence failed at  24  side 2    Res =  0.1212E+02
 MRCHDU: Convergence failed at  25  side 2    Res =  0.1510E+02
 MRCHDU: Convergence failed at  26  side 2    Res =  0.1669E+02
 MRCHDU: Convergence failed at  27  side 2    Res =  0.1991E+02
 MRCHDU: Convergence failed at  28  side 2    Res =  0.2836E+02
 MRCHDU: Convergence failed at  29  side 2    Res =  0.4389E+02
 MRCHDU: Convergence failed at  30  side 2    Res =  0.5910E+02
 MRCHDU: Convergence failed at  31  side 2    Res =  0.1350E+03
 MRCHDU: Convergence failed at  32  side 2    Res =  0.2110E+04
 MRCHDU: Convergence failed at  33  side 2    Res =  0.9557E+02
 MRCHDU: Convergence failed at  34  side 2    Res =  0.5613E+02
 MRCHDU: Convergence failed at  35  side 2    Res =  0.4066E+02
 MRCHDU: Convergence failed at  36  side 2    Res =  0.3349E+02
 MRCHDU: Convergence failed at  37  side 2    Res =  0.2634E+02
 MRCHDU: Convergence failed at  38  side 2    Res =  0.2180E+02
 MRCHDU: Convergence failed at  39  side 2    Res =  0.1979E+02
 MRCHDU: Convergence failed at  40  side 2    Res =  0.1724E+02
 MRCHDU: Convergence failed at  41  side 2    Res =  0.1563E+02
 MRCHDU: Convergence failed at  42  side 2    Res =  0.1486E+02
 MRCHDU: Convergence failed at  43  side 2    Res =  0.1417E+02
 MRCHDU: Convergence failed at  44  side 2    Res =  0.1361E+02
 MRCHDU: Convergence failed at  45  side 2    Res =  0.1244E+02
 MRCHDU: Convergence failed at  46  side 2    Res =  0.1207E+02
 MRCHDU: Convergence failed at  47  side 2    Res =  0.1180E+02
 MRCHDU: Convergence failed at  48  side 2    Res =  0.1130E+02
 MRCHDU: Convergence failed at  49  side 2    Res =  0.1095E+02
 MRCHDU: Convergence failed at  50  side 2    Res =  0.1074E+02
 MRCHDU: Convergence failed at  51  side 2    Res =  0.1055E+02
 MRCHDU: Convergence failed at  52  side 2    Res =  0.1040E+02
 MRCHDU: Convergence failed at  53  side 2    Res =  0.1025E+02
 MRCHDU: Convergence failed at  54  side 2    Res =  0.1008E+02
 MRCHDU: Convergence failed at  55  side 2    Res =  0.7945E+01
 MRCHDU: Convergence failed at  56  side 2    Res =  0.8110E+01
 MRCHDU: Convergence failed at  57  side 2    Res =  0.8266E+01
 MRCHDU: Convergence failed at  58  side 2    Res =  0.8414E+01
 MRCHDU: Convergence failed at  59  side 2    Res =  0.8727E+01
 MRCHDU: Convergence failed at  60  side 2    Res =  0.9112E+01
 MRCHDU: Convergence failed at  61  side 2    Res =  0.9553E+01
 MRCHDU: Convergence failed at  62  side 2    Res =  0.9971E+01
 MRCHDU: Convergence failed at  63  side 2    Res =  0.1043E+02
 MRCHDU: Convergence failed at  64  side 2    Res =  0.1094E+02
 MRCHDU: Convergence failed at  65  side 2    Res =  0.1149E+02
 MRCHDU: Convergence failed at  66  side 2    Res =  0.1199E+02
 MRCHDU: Convergence failed at  67  side 2    Res =  0.1259E+02
 MRCHDU: Convergence failed at  68  side 2    Res =  0.1326E+02
 MRCHDU: Convergence failed at  69  side 2    Res =  0.1377E+02
 MRCHDU: Convergence failed at  70  side 2    Res =  0.1451E+02
 MRCHDU: Convergence failed at  71  side 2    Res =  0.1525E+02
 MRCHDU: Convergence failed at  72  side 2    Res =  0.1608E+02
 MRCHDU: Convergence failed at  73  side 2    Res =  0.2094E+02
 MRCHDU: Convergence failed at  74  side 2    Res =  0.2189E+02
 MRCHDU: Convergence failed at  75  side 2    Res =  0.2274E+02
 MRCHDU: Convergence failed at  76  side 2    Res =  0.2057E+02
 MRCHDU: Convergence failed at  77  side 2    Res =  0.2132E+02
 MRCHDU: Convergence failed at  78  side 2    Res =  0.2222E+02
 MRCHDU: Convergence failed at  79  side 2    Res =  0.2330E+02
 MRCHDU: Convergence failed at  80  side 2    Res =  0.2130E+02
 MRCHDU: Convergence failed at  81  side 2    Res =  0.2132E+02
 MRCHDU: Convergence failed at  82  side 2    Res =  0.2123E+02
 MRCHDU: Convergence failed at  83  side 2    Res =  0.2275E+02
 MRCHDU: Convergence failed at  84  side 2    Res =  0.2004E+02
 MRCHDU: Convergence failed at  85  side 2    Res =  0.2152E+02
 Side 1  free  transition at x/c =  0.9608   74
 Side 2  free  transition at x/c =  0.0618   19

   2   rms: 0.5213E+00   max: -.4640E+00   U at   85  2   RLX: 0.365
       a = -3.000      CL = -0.5067
      Cm =  0.0847     CD =  0.00574   =>   CDf =  0.00192    CDp =  0.00382

 Side 1  free  transition at x/c =  0.9589   74
 Side 2  free  transition at x/c =  0.1393   25

   3   rms: 0.3767E+00   max: -.5760E+01   C at   25  2   RLX: 0.087
       a = -3.000      CL = -0.4561
      Cm =  0.0667     CD =  0.00759   =>   CDf =  0.00810    CDp = -0.00050

 Side 1  free  transition at x/c =  0.9587   74
 Side 2  free  transition at x/c =  0.1536   26

   4   rms: 0.1180E+01   max: -.2637E+02   C at   26  2   RLX: 0.019
       a = -3.000      CL = -0.4476
      Cm =  0.0638     CD =  0.00756   =>   CDf =  0.00777    CDp = -0.00021

 Side 1  free  transition at x/c =  0.9587   74
 Side 2  free  transition at x/c =  0.1566   26

   5   rms: 0.8170E+00   max: -.1774E+02   C at   26  2   RLX: 0.028
       a = -3.000      CL = -0.4345
      Cm =  0.0597     CD =  0.00758   =>   CDf =  0.00772    CDp = -0.00013

 Side 1  free  transition at x/c =  0.9587   74
 Side 2  free  transition at x/c =  0.1812   28

   6   rms: 0.1427E+01   max: -.3149E+02   C at   28  2   RLX: 0.016
       a = -3.000      CL = -0.4281
      Cm =  0.0574     CD =  0.00752   =>   CDf =  0.00754    CDp = -0.00002

 Side 1  free  transition at x/c =  0.9586   74
 Side 2  free  transition at x/c =  0.1779   27

   7   rms: 0.5394E+00   max: -.1052E+02   C at   27  2   RLX: 0.048
       a = -3.000      CL = -0.4072
      Cm =  0.0507     CD =  0.00759   =>   CDf =  0.00753    CDp =  0.00006

 Side 1  free  transition at x/c =  0.9585   74
 Side 2  free  transition at x/c =  0.1938   29

   8   rms: 0.5565E+00   max: -.1139E+02   C at   29  2   RLX: 0.044
       a = -3.000      CL = -0.3896
      Cm =  0.0449     CD =  0.00757   =>   CDf =  0.00736    CDp =  0.00021

 Side 1  free  transition at x/c =  0.9585   74
 Side 2  free  transition at x/c =  0.2066   29

   9   rms: 0.6394E+00   max: -.1279E+02   C at   29  2   RLX: 0.039
       a = -3.000      CL = -0.3744
      Cm =  0.0400     CD =  0.00758   =>   CDf =  0.00722    CDp =  0.00036

 Side 1  free  transition at x/c =  0.9584   74
 Side 2  free  transition at x/c =  0.2166   30

  10   rms: 0.4389E+00   max: -.8414E+01   C at   30  2   RLX: 0.059
       a = -3.000      CL = -0.3525
      Cm =  0.0329     CD =  0.00759   =>   CDf =  0.00710    CDp =  0.00049

 Side 1  free  transition at x/c =  0.9583   74
 Side 2  free  transition at x/c =  0.2291   31

  11   rms: 0.3223E+00   max: -.5562E+01   C at   31  2   RLX: 0.090
       a = -3.000      CL = -0.3216
      Cm =  0.0229     CD =  0.00763   =>   CDf =  0.00694    CDp =  0.00068

 Side 1  free  transition at x/c =  0.9582   74
 Side 2  free  transition at x/c =  0.2418   32

  12   rms: 0.2311E+00   max: -.3072E+01   C at   32  2   RLX: 0.163
       a = -3.000      CL = -0.2715
      Cm =  0.0068     CD =  0.00771   =>   CDf =  0.00678    CDp =  0.00093

 Side 1  free  transition at x/c =  0.9580   75
 Side 2  free  transition at x/c =  0.2503   31

  13   rms: 0.1909E+00   max: -.1754E+01   T at    2  1   RLX: 0.285
       a = -3.000      CL = -0.1993
      Cm = -0.0161     CD =  0.00794   =>   CDf =  0.00650    CDp =  0.00144

 Side 1  free  transition at x/c =  0.9577   75
 Side 2  free  transition at x/c =  0.2492   31

  14   rms: 0.1323E+00   max: 0.1107E+01   C at   31  2
       a = -3.000      CL = -0.0273
      Cm = -0.0696     CD =  0.00868   =>   CDf =  0.00619    CDp =  0.00249

 Side 1  free  transition at x/c =  0.9570   75
 Side 2  free  transition at x/c =  0.2029   28

  15   rms: 0.1244E-01   max: -.1641E+00   D at   28  2
       a = -3.000      CL = -0.0266
      Cm = -0.0696     CD =  0.00899   =>   CDf =  0.00566    CDp =  0.00333

 Side 1  free  transition at x/c =  0.9570   75
 Side 2  free  transition at x/c =  0.1882   27

  16   rms: 0.2346E-02   max: -.3722E-01   C at   27  2
       a = -3.000      CL = -0.0264
      Cm = -0.0696     CD =  0.00903   =>   CDf =  0.00570    CDp =  0.00333

 Side 1  free  transition at x/c =  0.9570   75
 Side 2  free  transition at x/c =  0.1883   27

  17   rms: 0.7486E-04   max: 0.1529E-02   C at   27  2
       a = -3.000      CL = -0.0264
      Cm = -0.0696     CD =  0.00903   =>   CDf =  0.00570    CDp =  0.00333
 plradd ia,ip,cpol            3           0  4.33855283E-04

 Point added to stored polar  1
 Point written to save file  s9000_Re400k.base.pol                           
 Dump file unspecified or not available
 Calculating wake trajectory ...
 Calculating source influence matrix ...

 Solving BL system ...

 Side 1  free  transition at x/c =  0.9570   75
 Side 2  free  transition at x/c =  0.1882   27

   1   rms: 0.3186E+00   max: -.6062E+01   C at   27  2   RLX: 0.082
       a = -2.500      CL = -0.0198
      Cm = -0.0701     CD =  0.00894   =>   CDf =  0.00570    CDp =  0.00323

 Side 1  free  transition at x/c =  0.9567   74
 Side 2  free  transition at x/c =  0.2041   28

   2   rms: 0.2036E+00   max: 0.2013E+01   T at   74  1   RLX: 0.258
       a = -2.500      CL = -0.0454
      Cm = -0.0616     CD =  0.00895   =>   CDf =  0.00565    CDp =  0.00330

 Side 1  free  transition at x/c =  0.9303   73
 Side 2  free  transition at x/c =  0.1885   27

   3   rms: 0.2753E+00   max: -.4869E+01   C at   27  2   RLX: 0.103
       a = -2.500      CL = -0.0387
      Cm = -0.0609     CD =  0.01023   =>   CDf =  0.00572    CDp =  0.00451

 Side 1  free  transition at x/c =  0.9317   73
 Side 2  free  transition at x/c =  0.2055   28

   4   rms: 0.2441E+00   max: -.4316E+01   C at   28  2   RLX: 0.116
       a = -2.500      CL = -0.0290
      Cm = -0.0623     CD =  0.00995   =>   CDf =  0.00566    CDp =  0.00429

 Side 1  free  transition at x/c =  0.9335   73
 Side 2  free  transition at x/c =  0.2217   30

   5   rms: 0.2553E+00   max: -.3723E+01   C at   30  2   RLX: 0.134
       a = -2.500      CL = -0.0184
      Cm = -0.0638     CD =  0.00961   =>   CDf =  0.00562    CDp =  0.00400

 Side 1  free  transition at x/c =  0.9357   73
 Side 2  free  transition at x/c =  0.2350   30

   6   rms: 0.1354E+00   max: -.1432E+01   C at   30  2   RLX: 0.349
       a = -2.500      CL =  0.0083
      Cm = -0.0678     CD =  0.00913   =>   CDf =  0.00558    CDp =  0.00355

 Side 1  free  transition at x/c =  0.9422   73
 Side 2  free  transition at x/c =  0.2792   34

   7   rms: 0.8572E-01   max: -.1054E+01   C at   34  2   RLX: 0.475
       a = -2.500      CL =  0.0049
      Cm = -0.0659     CD =  0.00864   =>   CDf =  0.00545    CDp =  0.00319

 Side 1  free  transition at x/c =  0.9316   73
 Side 2  free  transition at x/c =  0.2943   35

   8   rms: 0.1258E+00   max: -.1879E+01   C at   35  2   RLX: 0.266
       a = -2.500      CL =  0.0131
      Cm = -0.0668     CD =  0.00884   =>   CDf =  0.00538    CDp =  0.00345

 Side 1  free  transition at x/c =  0.9340   73
 Side 2  free  transition at x/c =  0.3080   35

   9   rms: 0.8025E-01   max: -.1232E+01   C at   35  2   RLX: 0.406
       a = -2.500      CL =  0.0248
      Cm = -0.0690     CD =  0.00855   =>   CDf =  0.00533    CDp =  0.00322

 Side 1  free  transition at x/c =  0.9379   73
 Side 2  free  transition at x/c =  0.3327   37

  10   rms: 0.1064E+00   max: -.1936E+01   C at   37  2   RLX: 0.258
       a = -2.500      CL =  0.0303
      Cm = -0.0702     CD =  0.00836   =>   CDf =  0.00522    CDp =  0.00313

 Side 1  free  transition at x/c =  0.9405   73
 Side 2  free  transition at x/c =  0.3424   38

  11   rms: 0.8764E-01   max: -.1506E+01   C at   38  2   RLX: 0.332
       a = -2.500      CL =  0.0381
      Cm = -0.0718     CD =  0.00819   =>   CDf =  0.00520    CDp =  0.00299

 Side 1  free  transition at x/c =  0.9444   74
 Side 2  free  transition at x/c =  0.3549   39

  12   rms: 0.4038E-01   max: -.7425E+00   C at   39  2   RLX: 0.673
       a = -2.500      CL =  0.0403
      Cm = -0.0723     CD =  0.00793   =>   CDf =  0.00517    CDp =  0.00277

 Side 1  free  transition at x/c =  0.9446   74
 Side 2  free  transition at x/c =  0.3693   40

  13   rms: 0.1949E-01   max: -.3640E+00   C at   40  2
       a = -2.500      CL =  0.0409
      Cm = -0.0723     CD =  0.00788   =>   CDf =  0.00511    CDp =  0.00277

 Side 1  free  transition at x/c =  0.9446   74
 Side 2  free  transition at x/c =  0.3804   40

  14   rms: 0.3853E-02   max: -.7253E-01   C at   40  2
       a = -2.500      CL =  0.0409
      Cm = -0.0723     CD =  0.00790   =>   CDf =  0.00507    CDp =  0.00282

 Side 1  free  transition at x/c =  0.9446   74
 Side 2  free  transition at x/c =  0.3816   41

  15   rms: 0.3140E-02   max: -.5695E-01   C at   41  2
       a = -2.500      CL =  0.0409
      Cm = -0.0723     CD =  0.00789   =>   CDf =  0.00507    CDp =  0.00282

 Side 1  free  transition at x/c =  0.9446   74
 Side 2  free  transition at x/c =  0.3823   41

  16   rms: 0.1461E-04   max: 0.2220E-03   C at   41  2
       a = -2.500      CL =  0.0409
      Cm = -0.0723     CD =  0.00789   =>   CDf =  0.00506    CDp =  0.00283
 plradd ia,ip,cpol            4           0  4.33855283E-04

 Point added to stored polar  1
 Point written to save file  s9000_Re400k.base.pol                           
 Dump file unspecified or not available
 Calculating wake trajectory ...
 Calculating source influence matrix ...

 Solving BL system ...

 Side 1  free  transition at x/c =  0.9446   74
 Side 2  free  transition at x/c =  0.3823   41

   1   rms: 0.3125E+00   max: -.5389E+01   C at   41  2   RLX: 0.093
       a = -2.000      CL =  0.0477
      Cm = -0.0727     CD =  0.00778   =>   CDf =  0.00506    CDp =  0.00271

 Side 1  free  transition at x/c =  0.9439   74
 Side 2  free  transition at x/c =  0.3953   42

   2   rms: 0.2580E+00   max: -.4137E+01   C at   42  2   RLX: 0.121
       a = -2.000      CL =  0.0565
      Cm = -0.0733     CD =  0.00769   =>   CDf =  0.00505    CDp =  0.00264

 Side 1  free  transition at x/c =  0.9431   73
 Side 2  free  transition at x/c =  0.4094   43

   3   rms: 0.1671E+00   max: -.2568E+01   C at   43  2   RLX: 0.195
       a = -2.000      CL =  0.0605
      Cm = -0.0723     CD =  0.00761   =>   CDf =  0.00502    CDp =  0.00259

 Side 1  free  transition at x/c =  0.9360   73
 Side 2  free  transition at x/c =  0.4242   44

   4   rms: 0.2088E+00   max: -.3422E+01   C at   44  2   RLX: 0.146
       a = -2.000      CL =  0.0669
      Cm = -0.0723     CD =  0.00766   =>   CDf =  0.00502    CDp =  0.00265

 Side 1  free  transition at x/c =  0.9350   74
 Side 2  free  transition at x/c =  0.4389   44

   5   rms: 0.2295E+00   max: -.3340E+01   C at   44  2   RLX: 0.150
       a = -2.000      CL =  0.0730
      Cm = -0.0727     CD =  0.00757   =>   CDf =  0.00492    CDp =  0.00265

 Side 1  free  transition at x/c =  0.9341   74
 Side 2  free  transition at x/c =  0.4539   45

   6   rms: 0.1843E+00   max: -.3154E+01   C at   45  2   RLX: 0.159
       a = -2.000      CL =  0.0786
      Cm = -0.0731     CD =  0.00748   =>   CDf =  0.00487    CDp =  0.00261

 Side 1  free  transition at x/c =  0.9334   74
 Side 2  free  transition at x/c =  0.4686   46

   7   rms: 0.1689E+00   max: -.2900E+01   C at   46  2   RLX: 0.172
       a = -2.000      CL =  0.0836
      Cm = -0.0734     CD =  0.00738   =>   CDf =  0.00482    CDp =  0.00256

 Side 1  free  transition at x/c =  0.9328   74
 Side 2  free  transition at x/c =  0.4833   47

   8   rms: 0.1531E+00   max: -.2651E+01   C at   47  2   RLX: 0.189
       a = -2.000      CL =  0.0881
      Cm = -0.0737     CD =  0.00730   =>   CDf =  0.00478    CDp =  0.00252

 Side 1  free  transition at x/c =  0.9322   74
 Side 2  free  transition at x/c =  0.4977   48

   9   rms: 0.1350E+00   max: -.2341E+01   C at   48  2   RLX: 0.214
       a = -2.000      CL =  0.0922
      Cm = -0.0739     CD =  0.00721   =>   CDf =  0.00473    CDp =  0.00248

 Side 1  free  transition at x/c =  0.9317   74
 Side 2  free  transition at x/c =  0.5121   49

  10   rms: 0.1168E+00   max: -.2033E+01   C at   49  2   RLX: 0.246
       a = -2.000      CL =  0.0959
      Cm = -0.0741     CD =  0.00714   =>   CDf =  0.00468    CDp =  0.00245

 Side 1  free  transition at x/c =  0.9312   74
 Side 2  free  transition at x/c =  0.5265   50

  11   rms: 0.9965E-01   max: -.1744E+01   C at   50  2   RLX: 0.287
       a = -2.000      CL =  0.0989
      Cm = -0.0743     CD =  0.00706   =>   CDf =  0.00464    CDp =  0.00243

 Side 1  free  transition at x/c =  0.9308   74
 Side 2  free  transition at x/c =  0.5412   51

  12   rms: 0.8269E-01   max: -.1456E+01   C at   51  2   RLX: 0.343
       a = -2.000      CL =  0.1015
      Cm = -0.0743     CD =  0.00699   =>   CDf =  0.00458    CDp =  0.00241

 Side 1  free  transition at x/c =  0.9305   74
 Side 2  free  transition at x/c =  0.5562   52

  13   rms: 0.6478E-01   max: -.1151E+01   C at   52  2   RLX: 0.434
       a = -2.000      CL =  0.1034
      Cm = -0.0744     CD =  0.00692   =>   CDf =  0.00453    CDp =  0.00240

 Side 1  free  transition at x/c =  0.9302   74
 Side 2  free  transition at x/c =  0.5719   53

  14   rms: 0.4443E-01   max: -.7962E+00   C at   53  2   RLX: 0.628
       a = -2.000      CL =  0.1047
      Cm = -0.0743     CD =  0.00686   =>   CDf =  0.00447    CDp =  0.00240

 Side 1  free  transition at x/c =  0.9300   74
 Side 2  free  transition at x/c =  0.5889   54

  15   rms: 0.2103E-01   max: -.3782E+00   C at   54  2
       a = -2.000      CL =  0.1053
      Cm = -0.0741     CD =  0.00682   =>   CDf =  0.00440    CDp =  0.00242

 Side 1  free  transition at x/c =  0.9298   74
 Side 2  free  transition at x/c =  0.6043   55

  16   rms: 0.2329E-02   max: -.4183E-01   C at   55  2
       a = -2.000      CL =  0.1053
      Cm = -0.0741     CD =  0.00683   =>   CDf =  0.00434    CDp =  0.00249

 Side 1  free  transition at x/c =  0.9298   74
 Side 2  free  transition at x/c =  0.6060   55

  17   rms: 0.1498E-04   max: -.1816E-03   C at   55  2
       a = -2.000      CL =  0.1053
      Cm = -0.0741     CD =  0.00683   =>   CDf =  0.00433    CDp =  0.00249
 plradd ia,ip,cpol            5           0  4.33855283E-04

 Point added to stored polar  1
 Point written to save file  s9000_Re400k.base.pol                           
 Dump file unspecified or not available
 Calculating wake trajectory ...
 Calculating source influence matrix ...

 Solving BL system ...

 Side 1  free  transition at x/c =  0.9299   74
 Side 2  free  transition at x/c =  0.6061   55

   1   rms: 0.3045E+00   max: -.5058E+01   C at   55  2   RLX: 0.099
       a = -1.500      CL =  0.1122
      Cm = -0.0744     CD =  0.00673   =>   CDf =  0.00434    CDp =  0.00240

 Side 1  free  transition at x/c =  0.9288   73
 Side 2  free  transition at x/c =  0.6271   57

   2   rms: 0.2145E+00   max: -.3494E+01   C at   57  2   RLX: 0.143
       a = -1.500      CL =  0.1171
      Cm = -0.0739     CD =  0.00664   =>   CDf =  0.00428    CDp =  0.00236

 Side 1  free  transition at x/c =  0.9234   73
 Side 2  free  transition at x/c =  0.6421   58

   3   rms: 0.1816E+00   max: -.2846E+01   C at   58  2   RLX: 0.176
       a = -1.500      CL =  0.1250
      Cm = -0.0739     CD =  0.00662   =>   CDf =  0.00426    CDp =  0.00236

 Side 1  free  transition at x/c =  0.9201   73
 Side 2  free  transition at x/c =  0.6587   59

   4   rms: 0.1410E+00   max: -.2146E+01   C at   59  2   RLX: 0.233
       a = -1.500      CL =  0.1345
      Cm = -0.0741     CD =  0.00656   =>   CDf =  0.00421    CDp =  0.00235

 Side 1  free  transition at x/c =  0.9172   73
 Side 2  free  transition at x/c =  0.6782   60

   5   rms: 0.9695E-01   max: -.1388E+01   C at   60  2   RLX: 0.360
       a = -1.500      CL =  0.1466
      Cm = -0.0744     CD =  0.00648   =>   CDf =  0.00416    CDp =  0.00232

 Side 1  free  transition at x/c =  0.9146   72
 Side 2  free  transition at x/c =  0.7065   62

   6   rms: 0.5112E-01   max: -.6888E+00   C at   62  2   RLX: 0.726
       a = -1.500      CL =  0.1565
      Cm = -0.0735     CD =  0.00639   =>   CDf =  0.00408    CDp =  0.00231

 Side 1  free  transition at x/c =  0.9056   72
 Side 2  free  transition at x/c =  0.7394   64

   7   rms: 0.1491E-01   max: 0.6430E-01   D at   63  2
       a = -1.500      CL =  0.1643
      Cm = -0.0739     CD =  0.00636   =>   CDf =  0.00403    CDp =  0.00233

 Side 1  free  transition at x/c =  0.9064   72
 Side 2  free  transition at x/c =  0.7575   66

   8   rms: 0.3169E-02   max: 0.3603E-01   C at   66  2
       a = -1.500      CL =  0.1635
      Cm = -0.0737     CD =  0.00634   =>   CDf =  0.00398    CDp =  0.00236

 Side 1  free  transition at x/c =  0.9061   72
 Side 2  free  transition at x/c =  0.7555   65

   9   rms: 0.5240E-03   max: -.5724E-02   D at   69  2
       a = -1.500      CL =  0.1634
      Cm = -0.0737     CD =  0.00634   =>   CDf =  0.00398    CDp =  0.00236

 Side 1  free  transition at x/c =  0.9061   72
 Side 2  free  transition at x/c =  0.7550   65

  10   rms: 0.9097E-05   max: -.1359E-03   C at   65  2
       a = -1.500      CL =  0.1634
      Cm = -0.0737     CD =  0.00634   =>   CDf =  0.00398    CDp =  0.00236
 plradd ia,ip,cpol            6           0  1.50855840E-03

 Point added to stored polar  1
 Point written to save file  s9000_Re400k.base.pol                           
 Dump file unspecified or not available
 Calculating wake trajectory ...
 Calculating source influence matrix ...

 Solving BL system ...

 Side 1  free  transition at x/c =  0.9061   72
 Side 2  free  transition at x/c =  0.7550   65

   1   rms: 0.1176E+00   max: -.6560E+00   C at   65  2   RLX: 0.762
       a = -1.000      CL =  0.2111
      Cm = -0.0741     CD =  0.00618   =>   CDf =  0.00402    CDp =  0.00217

 Side 1  free  transition at x/c =  0.8877   72
 Side 2  free  transition at x/c =  0.7985   67

   2   rms: 0.3118E-01   max: -.2108E+00   D at   72  1
       a = -1.000      CL =  0.2217
      Cm = -0.0734     CD =  0.00622   =>   CDf =  0.00404    CDp =  0.00218

 Side 1  free  transition at x/c =  0.8785   71
 Side 2  free  transition at x/c =  0.8323   70

   3   rms: 0.1326E-01   max: 0.1788E+00   C at   70  2
       a = -1.000      CL =  0.2191
      Cm = -0.0727     CD =  0.00619   =>   CDf =  0.00394    CDp =  0.00225

 Side 1  free  transition at x/c =  0.8779   71
 Side 2  free  transition at x/c =  0.8265   69

   4   rms: 0.2284E-02   max: -.2739E-01   D at   73  2
       a = -1.000      CL =  0.2185
      Cm = -0.0725     CD =  0.00617   =>   CDf =  0.00394    CDp =  0.00223

 Side 1  free  transition at x/c =  0.8779   71
 Side 2  free  transition at x/c =  0.8246   69

   5   rms: 0.1403E-03   max: -.1976E-02   C at   69  2
       a = -1.000      CL =  0.2185
      Cm = -0.0725     CD =  0.00617   =>   CDf =  0.00395    CDp =  0.00222

 Side 1  free  transition at x/c =  0.8779   71
 Side 2  free  transition at x/c =  0.8247   69

   6   rms: 0.9006E-06   max: 0.8134E-05   C at   71  1
       a = -1.000      CL =  0.2185
      Cm = -0.0725     CD =  0.00617   =>   CDf =  0.00395    CDp =  0.00222
 plradd ia,ip,cpol            7           0  0.17460537    

 Point added to stored polar  1
 Point written to save file  s9000_Re400k.base.pol                           
 Dump file unspecified or not available
 Calculating wake trajectory ...
 Calculating source influence matrix ...

 Solving BL system ...

 Side 1  free  transition at x/c =  0.8779   71
 Side 2  free  transition at x/c =  0.8247   69

   1   rms: 0.1014E+00   max: -.3811E+00   C at   69  2
       a = -0.500      CL =  0.2730
      Cm = -0.0712     CD =  0.00612   =>   CDf =  0.00398    CDp =  0.00214

 Side 1  free  transition at x/c =  0.8457   70
 Side 2  free  transition at x/c =  0.8587   71

   2   rms: 0.3111E-01   max: -.3739E+00   C at   71  2
       a = -0.500      CL =  0.2687
      Cm = -0.0703     CD =  0.00607   =>   CDf =  0.00413    CDp =  0.00194

 Side 1  free  transition at x/c =  0.8469   70
 Side 2  free  transition at x/c =  0.8700   71

   3   rms: 0.1348E-01   max: -.1695E+00   D at   72  2
       a = -0.500      CL =  0.2699
      Cm = -0.0706     CD =  0.00615   =>   CDf =  0.00405    CDp =  0.00210

 Side 1  free  transition at x/c =  0.8462   70
 Side 2  free  transition at x/c =  0.8750   72

   4   rms: 0.2779E-02   max: -.3268E-01   D at   71  2
       a = -0.500      CL =  0.2692
      Cm = -0.0704     CD =  0.00614   =>   CDf =  0.00401    CDp =  0.00213

 Side 1  free  transition at x/c =  0.8462   70
 Side 2  free  transition at x/c =  0.8733   72

   5   rms: 0.3250E-03   max: 0.4247E-02   C at   72  2
       a = -0.500      CL =  0.2692
      Cm = -0.0704     CD =  0.00614   =>   CDf =  0.00402    CDp =  0.00213

 Side 1  free  transition at x/c =  0.8462   70
 Side 2  free  transition at x/c =  0.8732   72

   6   rms: 0.1759E-05   max: -.2191E-04   D at   75  2
       a = -0.500      CL =  0.2692
      Cm = -0.0704     CD =  0.00614   =>   CDf =  0.00402    CDp =  0.00213
 plradd ia,ip,cpol            8           0  0.16089752    

 Point added to stored polar  1
 Point written to save file  s9000_Re400k.base.pol                           
 Dump file unspecified or not available
 Calculating wake trajectory ...
 Calculating source influence matrix ...

 Solving BL system ...

 Side 1  free  transition at x/c =  0.8462   70
 Side 2  free  transition at x/c =  0.8732   72

   1   rms: 0.1007E+00   max: -.5766E+00   C at   72  2   RLX: 0.867
       a =  0.000      CL =  0.3109
      Cm = -0.0678     CD =  0.00609   =>   CDf =  0.00402    CDp =  0.00207

 Side 1  free  transition at x/c =  0.8168   68
 Side 2  free  transition at x/c =  0.8959   73

   2   rms: 0.3000E-01   max: -.2931E+00   D at   74  2
       a =  0.000      CL =  0.3191
      Cm = -0.0684     CD =  0.00623   =>   CDf =  0.00417    CDp =  0.00206

 Side 1  free  transition at x/c =  0.8110   67
 Side 2  free  transition at x/c =  0.9235   75

   3   rms: 0.2498E-01   max: 0.3993E+00   C at   75  2
       a =  0.000      CL =  0.3155
      Cm = -0.0674     CD =  0.00616   =>   CDf =  0.00410    CDp =  0.00206

 Side 1  free  transition at x/c =  0.8110   67
 Side 2  free  transition at x/c =  0.9172   75

   4   rms: 0.4846E-02   max: -.6499E-01   D at   78  2
       a =  0.000      CL =  0.3157
      Cm = -0.0674     CD =  0.00616   =>   CDf =  0.00410    CDp =  0.00206

 Side 1  free  transition at x/c =  0.8110   67
 Side 2  free  transition at x/c =  0.9154   75

   5   rms: 0.2276E-03   max: -.3384E-02   D at   78  2
       a =  0.000      CL =  0.3157
      Cm = -0.0674     CD =  0.00616   =>   CDf =  0.00411    CDp =  0.00205

 Side 1  free  transition at x/c =  0.8110   67
 Side 2  free  transition at x/c =  0.9154   75

   6   rms: 0.1655E-05   max: 0.1848E-04   C at   75  2
       a =  0.000      CL =  0.3157
      Cm = -0.0674     CD =  0.00616   =>   CDf =  0.00411    CDp =  0.00205
 plradd ia,ip,cpol            9           0  0.16089752    

 Point added to stored polar  1
 Point written to save file  s9000_Re400k.base.pol                           
 Dump file unspecified or not available
 Calculating wake trajectory ...
 Calculating source influence matrix ...

 Solving BL system ...

 Side 1  free  transition at x/c =  0.8110   67
 Side 2  free  transition at x/c =  0.9154   75

   1   rms: 0.9601E-01   max: -.6686E+00   C at   75  2   RLX: 0.748
       a =  0.500      CL =  0.3470
      Cm = -0.0642     CD =  0.00607   =>   CDf =  0.00412    CDp =  0.00195

 Side 1  free  transition at x/c =  0.7796   66
 Side 2  free  transition at x/c =  0.9352   75

   2   rms: 0.4234E-01   max: -.3135E+00   D at   67  1
       a =  0.500      CL =  0.3612
      Cm = -0.0644     CD =  0.00618   =>   CDf =  0.00427    CDp =  0.00192

 Side 1  free  transition at x/c =  0.7741   66
 Side 2  free  transition at x/c =  0.9658   77

   3   rms: 0.2387E-01   max: 0.3705E+00   C at   77  2
       a =  0.500      CL =  0.3639
      Cm = -0.0648     CD =  0.00619   =>   CDf =  0.00424    CDp =  0.00194

 Side 1  free  transition at x/c =  0.7738   66
 Side 2  free  transition at x/c =  0.9598   77

   4   rms: 0.4907E-02   max: 0.7008E-01   C at   77  2
       a =  0.500      CL =  0.3657
      Cm = -0.0652     CD =  0.00618   =>   CDf =  0.00425    CDp =  0.00194

 Side 1  free  transition at x/c =  0.7737   66
 Side 2  free  transition at x/c =  0.9576   77

   5   rms: 0.1741E-03   max: -.1725E-02   D at   80  2
       a =  0.500      CL =  0.3658
      Cm = -0.0653     CD =  0.00619   =>   CDf =  0.00425    CDp =  0.00194

 Side 1  free  transition at x/c =  0.7737   66
 Side 2  free  transition at x/c =  0.9576   77

   6   rms: 0.1077E-05   max: -.1008E-04   C at   66  1
       a =  0.500      CL =  0.3658
      Cm = -0.0653     CD =  0.00619   =>   CDf =  0.00425    CDp =  0.00193
 plradd ia,ip,cpol           10           0  0.10706552    

 Point added to stored polar  1
 Point written to save file  s9000_Re400k.base.pol                           
 Dump file unspecified or not available
 Calculating wake trajectory ...
 Calculating source influence matrix ...

 Solving BL system ...

 Side 1  free  transition at x/c =  0.7737   66
 Side 2  free  transition at x/c =  0.9576   77

   1   rms: 0.1118E+00   max: -.6026E+00   C at   77  2   RLX: 0.830
       a =  1.000      CL =  0.4223
      Cm = -0.0669     CD =  0.00626   =>   CDf =  0.00425    CDp =  0.00200

 Side 1  free  transition at x/c =  0.7422   63
 Side 2  free  transition at x/c =  0.9787   78

   2   rms: 0.3084E-01   max: 0.2089E+00   D at   65  1
       a =  1.000      CL =  0.4369
      Cm = -0.0682     CD =  0.00625   =>   CDf =  0.00441    CDp =  0.00185

 Side 1  free  transition at x/c =  0.7332   64
 Side 2  free  transition at x/c =  0.9939   78

   3   rms: 0.1668E-01   max: -.2695E+00   D at    2  1
       a =  1.000      CL =  0.4404
      Cm = -0.0690     CD =  0.00627   =>   CDf =  0.00444    CDp =  0.00183

 Side 1  free  transition at x/c =  0.7338   64
 Side 2  free  transition at x/c =  0.9918   78

   4   rms: 0.4664E-03   max: -.4520E-02   D at    4  1
       a =  1.000      CL =  0.4404
      Cm = -0.0690     CD =  0.00627   =>   CDf =  0.00443    CDp =  0.00184

 Side 1  free  transition at x/c =  0.7338   64
 Side 2  free  transition at x/c =  0.9917   78

   5   rms: 0.2169E-05   max: 0.2171E-04   D at    4  1
       a =  1.000      CL =  0.4404
      Cm = -0.0690     CD =  0.00627   =>   CDf =  0.00443    CDp =  0.00184
 plradd ia,ip,cpol           11           0  0.10706552    

 Point added to stored polar  1
 Point written to save file  s9000_Re400k.base.pol                           
 Dump file unspecified or not available
 Calculating wake trajectory ...
 Calculating source influence matrix ...

 Solving BL system ...

 Side 1  free  transition at x/c =  0.7338   64
 Side 2  free  transition at x/c =  0.9917   78

   1   rms: 0.1118E+00   max: -.2870E+00   C at   78  2
       a =  1.500      CL =  0.5183
      Cm = -0.0736     CD =  0.00642   =>   CDf =  0.00443    CDp =  0.00199

 Side 1  free  transition at x/c =  0.6816   60
 Side 2 forced transition at x/c =  1.0000   79

   2   rms: 0.6584E-01   max: -.6343E+00   C at   79  2   RLX: 0.788
       a =  1.500      CL =  0.4941
      Cm = -0.0687     CD =  0.00654   =>   CDf =  0.00473    CDp =  0.00180

 Side 1  free  transition at x/c =  0.6895   61
 Side 2 forced transition at x/c =  1.0000   79

   3   rms: 0.5966E-02   max: -.6085E-01   C at   61  1
       a =  1.500      CL =  0.4951
      Cm = -0.0689     CD =  0.00649   =>   CDf =  0.00469    CDp =  0.00180

 Side 1  free  transition at x/c =  0.6894   61
 Side 2 forced transition at x/c =  1.0000   79

   4   rms: 0.3500E-03   max: 0.4536E-02   C at   61  1
       a =  1.500      CL =  0.4951
      Cm = -0.0689     CD =  0.00649   =>   CDf =  0.00466    CDp =  0.00183

 Side 1  free  transition at x/c =  0.6893   61
 Side 2 forced transition at x/c =  1.0000   79

   5   rms: 0.1140E-05   max: 0.1365E-04   C at   79  2
       a =  1.500      CL =  0.4951
      Cm = -0.0689     CD =  0.00649   =>   CDf =  0.00467    CDp =  0.00183
 plradd ia,ip,cpol           12           0  9.41104516E-02

 Point added to stored polar  1
 Point written to save file  s9000_Re400k.base.pol                           
 Dump file unspecified or not available
 Calculating wake trajectory ...
 Calculating source influence matrix ...

 Solving BL system ...

 Side 1  free  transition at x/c =  0.6893   61
 Side 2 forced transition at x/c =  1.0000   79

   1   rms: 0.1043E+00   max: 0.8590E+00   C at   61  1
       a =  2.000      CL =  0.5437
      Cm = -0.0675     CD =  0.00688   =>   CDf =  0.00463    CDp =  0.00224

 Side 1  free  transition at x/c =  0.6405   58
 Side 2 forced transition at x/c =  1.0000   78

   2   rms: 0.2421E-01   max: 0.2792E+00   D at   61  1
       a =  2.000      CL =  0.5457
      Cm = -0.0679     CD =  0.00679   =>   CDf =  0.00494    CDp =  0.00185

 Side 1  free  transition at x/c =  0.6433   58
 Side 2 forced transition at x/c =  1.0000   78

   3   rms: 0.3728E-02   max: -.5275E-01   D at   61  1
       a =  2.000      CL =  0.5457
      Cm = -0.0679     CD =  0.00680   =>   CDf =  0.00488    CDp =  0.00192

 Side 1  free  transition at x/c =  0.6415   58
 Side 2 forced transition at x/c =  1.0000   78

   4   rms: 0.1001E-03   max: -.1979E-02   D at   61  1
       a =  2.000      CL =  0.5457
      Cm = -0.0679     CD =  0.00680   =>   CDf =  0.00489    CDp =  0.00191

 Side 1  free  transition at x/c =  0.6415   58
 Side 2 forced transition at x/c =  1.0000   78

   5   rms: 0.5999E-06   max: 0.4579E-05   D at    5  1
       a =  2.000      CL =  0.5457
      Cm = -0.0679     CD =  0.00680   =>   CDf =  0.00489    CDp =  0.00191
 plradd ia,ip,cpol           13           0  5.69677316E-02

 Point added to stored polar  1
 Point written to save file  s9000_Re400k.base.pol                           
 Dump file unspecified or not available
 Calculating wake trajectory ...
 Calculating source influence matrix ...

 Solving BL system ...

 Side 1  free  transition at x/c =  0.6415   58
 Side 2 forced transition at x/c =  1.0000   78

   1   rms: 0.9062E-01   max: -.2845E+00   C at   78  2
       a =  2.500      CL =  0.5984
      Cm = -0.0673     CD =  0.00704   =>   CDf =  0.00489    CDp =  0.00214

 Side 1  free  transition at x/c =  0.5883   55
 Side 2 forced transition at x/c =  1.0000   78

   2   rms: 0.2103E-01   max: 0.2759E+00   D at   57  1
       a =  2.500      CL =  0.5974
      Cm = -0.0670     CD =  0.00711   =>   CDf =  0.00520    CDp =  0.00192

 Side 1  free  transition at x/c =  0.5976   55
 Side 2 forced transition at x/c =  1.0000   78

   3   rms: 0.5485E-02   max: 0.8531E-01   C at   55  1
       a =  2.500      CL =  0.5976
      Cm = -0.0671     CD =  0.00714   =>   CDf =  0.00508    CDp =  0.00207

 Side 1  free  transition at x/c =  0.5943   55
 Side 2 forced transition at x/c =  1.0000   78

   4   rms: 0.1942E-03   max: -.2637E-02   D at   57  1
       a =  2.500      CL =  0.5976
      Cm = -0.0671     CD =  0.00715   =>   CDf =  0.00510    CDp =  0.00205

 Side 1  free  transition at x/c =  0.5944   55
 Side 2 forced transition at x/c =  1.0000   78

   5   rms: 0.9249E-06   max: -.6802E-05   C at   55  1
       a =  2.500      CL =  0.5976
      Cm = -0.0671     CD =  0.00715   =>   CDf =  0.00510    CDp =  0.00205
 plradd ia,ip,cpol           14           0  5.69677316E-02

 Point added to stored polar  1
 Point written to save file  s9000_Re400k.base.pol                           
 Dump file unspecified or not available
 Calculating wake trajectory ...
 Calculating source influence matrix ...

 Solving BL system ...

 Side 1  free  transition at x/c =  0.5944   55
 Side 2 forced transition at x/c =  1.0000   78

   1   rms: 0.9614E-01   max: 0.8012E+00   C at   55  1
       a =  3.000      CL =  0.6496
      Cm = -0.0664     CD =  0.00750   =>   CDf =  0.00501    CDp =  0.00250

 Side 1  free  transition at x/c =  0.5401   52
 Side 2 forced transition at x/c =  1.0000   77

   2   rms: 0.2553E-01   max: -.2637E+00   D at   53  1
       a =  3.000      CL =  0.6489
      Cm = -0.0662     CD =  0.00756   =>   CDf =  0.00537    CDp =  0.00219

 Side 1  free  transition at x/c =  0.5466   53
 Side 2 forced transition at x/c =  1.0000   77

   3   rms: 0.4889E-02   max: -.5280E-01   D at   55  1
       a =  3.000      CL =  0.6491
      Cm = -0.0663     CD =  0.00756   =>   CDf =  0.00529    CDp =  0.00227

 Side 1  free  transition at x/c =  0.5448   53
 Side 2 forced transition at x/c =  1.0000   77

   4   rms: 0.1584E-03   max: -.2953E-02   D at   55  1
       a =  3.000      CL =  0.6491
      Cm = -0.0663     CD =  0.00756   =>   CDf =  0.00530    CDp =  0.00226

 Side 1  free  transition at x/c =  0.5447   53
 Side 2 forced transition at x/c =  1.0000   77

   5   rms: 0.1608E-05   max: -.1764E-04   D at   55  1
       a =  3.000      CL =  0.6491
      Cm = -0.0663     CD =  0.00756   =>   CDf =  0.00530    CDp =  0.00226
 plradd ia,ip,cpol           15           0  4.57034260E-02

 Point added to stored polar  1
 Point written to save file  s9000_Re400k.base.pol                           
 Dump file unspecified or not available
 Calculating wake trajectory ...
 Calculating source influence matrix ...

 Solving BL system ...

 Side 1  free  transition at x/c =  0.5447   53
 Side 2 forced transition at x/c =  1.0000   77

   1   rms: 0.1070E+00   max: 0.1060E+01   C at   53  1   RLX: 0.917
       a =  3.500      CL =  0.6952
      Cm = -0.0653     CD =  0.00808   =>   CDf =  0.00530    CDp =  0.00279

 Side 1  free  transition at x/c =  0.4902   49
 Side 2 forced transition at x/c =  1.0000   77

   2   rms: 0.2430E-01   max: 0.2279E+00   D at   52  1
       a =  3.500      CL =  0.7004
      Cm = -0.0654     CD =  0.00799   =>   CDf =  0.00556    CDp =  0.00243

 Side 1  free  transition at x/c =  0.4908   49
 Side 2 forced transition at x/c =  1.0000   77

   3   rms: 0.4228E-02   max: 0.6614E-01   C at   49  1
       a =  3.500      CL =  0.7002
      Cm = -0.0654     CD =  0.00803   =>   CDf =  0.00550    CDp =  0.00253

 Side 1  free  transition at x/c =  0.4890   49
 Side 2 forced transition at x/c =  1.0000   77

   4   rms: 0.8234E-04   max: -.9707E-03   D at   52  1
       a =  3.500      CL =  0.7002
      Cm = -0.0654     CD =  0.00803   =>   CDf =  0.00552    CDp =  0.00251
 plradd ia,ip,cpol           16           0  1.86179299E-02

 Point added to stored polar  1
 Point written to save file  s9000_Re400k.base.pol                           
 Dump file unspecified or not available
 Calculating wake trajectory ...
 Calculating source influence matrix ...

 Solving BL system ...

 Side 1  free  transition at x/c =  0.4890   49
 Side 2 forced transition at x/c =  1.0000   77

   1   rms: 0.1148E+00   max: 0.1278E+01   C at   49  1   RLX: 0.795
       a =  4.000      CL =  0.7395
      Cm = -0.0645     CD =  0.00855   =>   CDf =  0.00537    CDp =  0.00319

 Side 1  free  transition at x/c =  0.4441   47
 Side 2 forced transition at x/c =  1.0000   76

   2   rms: 0.3020E-01   max: 0.2278E+00   D at    2  1
       a =  4.000      CL =  0.7510
      Cm = -0.0645     CD =  0.00858   =>   CDf =  0.00570    CDp =  0.00288

 Side 1  free  transition at x/c =  0.4348   46
 Side 2 forced transition at x/c =  1.0000   76

   3   rms: 0.1430E-02   max: -.2599E-01   D at   47  1
       a =  4.000      CL =  0.7513
      Cm = -0.0646     CD =  0.00855   =>   CDf =  0.00570    CDp =  0.00285

 Side 1  free  transition at x/c =  0.4343   46
 Side 2 forced transition at x/c =  1.0000   76

   4   rms: 0.1203E-04   max: -.2383E-03   D at   47  1
       a =  4.000      CL =  0.7513
      Cm = -0.0646     CD =  0.00856   =>   CDf =  0.00570    CDp =  0.00285
 plradd ia,ip,cpol           17           0  1.86179299E-02

 Point added to stored polar  1
 Point written to save file  s9000_Re400k.base.pol                           
 Dump file unspecified or not available
 Calculating wake trajectory ...
 Calculating source influence matrix ...

 Solving BL system ...

 Side 1  free  transition at x/c =  0.4343   46
 Side 2 forced transition at x/c =  1.0000   76

   1   rms: 0.1069E+00   max: 0.1170E+01   C at   46  1   RLX: 0.949
       a =  4.500      CL =  0.7994
      Cm = -0.0638     CD =  0.00911   =>   CDf =  0.00570    CDp =  0.00341

 Side 1  free  transition at x/c =  0.3793   42
 Side 2 forced transition at x/c =  1.0000   76

   2   rms: 0.2226E-01   max: 0.2093E+00   D at   45  1
       a =  4.500      CL =  0.8020
      Cm = -0.0638     CD =  0.00912   =>   CDf =  0.00595    CDp =  0.00317

 Side 1  free  transition at x/c =  0.3814   42
 Side 2 forced transition at x/c =  1.0000   76

   3   rms: 0.3521E-02   max: 0.5760E-01   C at   42  1
       a =  4.500      CL =  0.8019
      Cm = -0.0637     CD =  0.00915   =>   CDf =  0.00589    CDp =  0.00326

 Side 1  free  transition at x/c =  0.3797   42
 Side 2 forced transition at x/c =  1.0000   76

   4   rms: 0.5903E-04   max: -.6965E-03   D at   44  1
       a =  4.500      CL =  0.8019
      Cm = -0.0637     CD =  0.00915   =>   CDf =  0.00590    CDp =  0.00325
 plradd ia,ip,cpol           18           0  1.86179299E-02

 Point added to stored polar  1
 Point written to save file  s9000_Re400k.base.pol                           
 Dump file unspecified or not available
 Calculating wake trajectory ...
 Calculating source influence matrix ...

 Solving BL system ...

 Side 1  free  transition at x/c =  0.3797   42
 Side 2 forced transition at x/c =  1.0000   76

   1   rms: 0.1051E+00   max: 0.1152E+01   C at   42  1   RLX: 0.998
       a =  5.000      CL =  0.8529
      Cm = -0.0630     CD =  0.00975   =>   CDf =  0.00569    CDp =  0.00405

 Side 1  free  transition at x/c =  0.3239   39
 Side 2 forced transition at x/c =  1.0000   75

   2   rms: 0.2444E-01   max: -.2201E+00   C at   39  1
       a =  5.000      CL =  0.8522
      Cm = -0.0629     CD =  0.00978   =>   CDf =  0.00612    CDp =  0.00366

 Side 1  free  transition at x/c =  0.3283   39
 Side 2 forced transition at x/c =  1.0000   75

   3   rms: 0.3494E-02   max: 0.5433E-01   C at   39  1
       a =  5.000      CL =  0.8521
      Cm = -0.0629     CD =  0.00981   =>   CDf =  0.00606    CDp =  0.00375

 Side 1  free  transition at x/c =  0.3266   39
 Side 2 forced transition at x/c =  1.0000   75

   4   rms: 0.5489E-04   max: -.5460E-03   D at   41  1
       a =  5.000      CL =  0.8521
      Cm = -0.0629     CD =  0.00981   =>   CDf =  0.00607    CDp =  0.00374
 plradd ia,ip,cpol           19           0  1.86179299E-02

 Point added to stored polar  1
 Point written to save file  s9000_Re400k.base.pol                           
 Dump file unspecified or not available
 Calculating wake trajectory ...
 Calculating source influence matrix ...

 Solving BL system ...

 Side 1  free  transition at x/c =  0.3266   39
 Side 2 forced transition at x/c =  1.0000   75

   1   rms: 0.1041E+00   max: 0.1063E+01   C at   39  1   RLX: 0.990
       a =  5.500      CL =  0.9032
      Cm = -0.0623     CD =  0.01038   =>   CDf =  0.00607    CDp =  0.00430

 Side 1  free  transition at x/c =  0.2636   35
 Side 2 forced transition at x/c =  1.0000   75

   2   rms: 0.2567E-01   max: -.2623E+00   C at   35  1
       a =  5.500      CL =  0.9016
      Cm = -0.0620     CD =  0.01054   =>   CDf =  0.00636    CDp =  0.00418

 Side 1  free  transition at x/c =  0.2706   35
 Side 2 forced transition at x/c =  1.0000   75

   3   rms: 0.4629E-02   max: 0.8314E-01   C at   35  1
       a =  5.500      CL =  0.9014
      Cm = -0.0620     CD =  0.01059   =>   CDf =  0.00628    CDp =  0.00431

 Side 1  free  transition at x/c =  0.2682   35
 Side 2 forced transition at x/c =  1.0000   75

   4   rms: 0.1256E-03   max: -.1966E-02   C at   35  1
       a =  5.500      CL =  0.9013
      Cm = -0.0620     CD =  0.01059   =>   CDf =  0.00629    CDp =  0.00429

 Side 1  free  transition at x/c =  0.2682   35
 Side 2 forced transition at x/c =  1.0000   75

   5   rms: 0.7782E-06   max: -.3537E-05   D at    4  2
       a =  5.500      CL =  0.9013
      Cm = -0.0620     CD =  0.01059   =>   CDf =  0.00629    CDp =  0.00429
 plradd ia,ip,cpol           20           0  1.30046280E-02

 Point added to stored polar  1
 Point written to save file  s9000_Re400k.base.pol                           
 Dump file unspecified or not available
 Calculating wake trajectory ...
 Calculating source influence matrix ...

 Solving BL system ...

 Side 1  free  transition at x/c =  0.2682   35
 Side 2 forced transition at x/c =  1.0000   75

   1   rms: 0.1033E+00   max: 0.1102E+01   C at   35  1   RLX: 0.982
       a =  6.000      CL =  0.9513
      Cm = -0.0613     CD =  0.01125   =>   CDf =  0.00604    CDp =  0.00521

 Side 1  free  transition at x/c =  0.2214   33
 Side 2 forced transition at x/c =  1.0000   74

   2   rms: 0.2153E-01   max: -.2072E+00   D at   33  1
       a =  6.000      CL =  0.9509
      Cm = -0.0611     CD =  0.01135   =>   CDf =  0.00645    CDp =  0.00489

 Side 1  free  transition at x/c =  0.2228   33
 Side 2 forced transition at x/c =  1.0000   74

   3   rms: 0.3939E-02   max: 0.6819E-01   C at   33  1
       a =  6.000      CL =  0.9507
      Cm = -0.0611     CD =  0.01137   =>   CDf =  0.00641    CDp =  0.00496

 Side 1  free  transition at x/c =  0.2213   33
 Side 2 forced transition at x/c =  1.0000   74

   4   rms: 0.6359E-04   max: -.6884E-03   C at   33  1
       a =  6.000      CL =  0.9507
      Cm = -0.0611     CD =  0.01137   =>   CDf =  0.00643    CDp =  0.00495
 plradd ia,ip,cpol           21           0  2.23391457E-03

 Point added to stored polar  1
 Point written to save file  s9000_Re400k.base.pol                           
 Dump file unspecified or not available
 Calculating wake trajectory ...
 Calculating source influence matrix ...

 Solving BL system ...

 Side 1  free  transition at x/c =  0.2213   33
 Side 2 forced transition at x/c =  1.0000   74

   1   rms: 0.1109E+00   max: 0.1221E+01   C at   33  1   RLX: 0.773
       a =  6.500      CL =  0.9882
      Cm = -0.0603     CD =  0.01208   =>   CDf =  0.00643    CDp =  0.00566

 Side 1  free  transition at x/c =  0.1893   31
 Side 2 forced transition at x/c =  1.0000   74

   2   rms: 0.3017E-01   max: -.4206E+00   D at   31  1
       a =  6.500      CL =  0.9986
      Cm = -0.0600     CD =  0.01232   =>   CDf =  0.00653    CDp =  0.00578

 Side 1  free  transition at x/c =  0.1811   30
 Side 2 forced transition at x/c =  1.0000   74

   3   rms: 0.5640E-02   max: -.1240E+00   D at   31  1
       a =  6.500      CL =  0.9993
      Cm = -0.0601     CD =  0.01223   =>   CDf =  0.00653    CDp =  0.00570

 Side 1  free  transition at x/c =  0.1794   30
 Side 2 forced transition at x/c =  1.0000   74

   4   rms: 0.3731E-03   max: -.8072E-02   D at   31  1
       a =  6.500      CL =  0.9993
      Cm = -0.0601     CD =  0.01223   =>   CDf =  0.00655    CDp =  0.00569

 Side 1  free  transition at x/c =  0.1793   30
 Side 2 forced transition at x/c =  1.0000   74

   5   rms: 0.2446E-05   max: -.4620E-04   D at   31  1
       a =  6.500      CL =  0.9993
      Cm = -0.0601     CD =  0.01223   =>   CDf =  0.00655    CDp =  0.00569
 plradd ia,ip,cpol           22           0  1.15893281E-03

 Point added to stored polar  1
 Point written to save file  s9000_Re400k.base.pol                           
 Dump file unspecified or not available
 Calculating wake trajectory ...
 Calculating source influence matrix ...

 Solving BL system ...

 Side 1  free  transition at x/c =  0.1793   30
 Side 2 forced transition at x/c =  1.0000   74

   1   rms: 0.1120E+00   max: 0.1132E+01   C at   30  1   RLX: 0.717
       a =  7.000      CL =  1.0333
      Cm = -0.0593     CD =  0.01298   =>   CDf =  0.00624    CDp =  0.00673

 Side 1  free  transition at x/c =  0.1505   29
 Side 2 forced transition at x/c =  1.0000   73

   2   rms: 0.5156E-01   max: 0.6267E+00   T at    2  1
       a =  7.000      CL =  1.0464
      Cm = -0.0590     CD =  0.01326   =>   CDf =  0.00663    CDp =  0.00663

 Side 1  free  transition at x/c =  0.1407   28
 Side 2 forced transition at x/c =  1.0000   73

   3   rms: 0.7626E-02   max: -.1570E+00   D at   29  1
       a =  7.000      CL =  1.0468
      Cm = -0.0590     CD =  0.01320   =>   CDf =  0.00663    CDp =  0.00657

 Side 1  free  transition at x/c =  0.1390   28
 Side 2 forced transition at x/c =  1.0000   73

   4   rms: 0.5724E-03   max: -.1181E-01   D at   29  1
       a =  7.000      CL =  1.0467
      Cm = -0.0590     CD =  0.01321   =>   CDf =  0.00665    CDp =  0.00656

 Side 1  free  transition at x/c =  0.1388   28
 Side 2 forced transition at x/c =  1.0000   73

   5   rms: 0.3952E-05   max: -.8152E-04   D at   29  1
       a =  7.000      CL =  1.0467
      Cm = -0.0590     CD =  0.01321   =>   CDf =  0.00666    CDp =  0.00656
 plradd ia,ip,cpol           23           0  4.48399260E-06

 Point added to stored polar  1
 Point written to save file  s9000_Re400k.base.pol                           
 Dump file unspecified or not available
 Calculating wake trajectory ...
 Calculating source influence matrix ...

 Solving BL system ...

 Side 1  free  transition at x/c =  0.1388   28
 Side 2 forced transition at x/c =  1.0000   73

   1   rms: 0.1108E+00   max: 0.9881E+00   C at   28  1   RLX: 0.661
       a =  7.500      CL =  1.0772
      Cm = -0.0582     CD =  0.01399   =>   CDf =  0.00666    CDp =  0.00733

 Side 1  free  transition at x/c =  0.1165   26
 Side 2 forced transition at x/c =  1.0000   73

   2   rms: 0.3923E-01   max: -.3592E+00   D at   26  1
       a =  7.500      CL =  1.0938
      Cm = -0.0578     CD =  0.01422   =>   CDf =  0.00674    CDp =  0.00748

 Side 1  free  transition at x/c =  0.1028   25
 Side 2 forced transition at x/c =  1.0000   73

   3   rms: 0.1083E-01   max: -.1299E+00   D at   25  1
       a =  7.500      CL =  1.0929
      Cm = -0.0577     CD =  0.01429   =>   CDf =  0.00676    CDp =  0.00753

 Side 1  free  transition at x/c =  0.1031   25
 Side 2 forced transition at x/c =  1.0000   73

   4   rms: 0.6881E-03   max: 0.1179E-01   C at   25  1
       a =  7.500      CL =  1.0928
      Cm = -0.0577     CD =  0.01431   =>   CDf =  0.00676    CDp =  0.00755

 Side 1  free  transition at x/c =  0.1029   25
 Side 2 forced transition at x/c =  1.0000   73

   5   rms: 0.3804E-05   max: -.4343E-04   D at   26  1
       a =  7.500      CL =  1.0928
      Cm = -0.0577     CD =  0.01431   =>   CDf =  0.00676    CDp =  0.00755
 plradd ia,ip,cpol           24           0  4.48399260E-06

 Point added to stored polar  1
 Point written to save file  s9000_Re400k.base.pol                           
 Dump file unspecified or not available
 Calculating wake trajectory ...
 Calculating source influence matrix ...

 Solving BL system ...

 Side 1  free  transition at x/c =  0.1029   25
 Side 2 forced transition at x/c =  1.0000   73

   1   rms: 0.1003E+00   max: -.6720E+00   D at   25  1   RLX: 0.744
       a =  8.000      CL =  1.1279
      Cm = -0.0569     CD =  0.01508   =>   CDf =  0.00676    CDp =  0.00831

 Side 1  free  transition at x/c =  0.0814   23
 Side 2 forced transition at x/c =  1.0000   73

   2   rms: 0.3466E-01   max: -.4379E+00   C at   23  1
       a =  8.000      CL =  1.1381
      Cm = -0.0563     CD =  0.01548   =>   CDf =  0.00691    CDp =  0.00857

 Side 1  free  transition at x/c =  0.0750   23
 Side 2 forced transition at x/c =  1.0000   73

   3   rms: 0.1957E-02   max: -.2757E-01   D at   23  1
       a =  8.000      CL =  1.1374
      Cm = -0.0562     CD =  0.01554   =>   CDf =  0.00684    CDp =  0.00871

 Side 1  free  transition at x/c =  0.0744   23
 Side 2 forced transition at x/c =  1.0000   73

   4   rms: 0.1993E-04   max: -.3885E-03   D at   23  1
       a =  8.000      CL =  1.1373
      Cm = -0.0562     CD =  0.01554   =>   CDf =  0.00684    CDp =  0.00870
 plradd ia,ip,cpol           25           0  4.48399260E-06

 Point added to stored polar  1
 Point written to save file  s9000_Re400k.base.pol                           
 Dump file unspecified or not available
 Calculating wake trajectory ...
 Calculating source influence matrix ...

 Solving BL system ...

 Side 1  free  transition at x/c =  0.0744   23
 Side 2 forced transition at x/c =  1.0000   73

   1   rms: 0.1053E+00   max: -.8386E+00   D at   23  1   RLX: 0.596
       a =  8.500      CL =  1.1632
      Cm = -0.0553     CD =  0.01640   =>   CDf =  0.00649    CDp =  0.00991

 Side 1  free  transition at x/c =  0.0634   23
 Side 2 forced transition at x/c =  1.0000   72

   2   rms: 0.5366E-01   max: -.5397E+00   D at   23  1   RLX: 0.926
       a =  8.500      CL =  1.1835
      Cm = -0.0552     CD =  0.01635   =>   CDf =  0.00677    CDp =  0.00958

 Side 1  free  transition at x/c =  0.0569   22
 Side 2 forced transition at x/c =  1.0000   72

   3   rms: 0.8615E-02   max: -.8796E-01   D at   23  1
       a =  8.500      CL =  1.1802
      Cm = -0.0545     CD =  0.01689   =>   CDf =  0.00683    CDp =  0.01007

 Side 1  free  transition at x/c =  0.0559   22
 Side 2 forced transition at x/c =  1.0000   72

   4   rms: 0.3929E-03   max: 0.3248E-02   D at   22  1
       a =  8.500      CL =  1.1799
      Cm = -0.0545     CD =  0.01692   =>   CDf =  0.00683    CDp =  0.01008

 Side 1  free  transition at x/c =  0.0559   22
 Side 2 forced transition at x/c =  1.0000   72

   5   rms: 0.1367E-05   max: -.4920E-05   C at   72  2
       a =  8.500      CL =  1.1799
      Cm = -0.0545     CD =  0.01692   =>   CDf =  0.00683    CDp =  0.01008
 plradd ia,ip,cpol           26           0  4.48399260E-06

 Point added to stored polar  1
 Point written to save file  s9000_Re400k.base.pol                           
 Dump file unspecified or not available
 Calculating wake trajectory ...
 Calculating source influence matrix ...

 Solving BL system ...

 Side 1  free  transition at x/c =  0.0559   22
 Side 2 forced transition at x/c =  1.0000   72

   1   rms: 0.8518E-01   max: 0.4993E+00   T at   22  1
       a =  9.000      CL =  1.2278
[...]
      Cm = -0.0234     CD =  0.04094   =>   CDf =  0.00524    CDp =  0.03570

 Side 1  free  transition at x/c =  0.0069   18
 Side 2 forced transition at x/c =  1.0000   70

   2   rms: 0.7649E-02   max: -.3959E-01   D at   18  1
       a = 13.000      CL =  1.3572
      Cm = -0.0234     CD =  0.04101   =>   CDf =  0.00511    CDp =  0.03590

 Side 1  free  transition at x/c =  0.0069   18
 Side 2 forced transition at x/c =  1.0000   70

   3   rms: 0.8747E-03   max: -.3814E-02   D at   76  1
       a = 13.000      CL =  1.3578
      Cm = -0.0234     CD =  0.04096   =>   CDf =  0.00511    CDp =  0.03585

 Side 1  free  transition at x/c =  0.0069   18
 Side 2 forced transition at x/c =  1.0000   70

   4   rms: 0.3019E-04   max: -.1773E-03   D at   81  2
       a = 13.000      CL =  1.3578
      Cm = -0.0234     CD =  0.04097   =>   CDf =  0.00512    CDp =  0.03585
 plradd ia,ip,cpol           42           0  4.48399260E-06

 Point added to stored polar  1
 Point written to save file  s9000_Re400k.base.pol                           
 Dump file unspecified or not available
 Calculating wake trajectory ...
 Calculating source influence matrix ...

 Solving BL system ...

 Side 1  free  transition at x/c =  0.0069   18
 Side 2 forced transition at x/c =  1.0000   70

   1   rms: 0.4107E-01   max: 0.1848E+00   T at   18  1   RLX: 0.921
       a = 13.250      CL =  1.3585
      Cm = -0.0231     CD =  0.04361   =>   CDf =  0.00512    CDp =  0.03849

 Side 1  free  transition at x/c =  0.0064   18
 Side 2 forced transition at x/c =  1.0000   70

   2   rms: 0.9842E-02   max: 0.5452E-01   D at   73  1
       a = 13.250      CL =  1.3528
      Cm = -0.0231     CD =  0.04413   =>   CDf =  0.00501    CDp =  0.03912

 Side 1  free  transition at x/c =  0.0065   18
 Side 2 forced transition at x/c =  1.0000   70

   3   rms: 0.3289E-03   max: 0.3341E-02   D at   72  1
       a = 13.250      CL =  1.3529
      Cm = -0.0231     CD =  0.04406   =>   CDf =  0.00500    CDp =  0.03906

 Side 1  free  transition at x/c =  0.0065   18
 Side 2 forced transition at x/c =  1.0000   70

   4   rms: 0.6692E-05   max: 0.3939E-04   T at   18  1
       a = 13.250      CL =  1.3530
      Cm = -0.0231     CD =  0.04406   =>   CDf =  0.00500    CDp =  0.03906
 plradd ia,ip,cpol           43           0  4.48399260E-06

 Point added to stored polar  1
 Point written to save file  s9000_Re400k.base.pol                           
 Dump file unspecified or not available
 Calculating wake trajectory ...
 Calculating source influence matrix ...

 Solving BL system ...

 Side 1  free  transition at x/c =  0.0065   18
 Side 2 forced transition at x/c =  1.0000   70

   1   rms: 0.4750E-01   max: 0.1757E+00   T at   18  1   RLX: 0.859
       a = 13.500      CL =  1.3484
      Cm = -0.0233     CD =  0.04753   =>   CDf =  0.00501    CDp =  0.04253

 Side 1  free  transition at x/c =  0.0061   18
 Side 2 forced transition at x/c =  1.0000   70

   2   rms: 0.1802E-01   max: 0.8662E-01   D at   70  1
       a = 13.500      CL =  1.3383
      Cm = -0.0234     CD =  0.04885   =>   CDf =  0.00487    CDp =  0.04398

 Side 1  free  transition at x/c =  0.0061   18
 Side 2 forced transition at x/c =  1.0000   70

   3   rms: 0.9542E-03   max: 0.1080E-01   D at   68  1
       a = 13.500      CL =  1.3381
      Cm = -0.0233     CD =  0.04865   =>   CDf =  0.00485    CDp =  0.04380

 Side 1  free  transition at x/c =  0.0061   18
 Side 2 forced transition at x/c =  1.0000   70

   4   rms: 0.4841E-04   max: 0.2114E-03   T at   18  1
       a = 13.500      CL =  1.3381
      Cm = -0.0233     CD =  0.04865   =>   CDf =  0.00485    CDp =  0.04380
 plradd ia,ip,cpol           44           0  4.48399260E-06

 Point added to stored polar  1
 Point written to save file  s9000_Re400k.base.pol                           
 Dump file unspecified or not available
 Calculating wake trajectory ...
 Calculating source influence matrix ...

 Solving BL system ...

 Side 1  free  transition at x/c =  0.0061   18
 Side 2 forced transition at x/c =  1.0000   70

   1   rms: 0.4160E-01   max: 0.1415E+00   D at   65  1   RLX: 0.804
       a = 13.750      CL =  1.3363
      Cm = -0.0238     CD =  0.05191   =>   CDf =  0.00486    CDp =  0.04706

 Side 1  free  transition at x/c =  0.0062   18
 Side 2 forced transition at x/c =  1.0000   70

   2   rms: 0.9761E-02   max: 0.5047E-01   D at   66  1
       a = 13.750      CL =  1.3343
      Cm = -0.0240     CD =  0.05244   =>   CDf =  0.00473    CDp =  0.04772

 Side 1  free  transition at x/c =  0.0062   18
 Side 2 forced transition at x/c =  1.0000   70

   3   rms: 0.9643E-03   max: 0.6799E-02   D at   65  1
       a = 13.750      CL =  1.3338
      Cm = -0.0240     CD =  0.05232   =>   CDf =  0.00469    CDp =  0.04762

 Side 1  free  transition at x/c =  0.0062   18
 Side 2 forced transition at x/c =  1.0000   70

   4   rms: 0.3694E-04   max: 0.3892E-03   D at   83  2
       a = 13.750      CL =  1.3338
      Cm = -0.0240     CD =  0.05231   =>   CDf =  0.00469    CDp =  0.04762
 plradd ia,ip,cpol           45           0  4.48399260E-06

 Point added to stored polar  1
 Point written to save file  s9000_Re400k.base.pol                           
 Dump file unspecified or not available
 Calculating wake trajectory ...
 Calculating source influence matrix ...

 Solving BL system ...

 Side 1  free  transition at x/c =  0.0062   18
 Side 2 forced transition at x/c =  1.0000   70

   1   rms: 0.6992E-01   max: 0.2370E+00   D at   62  1   RLX: 0.745
       a = 14.000      CL =  1.3194
      Cm = -0.0253     CD =  0.05774   =>   CDf =  0.00469    CDp =  0.05305

 Side 1  free  transition at x/c =  0.0059   17
 Side 2 forced transition at x/c =  1.0000   70

   2   rms: 0.1794E-01   max: 0.8422E-01   D at   64  1
       a = 14.000      CL =  1.3130
      Cm = -0.0258     CD =  0.05885   =>   CDf =  0.00450    CDp =  0.05435

 Side 1  free  transition at x/c =  0.0058   17
 Side 2 forced transition at x/c =  1.0000   70

   3   rms: 0.1179E-02   max: 0.1193E-01   D at   62  1
       a = 14.000      CL =  1.3124
      Cm = -0.0257     CD =  0.05862   =>   CDf =  0.00448    CDp =  0.05415

 Side 1  free  transition at x/c =  0.0058   17
 Side 2 forced transition at x/c =  1.0000   70

   4   rms: 0.1907E-04   max: -.1446E-03   D at   86  2
       a = 14.000      CL =  1.3124
      Cm = -0.0257     CD =  0.05863   =>   CDf =  0.00448    CDp =  0.05415
 plradd ia,ip,cpol           46           0  4.48399260E-06

 Point added to stored polar  1
 Point written to save file  s9000_Re400k.base.pol                           
 Dump file unspecified or not available
 Calculating wake trajectory ...
 Calculating source influence matrix ...

 Solving BL system ...

 Side 1  free  transition at x/c =  0.0058   17
 Side 2 forced transition at x/c =  1.0000   70

   1   rms: 0.4292E-01   max: 0.1516E+00   D at   59  1   RLX: 0.710
       a = 14.250      CL =  1.3103
      Cm = -0.0270     CD =  0.06234   =>   CDf =  0.00448    CDp =  0.05786

 Side 1  free  transition at x/c =  0.0058   17
 Side 2 forced transition at x/c =  1.0000   70

   2   rms: 0.1756E-01   max: 0.7938E-01   D at   60  1
       a = 14.250      CL =  1.3049
      Cm = -0.0277     CD =  0.06389   =>   CDf =  0.00434    CDp =  0.05955

 Side 1  free  transition at x/c =  0.0058   17
 Side 2 forced transition at x/c =  1.0000   70

   3   rms: 0.3099E-02   max: 0.1710E-01   D at   84  2
       a = 14.250      CL =  1.3030
      Cm = -0.0276     CD =  0.06369   =>   CDf =  0.00429    CDp =  0.05939

 Side 1  free  transition at x/c =  0.0058   17
 Side 2 forced transition at x/c =  1.0000   70

   4   rms: 0.2132E-03   max: 0.2463E-02   D at   84  2
       a = 14.250      CL =  1.3028
      Cm = -0.0276     CD =  0.06364   =>   CDf =  0.00430    CDp =  0.05934

 Side 1  free  transition at x/c =  0.0058   17
 Side 2 forced transition at x/c =  1.0000   70

   5   rms: 0.6566E-05   max: -.5728E-04   C at   70  2
       a = 14.250      CL =  1.3028
      Cm = -0.0276     CD =  0.06364   =>   CDf =  0.00430    CDp =  0.05934
 plradd ia,ip,cpol           47           0  4.48399260E-06

 Point added to stored polar  1
 Point written to save file  s9000_Re400k.base.pol                           
 Dump file unspecified or not available
 Calculating wake trajectory ...
 Calculating source influence matrix ...

 Solving BL system ...

 Side 1  free  transition at x/c =  0.0058   17
 Side 2 forced transition at x/c =  1.0000   70

   1   rms: 0.4293E-01   max: 0.1547E+00   D at   56  1   RLX: 0.674
       a = 14.500      CL =  1.3011
      Cm = -0.0292     CD =  0.06745   =>   CDf =  0.00430    CDp =  0.06315

 Side 1  free  transition at x/c =  0.0057   17
 Side 2 forced transition at x/c =  1.0000   70

   2   rms: 0.1866E-01   max: 0.8273E-01   D at   57  1
       a = 14.500      CL =  1.2956
      Cm = -0.0301     CD =  0.06931   =>   CDf =  0.00417    CDp =  0.06514

 Side 1  free  transition at x/c =  0.0057   17
 Side 2 forced transition at x/c =  1.0000   70

   3   rms: 0.3595E-02   max: 0.1820E-01   D at   56  1
       a = 14.500      CL =  1.2934
      Cm = -0.0301     CD =  0.06905   =>   CDf =  0.00411    CDp =  0.06494

 Side 1  free  transition at x/c =  0.0057   17
 Side 2 forced transition at x/c =  1.0000   70

   4   rms: 0.2141E-03   max: 0.1652E-02   D at   85  2
       a = 14.500      CL =  1.2932
      Cm = -0.0300     CD =  0.06898   =>   CDf =  0.00411    CDp =  0.06486

 Side 1  free  transition at x/c =  0.0057   17
 Side 2 forced transition at x/c =  1.0000   70

   5   rms: 0.1246E-04   max: -.5368E-04   C at   70  2
       a = 14.500      CL =  1.2932
      Cm = -0.0300     CD =  0.06898   =>   CDf =  0.00411    CDp =  0.06486
 plradd ia,ip,cpol           48           0  4.48399260E-06

 Point added to stored polar  1
 Point written to save file  s9000_Re400k.base.pol                           
 Dump file unspecified or not available
 Calculating wake trajectory ...
 Calculating source influence matrix ...

 Solving BL system ...

 Side 1  free  transition at x/c =  0.0057   17
 Side 2 forced transition at x/c =  1.0000   70

   1   rms: 0.4543E-01   max: 0.1680E+00   D at   53  1   RLX: 0.640
       a = 14.750      CL =  1.2905
      Cm = -0.0319     CD =  0.07315   =>   CDf =  0.00412    CDp =  0.06903

 Side 1  free  transition at x/c =  0.0055   17
 Side 2 forced transition at x/c =  1.0000   70

   2   rms: 0.2111E-01   max: 0.9116E-01   D at   54  1
       a = 14.750      CL =  1.2841
      Cm = -0.0331     CD =  0.07543   =>   CDf =  0.00399    CDp =  0.07144

 Side 1  free  transition at x/c =  0.0055   17
 Side 2 forced transition at x/c =  1.0000   70

   3   rms: 0.4030E-02   max: 0.1977E-01   D at   53  1
       a = 14.750      CL =  1.2816
      Cm = -0.0330     CD =  0.07506   =>   CDf =  0.00392    CDp =  0.07113

 Side 1  free  transition at x/c =  0.0055   17
 Side 2 forced transition at x/c =  1.0000   70

   4   rms: 0.2134E-03   max: 0.2016E-02   D at   85  2
       a = 14.750      CL =  1.2814
      Cm = -0.0330     CD =  0.07497   =>   CDf =  0.00393    CDp =  0.07104

 Side 1  free  transition at x/c =  0.0055   17
 Side 2 forced transition at x/c =  1.0000   70

   5   rms: 0.2263E-04   max: -.8816E-04   D at   87  2
       a = 14.750      CL =  1.2815
      Cm = -0.0330     CD =  0.07497   =>   CDf =  0.00393    CDp =  0.07104
 plradd ia,ip,cpol           49           0  4.48399260E-06

 Point added to stored polar  1
 Point written to save file  s9000_Re400k.base.pol                           
 Dump file unspecified or not available
 Calculating wake trajectory ...
 Calculating source influence matrix ...

 Solving BL system ...

 Side 1  free  transition at x/c =  0.0055   17
 Side 2 forced transition at x/c =  1.0000   70

   1   rms: 0.4643E-01   max: 0.1769E+00   D at   51  1   RLX: 0.608
       a = 15.000      CL =  1.2776
      Cm = -0.0350     CD =  0.07943   =>   CDf =  0.00393    CDp =  0.07550

 Side 1  free  transition at x/c =  0.0055   17
 Side 2 forced transition at x/c =  1.0000   70

   2   rms: 0.2286E-01   max: 0.9515E-01   D at   51  1
       a = 15.000      CL =  1.2708
      Cm = -0.0364     CD =  0.08211   =>   CDf =  0.00382    CDp =  0.07829

 Side 1  free  transition at x/c =  0.0055   17
 Side 2 forced transition at x/c =  1.0000   70

   3   rms: 0.4541E-02   max: 0.2399E-01   D at   85  2
       a = 15.000      CL =  1.2679
      Cm = -0.0363     CD =  0.08159   =>   CDf =  0.00375    CDp =  0.07784

 Side 1  free  transition at x/c =  0.0056   17
 Side 2 forced transition at x/c =  1.0000   70

   4   rms: 0.2137E-03   max: 0.1384E-02   D at   86  2
       a = 15.000      CL =  1.2678
      Cm = -0.0363     CD =  0.08148   =>   CDf =  0.00376    CDp =  0.07772

 Side 1  free  transition at x/c =  0.0056   17
 Side 2 forced transition at x/c =  1.0000   70

   5   rms: 0.3384E-04   max: -.1343E-03   D at   87  2
       a = 15.000      CL =  1.2679
      Cm = -0.0363     CD =  0.08148   =>   CDf =  0.00376    CDp =  0.07772
 plradd ia,ip,cpol           50           0  4.48399260E-06

 Point added to stored polar  1
 Point written to save file  s9000_Re400k.base.pol                           
 Dump file unspecified or not available
 Calculating wake trajectory ...
 Calculating source influence matrix ...

 Solving BL system ...

 Side 1  free  transition at x/c =  0.0056   17
 Side 2 forced transition at x/c =  1.0000   70

   1   rms: 0.4819E-01   max: 0.1870E+00   D at   48  1   RLX: 0.579
       a = 15.250      CL =  1.2642
      Cm = -0.0386     CD =  0.08616   =>   CDf =  0.00376    CDp =  0.08240

 Side 1  free  transition at x/c =  0.0054   17
 Side 2 forced transition at x/c =  1.0000   70

   2   rms: 0.2476E-01   max: 0.1092E+00   D at   49  1
       a = 15.250      CL =  1.2568
      Cm = -0.0404     CD =  0.08934   =>   CDf =  0.00365    CDp =  0.08569

 Side 1  free  transition at x/c =  0.0053   17
 Side 2 forced transition at x/c =  1.0000   70

   3   rms: 0.4885E-02   max: 0.2272E-01   D at   86  2
       a = 15.250      CL =  1.2539
      Cm = -0.0402     CD =  0.08870   =>   CDf =  0.00357    CDp =  0.08513

 Side 1  free  transition at x/c =  0.0054   17
 Side 2 forced transition at x/c =  1.0000   70

   4   rms: 0.2522E-03   max: 0.1993E-02   D at   86  2
       a = 15.250      CL =  1.2538
      Cm = -0.0402     CD =  0.08855   =>   CDf =  0.00358    CDp =  0.08498

 Side 1  free  transition at x/c =  0.0054   17
 Side 2 forced transition at x/c =  1.0000   70

   5   rms: 0.4475E-04   max: -.1746E-03   D at   87  2
       a = 15.250      CL =  1.2538
      Cm = -0.0402     CD =  0.08856   =>   CDf =  0.00358    CDp =  0.08498
 plradd ia,ip,cpol           51           0  4.48399260E-06

 Point added to stored polar  1
 Point written to save file  s9000_Re400k.base.pol                           
 Dump file unspecified or not available
 Calculating wake trajectory ...
 Calculating source influence matrix ...

 Solving BL system ...

 Side 1  free  transition at x/c =  0.0054   17
 Side 2 forced transition at x/c =  1.0000   70

   1   rms: 0.4801E-01   max: 0.1921E+00   D at   45  1   RLX: 0.551
       a = 15.500      CL =  1.2494
      Cm = -0.0426     CD =  0.09344   =>   CDf =  0.00358    CDp =  0.08986

 Side 1  free  transition at x/c =  0.0053   17
 Side 2 forced transition at x/c =  1.0000   70

   2   rms: 0.2542E-01   max: 0.1097E+00   D at   46  1
       a = 15.500      CL =  1.2421
      Cm = -0.0445     CD =  0.09697   =>   CDf =  0.00348    CDp =  0.09349

 Side 1  free  transition at x/c =  0.0053   17
 Side 2 forced transition at x/c =  1.0000   70

   3   rms: 0.5288E-02   max: 0.2581E-01   D at   86  2
       a = 15.500      CL =  1.2389
      Cm = -0.0444     CD =  0.09618   =>   CDf =  0.00341    CDp =  0.09278

 Side 1  free  transition at x/c =  0.0053   17
 Side 2 forced transition at x/c =  1.0000   70

   4   rms: 0.3659E-03   max: 0.4232E-02   D at   86  2
       a = 15.500      CL =  1.2389
      Cm = -0.0443     CD =  0.09598   =>   CDf =  0.00341    CDp =  0.09257

 Side 1  free  transition at x/c =  0.0053   17
 Side 2 forced transition at x/c =  1.0000   70

   5   rms: 0.5967E-04   max: -.2383E-03   D at   88  2
       a = 15.500      CL =  1.2389
      Cm = -0.0443     CD =  0.09598   =>   CDf =  0.00341    CDp =  0.09257
 plradd ia,ip,cpol           52           0  4.48399260E-06

 Point added to stored polar  1
 Point written to save file  s9000_Re400k.base.pol                           
 Dump file unspecified or not available
 Calculating wake trajectory ...
 Calculating source influence matrix ...

 Solving BL system ...

 Side 1  free  transition at x/c =  0.0053   17
 Side 2 forced transition at x/c =  1.0000   70

   1   rms: 0.4748E-01   max: 0.1938E+00   D at   43  1   RLX: 0.526
       a = 15.750      CL =  1.2347
      Cm = -0.0467     CD =  0.10089   =>   CDf =  0.00342    CDp =  0.09748

 Side 1  free  transition at x/c =  0.0053   17
 Side 2 forced transition at x/c =  1.0000   70

   2   rms: 0.2667E-01   max: 0.1173E+00   D at   44  1
       a = 15.750      CL =  1.2272
      Cm = -0.0489     CD =  0.10488   =>   CDf =  0.00332    CDp =  0.10155

 Side 1  free  transition at x/c =  0.0053   17
 Side 2 forced transition at x/c =  1.0000   70

   3   rms: 0.5803E-02   max: 0.2583E-01   D at   87  2
       a = 15.750      CL =  1.2238
      Cm = -0.0488     CD =  0.10397   =>   CDf =  0.00325    CDp =  0.10072

 Side 1  free  transition at x/c =  0.0054   17
 Side 2 forced transition at x/c =  1.0000   70

   4   rms: 0.3578E-03   max: 0.2352E-02   D at   87  2
       a = 15.750      CL =  1.2237
      Cm = -0.0487     CD =  0.10373   =>   CDf =  0.00326    CDp =  0.10047

 Side 1  free  transition at x/c =  0.0054   17
 Side 2 forced transition at x/c =  1.0000   70

   5   rms: 0.6338E-04   max: -.2587E-03   D at   88  2
       a = 15.750      CL =  1.2237
      Cm = -0.0487     CD =  0.10373   =>   CDf =  0.00326    CDp =  0.10048
 plradd ia,ip,cpol           53           0  4.48399260E-06

 Point added to stored polar  1
 Point written to save file  s9000_Re400k.base.pol                           
 Dump file unspecified or not available
 Calculating wake trajectory ...
 Calculating source influence matrix ...

 Solving BL system ...

 Side 1  free  transition at x/c =  0.0054   17
 Side 2 forced transition at x/c =  1.0000   70

   1   rms: 0.4956E-01   max: 0.2081E+00   D at   41  1   RLX: 0.503
       a = 16.000      CL =  1.2191
      Cm = -0.0512     CD =  0.10892   =>   CDf =  0.00326    CDp =  0.10566

 Side 1  free  transition at x/c =  0.0053   17
 Side 2 forced transition at x/c =  1.0000   70

   2   rms: 0.2818E-01   max: 0.1205E+00   D at   41  1
       a = 16.000      CL =  1.2113
      Cm = -0.0537     CD =  0.11344   =>   CDf =  0.00317    CDp =  0.11027

 Side 1  free  transition at x/c =  0.0053   17
 Side 2 forced transition at x/c =  1.0000   70

   3   rms: 0.5894E-02   max: 0.2666E-01   D at   87  2
       a = 16.000      CL =  1.2079
      Cm = -0.0535     CD =  0.11223   =>   CDf =  0.00309    CDp =  0.10914

 Side 1  free  transition at x/c =  0.0053   17
 Side 2 forced transition at x/c =  1.0000   70

   4   rms: 0.3875E-03   max: 0.2747E-02   D at   87  2
       a = 16.000      CL =  1.2079
      Cm = -0.0535     CD =  0.11195   =>   CDf =  0.00310    CDp =  0.10885

 Side 1  free  transition at x/c =  0.0053   17
 Side 2 forced transition at x/c =  1.0000   70

   5   rms: 0.6968E-04   max: -.3056E-03   D at   89  2
       a = 16.000      CL =  1.2080
      Cm = -0.0535     CD =  0.11196   =>   CDf =  0.00310    CDp =  0.10886
 plradd ia,ip,cpol           54           0  4.48399260E-06

 Point added to stored polar  1
 Point written to save file  s9000_Re400k.base.pol                           
 Dump file unspecified or not available

.OPERva   c>  
 Polar accumulation disabled

.OPERv   c>  
 XFOIL   c>  
 XFOIL   c>  