  
       XFOIL         Version 6.99
  
 Calculated polar for: S9026 (9.5%)                                    
  
 1 1 Reynolds number fixed          Mach number fixed         
  
 xtrf =   1.000 (top)        1.000 (bottom)  
 Mach =   0.000     Re =     0.200 e 6     Ncrit =   9.000
  
   alpha    CL        CD       CDp       CM     Top_Xtr  Bot_Xtr
  ------ -------- --------- --------- -------- -------- --------
-4.000  -0.4856   0.01113   0.00418   0.0049   1.0000   0.3190
-3.500  -0.4425   0.01042   0.00379   0.0072   1.0000   0.3976
-3.000  -0.4006   0.00981   0.00354   0.0099   1.0000   0.4858
-2.500  -0.3600   0.00933   0.00344   0.0128   1.0000   0.5753
-2.000  -0.3205   0.00903   0.00349   0.0161   1.0000   0.6622
-1.500  -0.2751   0.00892   0.00372   0.0181   0.9970   0.7494
-1.000  -0.1895   0.00888   0.00396   0.0129   0.9772   0.8342
-0.500  -0.0984   0.00888   0.00409   0.0071   0.9576   0.8965
0.000  -0.0000   0.00892   0.00417   0.0000   0.9353   0.9353
0.500   0.0985   0.00888   0.00409  -0.0071   0.8964   0.9576
1.000   0.1896   0.00888   0.00396  -0.0129   0.8342   0.9772
1.500   0.2750   0.00892   0.00372  -0.0181   0.7493   0.9970
2.000   0.3204   0.00903   0.00349  -0.0160   0.6621   1.0000
2.500   0.3598   0.00933   0.00344  -0.0128   0.5754   1.0000
3.000   0.4005   0.00980   0.00354  -0.0098   0.4858   1.0000
3.500   0.4423   0.01042   0.00379  -0.0072   0.3977   1.0000
4.000   0.4854   0.01113   0.00418  -0.0049   0.3192   1.0000
4.500   0.5289   0.01198   0.00473  -0.0027   0.2483   1.0000
5.000   0.5725   0.01296   0.00545  -0.0006   0.1897   1.0000
5.500   0.6163   0.01405   0.00637   0.0015   0.1440   1.0000
6.000   0.6605   0.01520   0.00741   0.0035   0.1120   1.0000
6.500   0.7044   0.01661   0.00879   0.0055   0.0893   1.0000
7.000   0.7484   0.01810   0.01029   0.0075   0.0714   1.0000
7.500   0.7918   0.02017   0.01246   0.0096   0.0603   1.0000
8.000   0.8348   0.02273   0.01521   0.0115   0.0527   1.0000
8.500   0.8778   0.02520   0.01792   0.0134   0.0476   1.0000
9.000   0.9139   0.02970   0.02285   0.0155   0.0439   1.0000
9.500   0.9456   0.03356   0.02738   0.0183   0.0409   1.0000
10.000   0.9733   0.03718   0.03144   0.0207   0.0376   1.0000
10.250   0.9862   0.03900   0.03332   0.0217   0.0361   1.0000
10.500   0.9847   0.04339   0.03802   0.0232   0.0352   1.0000
11.000   0.9587   0.05216   0.04749   0.0269   0.0348   1.0000
11.250   0.9389   0.05534   0.05090   0.0291   0.0347   1.0000
11.500   0.9166   0.05983   0.05557   0.0290   0.0348   1.0000
11.750   0.8246   0.07648   0.07287   0.0138   0.0384   1.0000
12.000   0.8403   0.07672   0.07308   0.0147   0.0370   1.0000
