  
       XFOIL         Version 6.99
  
 Calculated polar for: S9037 (9%)                                      
  
 1 1 Reynolds number fixed          Mach number fixed         
  
 xtrf =   1.000 (top)        1.000 (bottom)  
 Mach =   0.000     Re =     0.400 e 6     Ncrit =   9.000
  
   alpha    CL        CD       CDp       CM     Top_Xtr  Bot_Xtr
  ------ -------- --------- --------- -------- -------- --------
-4.000  -0.0209   0.01505   0.00922  -0.0891   0.9163   0.0145
-3.500   0.0301   0.01299   0.00683  -0.0874   0.9007   0.0142
-3.000   0.0797   0.01083   0.00447  -0.0856   0.8839   0.0158
-2.000   0.1833   0.00854   0.00267  -0.0835   0.8465   0.2016
-1.500   0.2346   0.00763   0.00242  -0.0827   0.8275   0.4401
-1.000   0.2782   0.00649   0.00237  -0.0797   0.8064   0.7984
-0.500   0.3596   0.00616   0.00209  -0.0840   0.7860   1.0000
0.000   0.4100   0.00626   0.00196  -0.0826   0.7603   1.0000
0.500   0.4615   0.00640   0.00188  -0.0815   0.7343   1.0000
1.000   0.5136   0.00657   0.00186  -0.0805   0.7076   1.0000
1.500   0.5659   0.00677   0.00188  -0.0796   0.6787   1.0000
2.000   0.6180   0.00702   0.00195  -0.0787   0.6462   1.0000
2.500   0.6703   0.00729   0.00207  -0.0779   0.6135   1.0000
3.000   0.7223   0.00760   0.00223  -0.0771   0.5780   1.0000
3.500   0.7736   0.00798   0.00246  -0.0762   0.5377   1.0000
4.000   0.8246   0.00840   0.00274  -0.0753   0.4984   1.0000
4.500   0.8752   0.00889   0.00310  -0.0744   0.4580   1.0000
5.500   0.9742   0.01005   0.00400  -0.0724   0.3724   1.0000
6.000   1.0228   0.01072   0.00457  -0.0714   0.3314   1.0000
6.500   1.0705   0.01146   0.00521  -0.0702   0.2882   1.0000
7.000   1.1168   0.01231   0.00594  -0.0689   0.2446   1.0000
7.500   1.1615   0.01328   0.00679  -0.0675   0.1999   1.0000
8.000   1.2048   0.01436   0.00776  -0.0658   0.1625   1.0000
8.500   1.2465   0.01551   0.00885  -0.0640   0.1284   1.0000
9.000   1.2854   0.01683   0.01007  -0.0619   0.0961   1.0000
9.500   1.3218   0.01824   0.01140  -0.0594   0.0685   1.0000
10.000   1.3540   0.01981   0.01298  -0.0564   0.0492   1.0000
10.250   1.3684   0.02062   0.01379  -0.0546   0.0421   1.0000
10.500   1.3817   0.02136   0.01460  -0.0526   0.0364   1.0000
10.750   1.3903   0.02239   0.01562  -0.0501   0.0304   1.0000
11.000   1.4009   0.02330   0.01657  -0.0479   0.0245   1.0000
11.250   1.4034   0.02481   0.01807  -0.0449   0.0166   1.0000
11.500   1.4072   0.02626   0.01962  -0.0423   0.0130   1.0000
11.750   1.4036   0.02834   0.02177  -0.0392   0.0107   1.0000
12.000   1.4100   0.02977   0.02332  -0.0374   0.0096   1.0000
12.250   1.4127   0.03155   0.02523  -0.0355   0.0090   1.0000
12.500   1.4141   0.03353   0.02735  -0.0339   0.0083   1.0000
12.750   1.4104   0.03611   0.03005  -0.0323   0.0078   1.0000
13.000   1.4029   0.03923   0.03330  -0.0310   0.0075   1.0000
13.250   1.3960   0.04251   0.03674  -0.0302   0.0074   1.0000
13.500   1.3881   0.04612   0.04050  -0.0298   0.0072   1.0000
13.750   1.3844   0.04947   0.04400  -0.0297   0.0070   1.0000
14.000   1.3793   0.05314   0.04783  -0.0300   0.0069   1.0000
14.250   1.3736   0.05707   0.05191  -0.0306   0.0068   1.0000
14.500   1.3667   0.06134   0.05634  -0.0315   0.0067   1.0000
14.750   1.3590   0.06595   0.06111  -0.0328   0.0065   1.0000
15.000   1.3510   0.07079   0.06610  -0.0343   0.0064   1.0000
15.250   1.3427   0.07587   0.07133  -0.0362   0.0063   1.0000
15.500   1.3336   0.08126   0.07687  -0.0382   0.0063   1.0000
15.750   1.3239   0.08697   0.08274  -0.0406   0.0062   1.0000
16.000   1.3140   0.09285   0.08877  -0.0432   0.0062   1.0000
