
 ===================================================
  XFOIL Version 6.99
  Copyright (C) 2000   Mark Drela, Harold Youngren

  This software comes with ABSOLUTELY NO WARRANTY,
    subject to the GNU General Public License.

  Caveat computor
 ===================================================

 File  xfoil.def  not found

   QUIT    Exit program

  .OPER    Direct operating point(s)
  .MDES    Complex mapping design routine
  .QDES    Surface speed design routine
  .GDES    Geometry design routine

   SAVE f  Write airfoil to labeled coordinate file
   PSAV f  Write airfoil to plain coordinate file
   ISAV f  Write airfoil to ISES coordinate file
   MSAV f  Write airfoil to MSES coordinate file
   REVE    Reverse written-airfoil node ordering

   LOAD f  Read buffer airfoil from coordinate file
   NACA i  Set NACA 4,5-digit airfoil and buffer airfoil
   INTE    Set buffer airfoil by interpolating two airfoils
   NORM    Buffer airfoil normalization toggle
   XYCM rr Change CM reference location, currently  0.25000 0.00000

   BEND    Display structural properties of current airfoil

   PCOP    Set current-airfoil panel nodes directly from buffer airfoil points
   PANE    Set current-airfoil panel nodes ( 160 ) based on curvature
  .PPAR    Show/change paneling

  .PLOP    Plotting options

   WDEF f  Write  current-settings file
   RDEF f  Reread current-settings file
   NAME s  Specify new airfoil name
   NINC    Increment name version number

   Z       Zoom    | (available in all menus)
   U       Unzoom  | 

 XFOIL   c>  
 Labeled airfoil file.  Name:  SA7035                                          

 Number of input coordinate points:  81
 Counterclockwise ordering
 Max thickness =     0.091992  at x =   0.298
 Max camber    =     0.025788  at x =   0.413

  LE  x,y  =   0.00026  -0.00041  |   Chord =   0.99974
  TE  x,y  =   1.00000   0.00000  |

 Current airfoil nodes set from buffer airfoil nodes (  81 )

 WARNING: Poor input coordinate distribution
          Excessive panel angle   49.3  at i =  43
          Repaneling with PANE and/or PPAR suggested
           (doing GDES,CADD before repaneling _may_
            improve excessively coarse LE spacing

 XFOIL   c>  
 XFOIL   c>  
 Sharp trailing edge

 Paneling parameters used...
   Number of panel nodes       160
   Panel bunching parameter    1.000
   TE/LE panel density ratio   0.150
   Refined-area/LE panel density ratio    0.200
   Top    side refined area x/c limits  1.000 1.000
   Bottom side refined area x/c limits  1.000 1.000

 XFOIL   c>  
.OPERi   c>  
 Xtr/c     =  1.0000    top    side
 Xtr/c     =  1.0000    bottom side
 Ncrit     =    9.00   ( 0.070 % turb. level )
 Vacc      =  0.0100

 Klag  =  5.6000     Uxwt  =    1.00
 A     =  6.7000     B     =  0.7500       KCt = 0.01485
 CtiniK=  1.8000     CtiniX=  3.3000

..VPAR   c>  
..VPAR   c>  
.OPERi   c>  
 M  =    0.0000
 Re =    400000

.OPERv   c>  
.OPERv   c>  
.OPERv   c>  
 Polar  1 newly created for accumulation
 Airfoil archived with polar: SA7035                                          

Enter  polar save filename  OR  <return> for no file   s>  
 New polar save file available

Enter  polar dump filename  OR  <return> for no file   s>  
 Polar dump file will NOT be written

 Polar accumulation enabled

.OPERva   c>   Calculating unit vorticity distributions ...
 Calculating wake trajectory ...
 Calculating source influence matrix ...

 Solving BL system ...

 Initializing BL ...
    side            1  ...
 MRCHUE: Inverse mode at  62     Hk =   4.146
 MRCHUE: Inverse mode at  63     Hk =   4.572
 MRCHUE: Inverse mode at  64     Hk =   4.992
 MRCHUE: Inverse mode at  65     Hk =   5.407
 MRCHUE: Inverse mode at  66     Hk =   5.818
 MRCHUE: Inverse mode at  67     Hk =   6.227
 MRCHUE: Inverse mode at  68     Hk =   6.633
 MRCHUE: Inverse mode at  69     Hk =   7.038
 MRCHUE: Inverse mode at  70     Hk =   7.441
 MRCHUE: Inverse mode at  71     Hk =   7.841
 MRCHUE: Inverse mode at  72     Hk =   8.236
 MRCHUE: Inverse mode at  73     Hk =   7.742
 MRCHUE: Inverse mode at  74     Hk =   6.092
 MRCHUE: Inverse mode at  75     Hk =   4.982
 MRCHUE: Inverse mode at  76     Hk =   4.244
 MRCHUE: Inverse mode at  77     Hk =   3.928
    side            2  ...
 MRCHUE: Inverse mode at   9     Hk =   4.092
 MRCHUE: Inverse mode at  10     Hk =   5.476
 MRCHUE: Inverse mode at  11     Hk =   6.760
 MRCHUE: Inverse mode at  12     Hk =   8.087
 MRCHUE: Inverse mode at  13     Hk =   9.506
 MRCHUE: Inverse mode at  14     Hk =   8.222
 MRCHUE: Inverse mode at  15     Hk =   2.500
 MRCHUE: Inverse mode at  16     Hk =   2.500

 Side 1  free  transition at x/c =  0.9520   73
 Side 2  free  transition at x/c =  0.0162   14

   1   rms: 0.1576E+00   max: -.4540E+00   D at   17  2
       a = -4.000      CL = -0.0983
      Cm = -0.0748     CD =  0.01251   =>   CDf =  0.00597    CDp =  0.00654

 Side 1  free  transition at x/c =  0.9641   74
 Side 2  free  transition at x/c =  0.0161   14

   2   rms: 0.1424E+00   max: 0.1169E+01   D at   14  2
       a = -4.000      CL = -0.1074
      Cm = -0.0727     CD =  0.01292   =>   CDf =  0.00628    CDp =  0.00664

 Side 1  free  transition at x/c =  0.9576   74
 Side 2  free  transition at x/c =  0.0163   14

   3   rms: 0.2643E-01   max: 0.1823E+00   D at   15  2
       a = -4.000      CL = -0.1088
      Cm = -0.0725     CD =  0.01323   =>   CDf =  0.00614    CDp =  0.00709

 Side 1  free  transition at x/c =  0.9568   74
 Side 2  free  transition at x/c =  0.0163   14

   4   rms: 0.9406E-03   max: 0.7598E-02   D at   16  2
       a = -4.000      CL = -0.1089
      Cm = -0.0725     CD =  0.01322   =>   CDf =  0.00612    CDp =  0.00711

 Side 1  free  transition at x/c =  0.9568   74
 Side 2  free  transition at x/c =  0.0163   14

   5   rms: 0.3158E-05   max: 0.3100E-04   D at   15  2
       a = -4.000      CL = -0.1089
      Cm = -0.0725     CD =  0.01322   =>   CDf =  0.00612    CDp =  0.00711
 plradd ia,ip,cpol            1           0  5.84839145E-04

 Point added to stored polar  1
 Point written to save file  sa7035_Re400k.base.pol                          
 Dump file unspecified or not available
 Calculating wake trajectory ...
 Calculating source influence matrix ...

 Solving BL system ...

 Side 1  free  transition at x/c =  0.9568   74
 Side 2  free  transition at x/c =  0.0163   14

   1   rms: 0.1155E+00   max: -.8142E+00   T at   14  2   RLX: 0.614
       a = -3.500      CL = -0.0644
      Cm = -0.0744     CD =  0.01243   =>   CDf =  0.00612    CDp =  0.00631

 Side 1  free  transition at x/c =  0.9533   73
 Side 2  free  transition at x/c =  0.0172   14

   2   rms: 0.1869E+00   max: -.7158E+00   D at   17  2   RLX: 0.699
       a = -3.500      CL = -0.0646
      Cm = -0.0712     CD =  0.01133   =>   CDf =  0.00621    CDp =  0.00512

 Side 1  free  transition at x/c =  0.9414   73
 Side 2  free  transition at x/c =  0.0171   13

   3   rms: 0.8086E-01   max: -.1082E+01   D at    2  1   RLX: 0.462
       a = -3.500      CL = -0.0583
      Cm = -0.0716     CD =  0.01196   =>   CDf =  0.00626    CDp =  0.00570

 Side 1  free  transition at x/c =  0.9434   74
 Side 2  free  transition at x/c =  0.0172   13

   4   rms: 0.2405E-01   max: -.1256E+00   D at   15  2
       a = -3.500      CL = -0.0517
      Cm = -0.0722     CD =  0.01156   =>   CDf =  0.00628    CDp =  0.00528

 Side 1  free  transition at x/c =  0.9438   74
 Side 2  free  transition at x/c =  0.0174   14

   5   rms: 0.2470E-02   max: 0.1964E-01   D at   14  2
       a = -3.500      CL = -0.0521
      Cm = -0.0722     CD =  0.01148   =>   CDf =  0.00630    CDp =  0.00518

 Side 1  free  transition at x/c =  0.9437   74
 Side 2  free  transition at x/c =  0.0174   14

   6   rms: 0.2420E-04   max: 0.1594E-03   D at   14  2
       a = -3.500      CL = -0.0521
      Cm = -0.0722     CD =  0.01147   =>   CDf =  0.00630    CDp =  0.00518
 plradd ia,ip,cpol            2           0  5.84839145E-04

 Point added to stored polar  1
 Point written to save file  sa7035_Re400k.base.pol                          
 Dump file unspecified or not available
 Calculating wake trajectory ...
 Calculating source influence matrix ...

 Solving BL system ...

 Side 1  free  transition at x/c =  0.9437   74
 Side 2  free  transition at x/c =  0.0174   14

   1   rms: 0.2318E+00   max: -.1015E+01   D at   15  2   RLX: 0.493
       a = -3.000      CL = -0.0234
      Cm = -0.0723     CD =  0.01011   =>   CDf =  0.00630    CDp =  0.00381

 Side 1  free  transition at x/c =  0.9394   73
 Side 2  free  transition at x/c =  0.0201   14

   2   rms: 0.5797E-01   max: 0.2757E+00   D at   14  2
       a = -3.000      CL = -0.0070
      Cm = -0.0695     CD =  0.01015   =>   CDf =  0.00642    CDp =  0.00373

 Side 1  free  transition at x/c =  0.9222   72
 Side 2  free  transition at x/c =  0.0245   14

   3   rms: 0.2444E-01   max: -.2113E+00   D at   74  1
       a = -3.000      CL =  0.0014
      Cm = -0.0710     CD =  0.01010   =>   CDf =  0.00649    CDp =  0.00361

 Side 1  free  transition at x/c =  0.9300   73
 Side 2  free  transition at x/c =  0.0276   15

   4   rms: 0.2937E-01   max: -.2411E+00   D at   14  2
       a = -3.000      CL =  0.0006
      Cm = -0.0708     CD =  0.00989   =>   CDf =  0.00647    CDp =  0.00341

 Side 1  free  transition at x/c =  0.9291   73
 Side 2  free  transition at x/c =  0.0344   15

   5   rms: 0.1136E-01   max: -.2237E+00   C at   15  2
       a = -3.000      CL =  0.0006
      Cm = -0.0709     CD =  0.00993   =>   CDf =  0.00644    CDp =  0.00349

 Side 1  free  transition at x/c =  0.9291   73
 Side 2  free  transition at x/c =  0.0339   15

   6   rms: 0.2799E-02   max: 0.5626E-01   C at   15  2
       a = -3.000      CL =  0.0006
      Cm = -0.0709     CD =  0.00994   =>   CDf =  0.00643    CDp =  0.00351

 Side 1  free  transition at x/c =  0.9291   73
 Side 2  free  transition at x/c =  0.0333   15

   7   rms: 0.8264E-04   max: -.1575E-02   C at   15  2
       a = -3.000      CL =  0.0006
      Cm = -0.0709     CD =  0.00994   =>   CDf =  0.00643    CDp =  0.00351
 plradd ia,ip,cpol            3           0  5.84839145E-04

 Point added to stored polar  1
 Point written to save file  sa7035_Re400k.base.pol                          
 Dump file unspecified or not available
 Calculating wake trajectory ...
 Calculating source influence matrix ...

 Solving BL system ...

 Side 1  free  transition at x/c =  0.9291   73
 Side 2  free  transition at x/c =  0.0333   15

   1   rms: 0.4979E+00   max: -.5263E+01   C at   15  2   RLX: 0.095
       a = -2.500      CL =  0.0058
      Cm = -0.0707     CD =  0.00973   =>   CDf =  0.00644    CDp =  0.00329

 Side 1  free  transition at x/c =  0.9282   72
 Side 2  free  transition at x/c =  0.0836   19

   2   rms: 0.1339E+00   max: 0.1438E+01   C at   19  2   RLX: 0.457
       a = -2.500      CL =  0.0184
      Cm = -0.0705     CD =  0.00962   =>   CDf =  0.00627    CDp =  0.00335

 MRCHDU: Convergence failed at  20  side 2    Res =  0.2234E+01
 MRCHDU: Convergence failed at  21  side 2    Res =  0.1279E+01
 MRCHDU: Convergence failed at  22  side 2    Res =  0.1523E+01
 MRCHDU: Convergence failed at  23  side 2    Res =  0.1543E+01
 MRCHDU: Convergence failed at  24  side 2    Res =  0.1475E+01
 MRCHDU: Convergence failed at  25  side 2    Res =  0.1433E+01
 MRCHDU: Convergence failed at  26  side 2    Res =  0.1588E+01
 MRCHDU: Convergence failed at  27  side 2    Res =  0.1776E+01
 MRCHDU: Convergence failed at  28  side 2    Res =  0.1972E+01
 MRCHDU: Convergence failed at  29  side 2    Res =  0.2165E+01
 MRCHDU: Convergence failed at  30  side 2    Res =  0.2375E+01
 MRCHDU: Convergence failed at  31  side 2    Res =  0.2587E+01
 MRCHDU: Convergence failed at  32  side 2    Res =  0.2800E+01
 MRCHDU: Convergence failed at  33  side 2    Res =  0.3007E+01
 MRCHDU: Convergence failed at  34  side 2    Res =  0.3225E+01
 MRCHDU: Convergence failed at  35  side 2    Res =  0.3442E+01
 MRCHDU: Convergence failed at  36  side 2    Res =  0.3733E+01
 MRCHDU: Convergence failed at  37  side 2    Res =  0.3966E+01
 MRCHDU: Convergence failed at  38  side 2    Res =  0.4205E+01
 MRCHDU: Convergence failed at  39  side 2    Res =  0.4430E+01
 MRCHDU: Convergence failed at  40  side 2    Res =  0.4702E+01
 MRCHDU: Convergence failed at  41  side 2    Res =  0.4939E+01
 MRCHDU: Convergence failed at  42  side 2    Res =  0.5170E+01
 MRCHDU: Convergence failed at  43  side 2    Res =  0.5411E+01
 MRCHDU: Convergence failed at  44  side 2    Res =  0.5637E+01
 MRCHDU: Convergence failed at  45  side 2    Res =  0.5871E+01
 MRCHDU: Convergence failed at  46  side 2    Res =  0.6118E+01
 MRCHDU: Convergence failed at  47  side 2    Res =  0.6375E+01
 MRCHDU: Convergence failed at  48  side 2    Res =  0.6660E+01
 MRCHDU: Convergence failed at  49  side 2    Res =  0.6958E+01
 MRCHDU: Convergence failed at  50  side 2    Res =  0.7303E+01
 MRCHDU: Convergence failed at  51  side 2    Res =  0.7714E+01
 MRCHDU: Convergence failed at  52  side 2    Res =  0.8170E+01
 MRCHDU: Convergence failed at  53  side 2    Res =  0.8650E+01
 MRCHDU: Convergence failed at  54  side 2    Res =  0.9159E+01
 MRCHDU: Convergence failed at  55  side 2    Res =  0.9629E+01
 MRCHDU: Convergence failed at  56  side 2    Res =  0.1076E+02
 MRCHDU: Convergence failed at  57  side 2    Res =  0.1142E+02
 MRCHDU: Convergence failed at  58  side 2    Res =  0.1251E+02
 MRCHDU: Convergence failed at  59  side 2    Res =  0.1331E+02
 MRCHDU: Convergence failed at  60  side 2    Res =  0.1424E+02
 MRCHDU: Convergence failed at  61  side 2    Res =  0.1520E+02
 MRCHDU: Convergence failed at  62  side 2    Res =  0.1672E+02
 MRCHDU: Convergence failed at  63  side 2    Res =  0.1786E+02
 MRCHDU: Convergence failed at  64  side 2    Res =  0.1916E+02
 MRCHDU: Convergence failed at  65  side 2    Res =  0.2083E+02
 MRCHDU: Convergence failed at  66  side 2    Res =  0.2248E+02
 MRCHDU: Convergence failed at  67  side 2    Res =  0.2444E+02
 MRCHDU: Convergence failed at  68  side 2    Res =  0.2666E+02
 MRCHDU: Convergence failed at  69  side 2    Res =  0.2910E+02
 MRCHDU: Convergence failed at  70  side 2    Res =  0.3260E+02
 MRCHDU: Convergence failed at  71  side 2    Res =  0.3654E+02
 MRCHDU: Convergence failed at  72  side 2    Res =  0.4117E+02
 MRCHDU: Convergence failed at  73  side 2    Res =  0.4677E+02
 MRCHDU: Convergence failed at  74  side 2    Res =  0.5703E+02
 MRCHDU: Convergence failed at  75  side 2    Res =  0.7322E+02
 MRCHDU: Convergence failed at  76  side 2    Res =  0.2908E+03
 MRCHDU: Convergence failed at  77  side 2    Res =  0.4530E+03
 MRCHDU: Convergence failed at  78  side 2    Res =  0.1069E+03
 MRCHDU: Convergence failed at  79  side 2    Res =  0.5896E+02
 MRCHDU: Convergence failed at  80  side 2    Res =  0.3977E+02
 MRCHDU: Convergence failed at  81  side 2    Res =  0.2915E+02
 MRCHDU: Convergence failed at  82  side 2    Res =  0.2393E+02
 MRCHDU: Convergence failed at  83  side 2    Res =  0.2044E+02
 MRCHDU: Convergence failed at  84  side 2    Res =  0.1903E+02
 Side 1  free  transition at x/c =  0.9157   72
 Side 2 forced transition at x/c =  1.0000   84

   3   rms: 0.4241E+00   max: -.4318E+00   U at   84  2   RLX: 0.407
       a = -2.500      CL = -0.3256
      Cm =  0.0542     CD =  0.00504   =>   CDf =  0.00686    CDp = -0.00182

 Side 1  free  transition at x/c =  0.9146   71
 Side 2  free  transition at x/c =  0.8594   74

   4   rms: 0.4881E+00   max: 0.7605E+01   C at   74  2   RLX: 0.197
       a = -2.500      CL = -0.2654
      Cm =  0.0321     CD =  0.00578   =>   CDf =  0.00438    CDp =  0.00140

 Side 1  free  transition at x/c =  0.9142   71
 Side 2  free  transition at x/c =  0.7594   67

   5   rms: 0.4996E+00   max: 0.8335E+01   C at   67  2   RLX: 0.180
       a = -2.500      CL = -0.2042
      Cm =  0.0116     CD =  0.00617   =>   CDf =  0.00462    CDp =  0.00155

 Side 1  free  transition at x/c =  0.9137   71
 Side 2  free  transition at x/c =  0.6793   61

   6   rms: 0.3726E+00   max: 0.6003E+01   C at   61  2   RLX: 0.250
       a = -2.500      CL = -0.1387
      Cm = -0.0101     CD =  0.00650   =>   CDf =  0.00481    CDp =  0.00169

 Side 1  free  transition at x/c =  0.9129   71
 Side 2  free  transition at x/c =  0.5700   54

   7   rms: 0.2918E+00   max: 0.4650E+01   C at   54  2   RLX: 0.323
       a = -2.500      CL = -0.0766
      Cm = -0.0303     CD =  0.00708   =>   CDf =  0.00508    CDp =  0.00200

 Side 1  free  transition at x/c =  0.9123   71
 Side 2  free  transition at x/c =  0.4741   47

   8   rms: 0.2070E+00   max: 0.3376E+01   C at   47  2   RLX: 0.444
       a = -2.500      CL = -0.0206
      Cm = -0.0482     CD =  0.00754   =>   CDf =  0.00523    CDp =  0.00231

 Side 1  free  transition at x/c =  0.9118   71
 Side 2  free  transition at x/c =  0.3911   41

   9   rms: 0.9839E-01   max: 0.1495E+01   C at   41  2
       a = -2.500      CL =  0.0469
      Cm = -0.0695     CD =  0.00814   =>   CDf =  0.00533    CDp =  0.00280

 Side 1  free  transition at x/c =  0.9113   71
 Side 2  free  transition at x/c =  0.3008   35

  10   rms: 0.1858E-01   max: -.2270E+00   C at   35  2
       a = -2.500      CL =  0.0476
      Cm = -0.0695     CD =  0.00825   =>   CDf =  0.00539    CDp =  0.00286

 Side 1  free  transition at x/c =  0.9114   71
 Side 2  free  transition at x/c =  0.3059   35

  11   rms: 0.1455E-02   max: 0.2557E-01   C at   35  2
       a = -2.500      CL =  0.0476
      Cm = -0.0696     CD =  0.00826   =>   CDf =  0.00536    CDp =  0.00291

 Side 1  free  transition at x/c =  0.9114   71
 Side 2  free  transition at x/c =  0.3052   35

  12   rms: 0.7036E-05   max: -.1022E-03   D at   37  2
       a = -2.500      CL =  0.0476
      Cm = -0.0696     CD =  0.00826   =>   CDf =  0.00536    CDp =  0.00290
 plradd ia,ip,cpol            4           0  1.49156153E-03

 Point added to stored polar  1
 Point written to save file  sa7035_Re400k.base.pol                          
 Dump file unspecified or not available
 Calculating wake trajectory ...
 Calculating source influence matrix ...

 Solving BL system ...

 Side 1  free  transition at x/c =  0.9114   71
 Side 2  free  transition at x/c =  0.3052   35

   1   rms: 0.4529E+00   max: -.8626E+01   C at   35  2   RLX: 0.058
       a = -2.000      CL =  0.0502
      Cm = -0.0695     CD =  0.00819   =>   CDf =  0.00544    CDp =  0.00275

 Side 1  free  transition at x/c =  0.9101   72
 Side 2  free  transition at x/c =  0.3216   35

   2   rms: 0.6974E+00   max: -.1015E+02   T at    2  1   RLX: 0.049
       a = -2.000      CL =  0.0526
      Cm = -0.0694     CD =  0.00814   =>   CDf =  0.00532    CDp =  0.00282

 Side 1  free  transition at x/c =  0.9091   72
 Side 2  free  transition at x/c =  0.3368   36

   3   rms: 0.3602E+00   max: -.6695E+01   C at   36  2   RLX: 0.075
       a = -2.000      CL =  0.0558
      Cm = -0.0693     CD =  0.00805   =>   CDf =  0.00526    CDp =  0.00279

 Side 1  free  transition at x/c =  0.9077   72
 Side 2  free  transition at x/c =  0.3599   38

   4   rms: 0.3726E+00   max: -.6831E+01   C at   38  2   RLX: 0.073
       a = -2.000      CL =  0.0584
      Cm = -0.0692     CD =  0.00794   =>   CDf =  0.00518    CDp =  0.00276

 Side 1  free  transition at x/c =  0.9066   72
 Side 2  free  transition at x/c =  0.3778   39

   5   rms: 0.2536E+00   max: -.4462E+01   C at   39  2   RLX: 0.112
       a = -2.000      CL =  0.0629
      Cm = -0.0691     CD =  0.00787   =>   CDf =  0.00512    CDp =  0.00274

 Side 1  free  transition at x/c =  0.9050   72
 Side 2  free  transition at x/c =  0.4073   41

   6   rms: 0.2193E+00   max: -.3852E+01   C at   41  2   RLX: 0.130
       a = -2.000      CL =  0.0668
      Cm = -0.0689     CD =  0.00774   =>   CDf =  0.00502    CDp =  0.00272

 Side 1  free  transition at x/c =  0.9035   72
 Side 2  free  transition at x/c =  0.4373   43

   7   rms: 0.1424E+00   max: -.2333E+01   C at   43  2   RLX: 0.214
       a = -2.000      CL =  0.0729
      Cm = -0.0686     CD =  0.00761   =>   CDf =  0.00492    CDp =  0.00269

 Side 1  free  transition at x/c =  0.9016   72
 Side 2  free  transition at x/c =  0.4817   46

   8   rms: 0.5897E-01   max: 0.2778E+00   D at   47  2
       a = -2.000      CL =  0.0982
      Cm = -0.0682     CD =  0.00744   =>   CDf =  0.00481    CDp =  0.00263

 Side 1  free  transition at x/c =  0.8955   71
 Side 2  free  transition at x/c =  0.5690   52

   9   rms: 0.3208E-01   max: 0.4381E+00   D at   46  2
       a = -2.000      CL =  0.0951
      Cm = -0.0679     CD =  0.00718   =>   CDf =  0.00467    CDp =  0.00251

 Side 1  free  transition at x/c =  0.8915   71
 Side 2  free  transition at x/c =  0.5709   53

  10   rms: 0.9242E-02   max: 0.1028E+00   C at   53  2
       a = -2.000      CL =  0.0955
      Cm = -0.0679     CD =  0.00720   =>   CDf =  0.00456    CDp =  0.00265

 Side 1  free  transition at x/c =  0.8923   71
 Side 2  free  transition at x/c =  0.5584   52

  11   rms: 0.6758E-03   max: -.8177E-02   D at   55  2
       a = -2.000      CL =  0.0954
      Cm = -0.0679     CD =  0.00720   =>   CDf =  0.00457    CDp =  0.00263

 Side 1  free  transition at x/c =  0.8922   71
 Side 2  free  transition at x/c =  0.5581   52

  12   rms: 0.7218E-05   max: 0.1158E-03   C at   52  2
       a = -2.000      CL =  0.0954
      Cm = -0.0679     CD =  0.00720   =>   CDf =  0.00457    CDp =  0.00263
 plradd ia,ip,cpol            5           0  1.49156153E-03

 Point added to stored polar  1
 Point written to save file  sa7035_Re400k.base.pol                          
 Dump file unspecified or not available
 Calculating wake trajectory ...
 Calculating source influence matrix ...

 Solving BL system ...

 Side 1  free  transition at x/c =  0.8922   71
 Side 2  free  transition at x/c =  0.5581   52

   1   rms: 0.2155E+00   max: -.3490E+01   C at   52  2   RLX: 0.143
       a = -1.500      CL =  0.1024
      Cm = -0.0676     CD =  0.00709   =>   CDf =  0.00457    CDp =  0.00252

 Side 1  free  transition at x/c =  0.8894   71
 Side 2  free  transition at x/c =  0.5777   53

   2   rms: 0.1492E+00   max: -.2230E+01   C at   53  2   RLX: 0.224
       a = -1.500      CL =  0.1125
      Cm = -0.0673     CD =  0.00703   =>   CDf =  0.00453    CDp =  0.00249

 Side 1  free  transition at x/c =  0.8862   70
 Side 2  free  transition at x/c =  0.6116   55

   3   rms: 0.8796E-01   max: -.1050E+01   C at   55  2   RLX: 0.476
       a = -1.500      CL =  0.1278
      Cm = -0.0667     CD =  0.00692   =>   CDf =  0.00445    CDp =  0.00247

 Side 1  free  transition at x/c =  0.8763   70
 Side 2  free  transition at x/c =  0.6800   60

   4   rms: 0.6337E-01   max: -.9451E+00   C at   60  2   RLX: 0.529
       a = -1.500      CL =  0.1344
      Cm = -0.0653     CD =  0.00668   =>   CDf =  0.00426    CDp =  0.00242

 Side 1  free  transition at x/c =  0.8740   70
 Side 2  free  transition at x/c =  0.6903   61

   5   rms: 0.2561E-01   max: -.3399E+00   C at   61  2
       a = -1.500      CL =  0.1444
      Cm = -0.0657     CD =  0.00663   =>   CDf =  0.00433    CDp =  0.00230

 Side 1  free  transition at x/c =  0.8723   71
 Side 2  free  transition at x/c =  0.7044   61

   6   rms: 0.6114E-02   max: -.9071E-01   T at    2  1
       a = -1.500      CL =  0.1446
      Cm = -0.0658     CD =  0.00664   =>   CDf =  0.00424    CDp =  0.00240

 Side 1  free  transition at x/c =  0.8724   71
 Side 2  free  transition at x/c =  0.7055   61

   7   rms: 0.3309E-03   max: 0.3694E-02   D at    4  1
       a = -1.500      CL =  0.1446
      Cm = -0.0658     CD =  0.00664   =>   CDf =  0.00423    CDp =  0.00241

 Side 1  free  transition at x/c =  0.8724   71
 Side 2  free  transition at x/c =  0.7055   61

   8   rms: 0.2212E-05   max: 0.2257E-04   D at    4  1
       a = -1.500      CL =  0.1446
      Cm = -0.0658     CD =  0.00664   =>   CDf =  0.00423    CDp =  0.00241
 plradd ia,ip,cpol            6           0  1.49156153E-03

 Point added to stored polar  1
 Point written to save file  sa7035_Re400k.base.pol                          
 Dump file unspecified or not available
 Calculating wake trajectory ...
 Calculating source influence matrix ...

 Solving BL system ...

 Side 1  free  transition at x/c =  0.8724   71
 Side 2  free  transition at x/c =  0.7055   61

   1   rms: 0.1623E+00   max: -.2267E+01   C at   61  2   RLX: 0.221
       a = -1.000      CL =  0.1555
      Cm = -0.0652     CD =  0.00654   =>   CDf =  0.00423    CDp =  0.00231

 Side 1  free  transition at x/c =  0.8688   70
 Side 2  free  transition at x/c =  0.7272   62

   2   rms: 0.8061E-01   max: -.4933E+00   C at   62  2
       a = -1.000      CL =  0.1954
      Cm = -0.0643     CD =  0.00649   =>   CDf =  0.00421    CDp =  0.00228

 Side 1  free  transition at x/c =  0.8418   68
 Side 2  free  transition at x/c =  0.8572   72

   3   rms: 0.5394E-01   max: -.5876E+00   C at   72  2   RLX: 0.851
       a = -1.000      CL =  0.1872
      Cm = -0.0612     CD =  0.00611   =>   CDf =  0.00403    CDp =  0.00208

 Side 1  free  transition at x/c =  0.8497   69
 Side 2  free  transition at x/c =  0.8497   71

   4   rms: 0.1600E-01   max: -.1880E+00   D at   72  2
       a = -1.000      CL =  0.1906
      Cm = -0.0626     CD =  0.00620   =>   CDf =  0.00391    CDp =  0.00230

 Side 1  free  transition at x/c =  0.8478   69
 Side 2  free  transition at x/c =  0.8303   70

   5   rms: 0.2790E-02   max: 0.2579E-01   D at   73  2
       a = -1.000      CL =  0.1912
      Cm = -0.0628     CD =  0.00624   =>   CDf =  0.00395    CDp =  0.00228

 Side 1  free  transition at x/c =  0.8477   69
 Side 2  free  transition at x/c =  0.8299   70

   6   rms: 0.8393E-04   max: 0.1372E-02   C at   70  2
       a = -1.000      CL =  0.1912
      Cm = -0.0628     CD =  0.00624   =>   CDf =  0.00395    CDp =  0.00229
 plradd ia,ip,cpol            7           0  1.49156153E-03

 Point added to stored polar  1
 Point written to save file  sa7035_Re400k.base.pol                          
 Dump file unspecified or not available
 Calculating wake trajectory ...
 Calculating source influence matrix ...

 Solving BL system ...

 Side 1  free  transition at x/c =  0.8477   69
 Side 2  free  transition at x/c =  0.8299   70

   1   rms: 0.1587E+00   max: -.2234E+01   C at   70  2   RLX: 0.224
       a = -0.500      CL =  0.2007
      Cm = -0.0618     CD =  0.00613   =>   CDf =  0.00395    CDp =  0.00218

 Side 1  free  transition at x/c =  0.8428   68
 Side 2  free  transition at x/c =  0.8497   71

   2   rms: 0.9358E-01   max: -.1046E+01   C at   71  2   RLX: 0.478
       a = -0.500      CL =  0.2183
      Cm = -0.0611     CD =  0.00610   =>   CDf =  0.00395    CDp =  0.00215

 Side 1  free  transition at x/c =  0.8293   67
 Side 2  free  transition at x/c =  0.8881   74

   3   rms: 0.6994E-01   max: -.9936E+00   C at   74  2   RLX: 0.503
       a = -0.500      CL =  0.2268
      Cm = -0.0598     CD =  0.00605   =>   CDf =  0.00393    CDp =  0.00212

 Side 1  free  transition at x/c =  0.8249   67
 Side 2  free  transition at x/c =  0.9051   75

   4   rms: 0.3425E-01   max: -.4625E+00   C at   75  2
       a = -0.500      CL =  0.2372
      Cm = -0.0593     CD =  0.00600   =>   CDf =  0.00397    CDp =  0.00203

 Side 1  free  transition at x/c =  0.8210   68
 Side 2  free  transition at x/c =  0.9377   76

   5   rms: 0.7980E-02   max: -.1006E+00   D at    2  1
       a = -0.500      CL =  0.2410
      Cm = -0.0601     CD =  0.00604   =>   CDf =  0.00388    CDp =  0.00215

 Side 1  free  transition at x/c =  0.8215   68
 Side 2  free  transition at x/c =  0.9381   76

   6   rms: 0.4477E-03   max: 0.4580E-02   D at    4  1
       a = -0.500      CL =  0.2410
      Cm = -0.0601     CD =  0.00604   =>   CDf =  0.00388    CDp =  0.00215

 Side 1  free  transition at x/c =  0.8215   68
 Side 2  free  transition at x/c =  0.9380   76

   7   rms: 0.1344E-05   max: 0.1229E-04   D at    4  1
       a = -0.500      CL =  0.2410
      Cm = -0.0601     CD =  0.00604   =>   CDf =  0.00388    CDp =  0.00215
 plradd ia,ip,cpol            8           0  0.18292221    

 Point added to stored polar  1
 Point written to save file  sa7035_Re400k.base.pol                          
 Dump file unspecified or not available
 Calculating wake trajectory ...
 Calculating source influence matrix ...

 Solving BL system ...

 Side 1  free  transition at x/c =  0.8215   68
 Side 2  free  transition at x/c =  0.9380   76

   1   rms: 0.1104E+00   max: -.7038E+00   C at   76  2   RLX: 0.710
       a =  0.000      CL =  0.2859
      Cm = -0.0605     CD =  0.00597   =>   CDf =  0.00389    CDp =  0.00208

 Side 1  free  transition at x/c =  0.8006   66
 Side 2  free  transition at x/c =  0.9787   79

   2   rms: 0.4487E-01   max: 0.1855E+00   D at   81  2
       a =  0.000      CL =  0.3216
      Cm = -0.0649     CD =  0.00595   =>   CDf =  0.00403    CDp =  0.00192

 Side 1  free  transition at x/c =  0.7906   66
 Side 2  free  transition at x/c =  0.9926   80

   3   rms: 0.4635E-02   max: 0.4454E-01   D at   68  1
       a =  0.000      CL =  0.3234
      Cm = -0.0653     CD =  0.00599   =>   CDf =  0.00410    CDp =  0.00188

 Side 1  free  transition at x/c =  0.7917   66
 Side 2  free  transition at x/c =  0.9917   80

   4   rms: 0.1206E-03   max: -.1799E-02   D at   68  1
       a =  0.000      CL =  0.3234
      Cm = -0.0653     CD =  0.00599   =>   CDf =  0.00409    CDp =  0.00190

 Side 1  free  transition at x/c =  0.7917   66
 Side 2  free  transition at x/c =  0.9917   80

   5   rms: 0.9343E-06   max: 0.6396E-05   D at    6  2
       a =  0.000      CL =  0.3234
      Cm = -0.0653     CD =  0.00599   =>   CDf =  0.00409    CDp =  0.00190
 plradd ia,ip,cpol            9           0  0.16934513    

 Point added to stored polar  1
 Point written to save file  sa7035_Re400k.base.pol                          
 Dump file unspecified or not available
 Calculating wake trajectory ...
 Calculating source influence matrix ...

 Solving BL system ...

 Side 1  free  transition at x/c =  0.7917   66
 Side 2  free  transition at x/c =  0.9917   80

   1   rms: 0.1197E+00   max: 0.3591E+00   C at   81  2
       a =  0.500      CL =  0.4122
      Cm = -0.0721     CD =  0.00598   =>   CDf =  0.00415    CDp =  0.00183

 Side 1  free  transition at x/c =  0.7563   64
 Side 2 forced transition at x/c =  1.0000   80

   2   rms: 0.5489E-01   max: -.3984E+00   D at   80  2
       a =  0.500      CL =  0.3807
      Cm = -0.0656     CD =  0.00603   =>   CDf =  0.00435    CDp =  0.00168

 Side 1  free  transition at x/c =  0.7568   64
 Side 2 forced transition at x/c =  1.0000   80

   3   rms: 0.8488E-02   max: 0.8966E-01   C at   80  2
       a =  0.500      CL =  0.3822
      Cm = -0.0659     CD =  0.00607   =>   CDf =  0.00434    CDp =  0.00173

 Side 1  free  transition at x/c =  0.7562   64
 Side 2 forced transition at x/c =  1.0000   80

   4   rms: 0.5858E-03   max: 0.6440E-02   C at   80  2
       a =  0.500      CL =  0.3824
      Cm = -0.0659     CD =  0.00608   =>   CDf =  0.00434    CDp =  0.00174

 Side 1  free  transition at x/c =  0.7562   64
 Side 2 forced transition at x/c =  1.0000   80

   5   rms: 0.4542E-05   max: 0.4880E-04   C at   80  2
       a =  0.500      CL =  0.3824
      Cm = -0.0659     CD =  0.00608   =>   CDf =  0.00434    CDp =  0.00174
 plradd ia,ip,cpol           10           0  0.15585451    

 Point added to stored polar  1
 Point written to save file  sa7035_Re400k.base.pol                          
 Dump file unspecified or not available
 Calculating wake trajectory ...
 Calculating source influence matrix ...

 Solving BL system ...

 Side 1  free  transition at x/c =  0.7562   64
 Side 2 forced transition at x/c =  1.0000   80

   1   rms: 0.8811E-01   max: -.2507E+00   C at   80  2
       a =  1.000      CL =  0.4307
      Cm = -0.0644     CD =  0.00621   =>   CDf =  0.00434    CDp =  0.00187

 Side 1  free  transition at x/c =  0.7141   61
 Side 2 forced transition at x/c =  1.0000   80

   2   rms: 0.1914E-01   max: -.2872E+00   D at   62  1
       a =  1.000      CL =  0.4308
      Cm = -0.0643     CD =  0.00630   =>   CDf =  0.00466    CDp =  0.00164

 Side 1  free  transition at x/c =  0.7199   62
 Side 2 forced transition at x/c =  1.0000   80

   3   rms: 0.2109E-02   max: -.3316E-01   D at   61  1
       a =  1.000      CL =  0.4313
      Cm = -0.0644     CD =  0.00627   =>   CDf =  0.00458    CDp =  0.00169

 Side 1  free  transition at x/c =  0.7188   62
 Side 2 forced transition at x/c =  1.0000   80

   4   rms: 0.2178E-03   max: 0.3275E-02   C at   62  1
       a =  1.000      CL =  0.4313
      Cm = -0.0644     CD =  0.00627   =>   CDf =  0.00457    CDp =  0.00170

 Side 1  free  transition at x/c =  0.7187   62
 Side 2 forced transition at x/c =  1.0000   80

   5   rms: 0.1673E-05   max: -.1601E-04   D at    6  2
       a =  1.000      CL =  0.4313
      Cm = -0.0644     CD =  0.00627   =>   CDf =  0.00458    CDp =  0.00169
 plradd ia,ip,cpol           11           0  0.11592855    

 Point added to stored polar  1
 Point written to save file  sa7035_Re400k.base.pol                          
 Dump file unspecified or not available
 Calculating wake trajectory ...
 Calculating source influence matrix ...

 Solving BL system ...

 Side 1  free  transition at x/c =  0.7187   62
 Side 2 forced transition at x/c =  1.0000   80

   1   rms: 0.9490E-01   max: -.2165E+00   C at   80  2
       a =  1.500      CL =  0.4803
      Cm = -0.0628     CD =  0.00657   =>   CDf =  0.00459    CDp =  0.00198

 Side 1  free  transition at x/c =  0.6803   60
 Side 2 forced transition at x/c =  1.0000   79

   2   rms: 0.2315E-01   max: 0.2837E+00   D at   62  1
       a =  1.500      CL =  0.4814
      Cm = -0.0631     CD =  0.00651   =>   CDf =  0.00481    CDp =  0.00171

 Side 1  free  transition at x/c =  0.6806   60
 Side 2 forced transition at x/c =  1.0000   79

   3   rms: 0.2595E-02   max: -.4195E-01   D at   62  1
       a =  1.500      CL =  0.4816
      Cm = -0.0631     CD =  0.00651   =>   CDf =  0.00477    CDp =  0.00173

 Side 1  free  transition at x/c =  0.6797   60
 Side 2 forced transition at x/c =  1.0000   79

   4   rms: 0.6487E-04   max: -.1495E-02   D at   62  1
       a =  1.500      CL =  0.4816
      Cm = -0.0631     CD =  0.00651   =>   CDf =  0.00479    CDp =  0.00172
 plradd ia,ip,cpol           12           0  0.10299792    

 Point added to stored polar  1
 Point written to save file  sa7035_Re400k.base.pol                          
 Dump file unspecified or not available
 Calculating wake trajectory ...
 Calculating source influence matrix ...

 Solving BL system ...

 Side 1  free  transition at x/c =  0.6797   60
 Side 2 forced transition at x/c =  1.0000   79

   1   rms: 0.9233E-01   max: -.1902E+00   C at   79  2
       a =  2.000      CL =  0.5320
      Cm = -0.0619     CD =  0.00681   =>   CDf =  0.00479    CDp =  0.00202

 Side 1  free  transition at x/c =  0.6360   57
 Side 2 forced transition at x/c =  1.0000   79

   2   rms: 0.1932E-01   max: 0.2942E+00   D at   59  1
       a =  2.000      CL =  0.5325
      Cm = -0.0620     CD =  0.00678   =>   CDf =  0.00505    CDp =  0.00173

 Side 1  free  transition at x/c =  0.6402   57
 Side 2 forced transition at x/c =  1.0000   79

   3   rms: 0.4441E-02   max: -.7260E-01   D at   59  1
       a =  2.000      CL =  0.5325
      Cm = -0.0621     CD =  0.00679   =>   CDf =  0.00497    CDp =  0.00182

 Side 1  free  transition at x/c =  0.6382   57
 Side 2 forced transition at x/c =  1.0000   79

   4   rms: 0.1701E-03   max: -.3909E-02   D at   59  1
       a =  2.000      CL =  0.5325
      Cm = -0.0621     CD =  0.00680   =>   CDf =  0.00499    CDp =  0.00180

 Side 1  free  transition at x/c =  0.6382   57
 Side 2 forced transition at x/c =  1.0000   79

   5   rms: 0.5135E-05   max: -.5770E-04   D at    4  2
       a =  2.000      CL =  0.5325
      Cm = -0.0621     CD =  0.00680   =>   CDf =  0.00499    CDp =  0.00180
 plradd ia,ip,cpol           13           0  9.02772844E-02

 Point added to stored polar  1
 Point written to save file  sa7035_Re400k.base.pol                          
 Dump file unspecified or not available
 Calculating wake trajectory ...
 Calculating source influence matrix ...

 Solving BL system ...

 Side 1  free  transition at x/c =  0.6382   57
 Side 2 forced transition at x/c =  1.0000   79

   1   rms: 0.9419E-01   max: -.1733E+00   C at   79  2
       a =  2.500      CL =  0.5834
      Cm = -0.0610     CD =  0.00713   =>   CDf =  0.00495    CDp =  0.00218

 Side 1  free  transition at x/c =  0.5925   55
 Side 2 forced transition at x/c =  1.0000   78

   2   rms: 0.2039E-01   max: 0.2913E+00   D at   57  1
       a =  2.500      CL =  0.5838
      Cm = -0.0611     CD =  0.00711   =>   CDf =  0.00525    CDp =  0.00186

 Side 1  free  transition at x/c =  0.5973   55
 Side 2 forced transition at x/c =  1.0000   78

   3   rms: 0.5257E-02   max: 0.7846E-01   C at   55  1
       a =  2.500      CL =  0.5838
      Cm = -0.0611     CD =  0.00713   =>   CDf =  0.00516    CDp =  0.00196

 Side 1  free  transition at x/c =  0.5950   55
 Side 2 forced transition at x/c =  1.0000   78

   4   rms: 0.2085E-03   max: -.4653E-02   D at   57  1
       a =  2.500      CL =  0.5838
      Cm = -0.0611     CD =  0.00713   =>   CDf =  0.00519    CDp =  0.00194

 Side 1  free  transition at x/c =  0.5950   55
 Side 2 forced transition at x/c =  1.0000   78

   5   rms: 0.8609E-06   max: -.8548E-05   D at   57  1
       a =  2.500      CL =  0.5838
      Cm = -0.0611     CD =  0.00713   =>   CDf =  0.00519    CDp =  0.00194
 plradd ia,ip,cpol           14           0  6.56244978E-02

 Point added to stored polar  1
 Point written to save file  sa7035_Re400k.base.pol                          
 Dump file unspecified or not available
 Calculating wake trajectory ...
 Calculating source influence matrix ...

 Solving BL system ...

 Side 1  free  transition at x/c =  0.5950   55
 Side 2 forced transition at x/c =  1.0000   78

   1   rms: 0.9472E-01   max: 0.7678E+00   C at   55  1
       a =  3.000      CL =  0.6349
      Cm = -0.0602     CD =  0.00752   =>   CDf =  0.00511    CDp =  0.00241

 Side 1  free  transition at x/c =  0.5518   53
 Side 2 forced transition at x/c =  1.0000   77
 idif Ue xi dudx           1  0.22049975      1.96516514E-03   112.20419    
 Uenew xinew           2  4.01273428E-05  3.57627869E-07

   2   rms: 0.3410E-01   max: -.4957E+00   D at    2  1
       a =  3.000      CL =  0.6354
      Cm = -0.0603     CD =  0.00747   =>   CDf =  0.00551    CDp =  0.00196

 Side 1  free  transition at x/c =  0.5549   52
 Side 2 forced transition at x/c =  1.0000   78

   3   rms: 0.4351E-01   max: 0.7755E+00   T at    2  2
       a =  3.000      CL =  0.6354
      Cm = -0.0603     CD =  0.00749   =>   CDf =  0.00524    CDp =  0.00225

 Side 1  free  transition at x/c =  0.5532   53
 Side 2 forced transition at x/c =  1.0000   77

   4   rms: 0.3151E-01   max: -.5610E+00   D at    2  1   RLX: 0.891
       a =  3.000      CL =  0.6354
      Cm = -0.0603     CD =  0.00749   =>   CDf =  0.00535    CDp =  0.00215

 Side 1  free  transition at x/c =  0.5532   53
 Side 2 forced transition at x/c =  1.0000   77

   5   rms: 0.7271E-01   max: -.1290E+01   D at    2  1   RLX: 0.387
       a =  3.000      CL =  0.6354
      Cm = -0.0603     CD =  0.00749   =>   CDf =  0.00534    CDp =  0.00215

 Side 1  free  transition at x/c =  0.5532   53
 Side 2 forced transition at x/c =  1.0000   77

   6   rms: 0.2756E-01   max: -.5101E+00   T at    2  1   RLX: 0.980
       a =  3.000      CL =  0.6354
      Cm = -0.0603     CD =  0.00749   =>   CDf =  0.00535    CDp =  0.00215

 Side 1  free  transition at x/c =  0.5532   53
 Side 2 forced transition at x/c =  1.0000   77

   7   rms: 0.5611E-03   max: -.6236E-02   D at    4  1
       a =  3.000      CL =  0.6354
      Cm = -0.0603     CD =  0.00749   =>   CDf =  0.00534    CDp =  0.00215

 Side 1  free  transition at x/c =  0.5532   53
 Side 2 forced transition at x/c =  1.0000   77

   8   rms: 0.8598E-05   max: 0.1048E-03   D at    6  1
       a =  3.000      CL =  0.6354
      Cm = -0.0603     CD =  0.00749   =>   CDf =  0.00535    CDp =  0.00215
 plradd ia,ip,cpol           15           0  5.39921224E-02

 Point added to stored polar  1
 Point written to save file  sa7035_Re400k.base.pol                          
 Dump file unspecified or not available
 Calculating wake trajectory ...
 Calculating source influence matrix ...

 Solving BL system ...

 Side 1  free  transition at x/c =  0.5532   53
 Side 2 forced transition at x/c =  1.0000   77

   1   rms: 0.1057E+00   max: -.8495E+00   D at    3  1   RLX: 0.589
       a =  3.500      CL =  0.6655
      Cm = -0.0598     CD =  0.00774   =>   CDf =  0.00535    CDp =  0.00239

 Side 1  free  transition at x/c =  0.5266   51
 Side 2 forced transition at x/c =  1.0000   77

   2   rms: 0.3695E-01   max: -.5445E-01   C at   77  2
       a =  3.500      CL =  0.6872
      Cm = -0.0596     CD =  0.00787   =>   CDf =  0.00547    CDp =  0.00240

 Side 1  free  transition at x/c =  0.5081   50
 Side 2 forced transition at x/c =  1.0000   77

   3   rms: 0.6994E-02   max: -.9895E-01   C at   50  1
       a =  3.500      CL =  0.6868
      Cm = -0.0595     CD =  0.00789   =>   CDf =  0.00554    CDp =  0.00235

 Side 1  free  transition at x/c =  0.5103   50
 Side 2 forced transition at x/c =  1.0000   77

   4   rms: 0.5419E-03   max: 0.7930E-02   C at   50  1
       a =  3.500      CL =  0.6868
      Cm = -0.0595     CD =  0.00790   =>   CDf =  0.00551    CDp =  0.00239

 Side 1  free  transition at x/c =  0.5101   50
 Side 2 forced transition at x/c =  1.0000   77

   5   rms: 0.1850E-05   max: -.3318E-04   D at   52  1
       a =  3.500      CL =  0.6868
      Cm = -0.0595     CD =  0.00790   =>   CDf =  0.00551    CDp =  0.00239
 plradd ia,ip,cpol           16           0  5.39921224E-02

 Point added to stored polar  1
 Point written to save file  sa7035_Re400k.base.pol                          
 Dump file unspecified or not available
 Calculating wake trajectory ...
 Calculating source influence matrix ...

 Solving BL system ...

 Side 1  free  transition at x/c =  0.5101   50
 Side 2 forced transition at x/c =  1.0000   77

   1   rms: 0.9774E-01   max: 0.8662E+00   C at   50  1
       a =  4.000      CL =  0.7377
      Cm = -0.0586     CD =  0.00838   =>   CDf =  0.00537    CDp =  0.00302

 Side 1  free  transition at x/c =  0.4621   47
 Side 2 forced transition at x/c =  1.0000   76

   2   rms: 0.2647E-01   max: -.2806E+00   D at   48  1
       a =  4.000      CL =  0.7375
      Cm = -0.0586     CD =  0.00839   =>   CDf =  0.00572    CDp =  0.00266

 Side 1  free  transition at x/c =  0.4669   48
 Side 2 forced transition at x/c =  1.0000   76

   3   rms: 0.4913E-02   max: -.5244E-01   D at   50  1
       a =  4.000      CL =  0.7379
      Cm = -0.0587     CD =  0.00836   =>   CDf =  0.00565    CDp =  0.00272

 Side 1  free  transition at x/c =  0.4650   48
 Side 2 forced transition at x/c =  1.0000   76

   4   rms: 0.2058E-03   max: -.3524E-02   D at   50  1
       a =  4.000      CL =  0.7379
      Cm = -0.0587     CD =  0.00836   =>   CDf =  0.00566    CDp =  0.00271

 Side 1  free  transition at x/c =  0.4649   48
 Side 2 forced transition at x/c =  1.0000   76

   5   rms: 0.1732E-05   max: 0.1394E-04   D at    7  1
       a =  4.000      CL =  0.7379
      Cm = -0.0587     CD =  0.00836   =>   CDf =  0.00566    CDp =  0.00271
 plradd ia,ip,cpol           17           0  4.29737270E-02

 Point added to stored polar  1
 Point written to save file  sa7035_Re400k.base.pol                          
 Dump file unspecified or not available
 Calculating wake trajectory ...
 Calculating source influence matrix ...

 Solving BL system ...

 Side 1  free  transition at x/c =  0.4649   48
 Side 2 forced transition at x/c =  1.0000   76

   1   rms: 0.1047E+00   max: 0.9873E+00   C at   48  1   RLX: 0.881
       a =  4.500      CL =  0.7817
      Cm = -0.0578     CD =  0.00891   =>   CDf =  0.00566    CDp =  0.00325

 Side 1  free  transition at x/c =  0.4248   45
 Side 2 forced transition at x/c =  1.0000   76

   2   rms: 0.2220E-01   max: 0.2307E+00   D at   47  1
       a =  4.500      CL =  0.7890
      Cm = -0.0579     CD =  0.00885   =>   CDf =  0.00581    CDp =  0.00304

 Side 1  free  transition at x/c =  0.4202   44
 Side 2 forced transition at x/c =  1.0000   76

   3   rms: 0.9846E-03   max: 0.1660E-01   D at   46  1
       a =  4.500      CL =  0.7887
      Cm = -0.0579     CD =  0.00888   =>   CDf =  0.00581    CDp =  0.00307

 Side 1  free  transition at x/c =  0.4200   44
 Side 2 forced transition at x/c =  1.0000   76

   4   rms: 0.4982E-05   max: -.9711E-04   D at   46  1
       a =  4.500      CL =  0.7887
      Cm = -0.0579     CD =  0.00888   =>   CDf =  0.00581    CDp =  0.00307
 plradd ia,ip,cpol           18           0  1.65785402E-02

 Point added to stored polar  1
 Point written to save file  sa7035_Re400k.base.pol                          
 Dump file unspecified or not available
 Calculating wake trajectory ...
 Calculating source influence matrix ...

 Solving BL system ...

 Side 1  free  transition at x/c =  0.4200   44
 Side 2 forced transition at x/c =  1.0000   76

   1   rms: 0.8653E-01   max: 0.3954E+00   C at   44  1
       a =  5.000      CL =  0.8420
      Cm = -0.0575     CD =  0.00919   =>   CDf =  0.00561    CDp =  0.00359

 Side 1  free  transition at x/c =  0.3716   42
 Side 2 forced transition at x/c =  1.0000   75

   2   rms: 0.2270E-01   max: 0.2396E+00   D at   44  1
       a =  5.000      CL =  0.8393
      Cm = -0.0571     CD =  0.00941   =>   CDf =  0.00598    CDp =  0.00343

 Side 1  free  transition at x/c =  0.3779   43
 Side 2 forced transition at x/c =  1.0000   75

   3   rms: 0.4203E-02   max: -.6507E-01   D at   44  1
       a =  5.000      CL =  0.8392
      Cm = -0.0571     CD =  0.00944   =>   CDf =  0.00591    CDp =  0.00353

 Side 1  free  transition at x/c =  0.3767   42
 Side 2 forced transition at x/c =  1.0000   75

   4   rms: 0.4948E-03   max: -.8142E-02   D at   44  1
       a =  5.000      CL =  0.8394
      Cm = -0.0571     CD =  0.00942   =>   CDf =  0.00592    CDp =  0.00351

 Side 1  free  transition at x/c =  0.3764   42
 Side 2 forced transition at x/c =  1.0000   75

   5   rms: 0.4891E-05   max: -.7686E-04   C at   42  1
       a =  5.000      CL =  0.8394
      Cm = -0.0571     CD =  0.00943   =>   CDf =  0.00592    CDp =  0.00351
 plradd ia,ip,cpol           19           0  1.65785402E-02

 Point added to stored polar  1
 Point written to save file  sa7035_Re400k.base.pol                          
 Dump file unspecified or not available
 Calculating wake trajectory ...
 Calculating source influence matrix ...

 Solving BL system ...

 Side 1  free  transition at x/c =  0.3764   42
 Side 2 forced transition at x/c =  1.0000   75

   1   rms: 0.8747E-01   max: 0.4817E+00   C at   42  1
       a =  5.500      CL =  0.8921
      Cm = -0.0567     CD =  0.00981   =>   CDf =  0.00592    CDp =  0.00389

 Side 1  free  transition at x/c =  0.3256   39
 Side 2 forced transition at x/c =  1.0000   75

   2   rms: 0.2390E-01   max: -.2629E+00   C at   39  1
       a =  5.500      CL =  0.8897
      Cm = -0.0563     CD =  0.00999   =>   CDf =  0.00612    CDp =  0.00388

 Side 1  free  transition at x/c =  0.3341   39
 Side 2 forced transition at x/c =  1.0000   75

   3   rms: 0.5178E-02   max: 0.8428E-01   C at   39  1
       a =  5.500      CL =  0.8895
      Cm = -0.0563     CD =  0.01003   =>   CDf =  0.00601    CDp =  0.00402

 Side 1  free  transition at x/c =  0.3311   39
 Side 2 forced transition at x/c =  1.0000   75

   4   rms: 0.2407E-03   max: -.3340E-02   C at   39  1
       a =  5.500      CL =  0.8895
      Cm = -0.0563     CD =  0.01003   =>   CDf =  0.00603    CDp =  0.00400

 Side 1  free  transition at x/c =  0.3312   39
 Side 2 forced transition at x/c =  1.0000   75

   5   rms: 0.1432E-05   max: 0.1056E-04   C at   75  2
       a =  5.500      CL =  0.8895
      Cm = -0.0563     CD =  0.01003   =>   CDf =  0.00603    CDp =  0.00400
 plradd ia,ip,cpol           20           0  1.12832198E-02

 Point added to stored polar  1
 Point written to save file  sa7035_Re400k.base.pol                          
 Dump file unspecified or not available
 Calculating wake trajectory ...
 Calculating source influence matrix ...

 Solving BL system ...

 Side 1  free  transition at x/c =  0.3312   39
 Side 2 forced transition at x/c =  1.0000   75

   1   rms: 0.9715E-01   max: 0.8653E+00   C at   39  1
       a =  6.000      CL =  0.9404
      Cm = -0.0556     CD =  0.01060   =>   CDf =  0.00603    CDp =  0.00457

 Side 1  free  transition at x/c =  0.2773   35
 Side 2 forced transition at x/c =  1.0000   75

   2   rms: 0.3020E-01   max: -.4659E+00   D at   36  1
       a =  6.000      CL =  0.9381
      Cm = -0.0554     CD =  0.01079   =>   CDf =  0.00626    CDp =  0.00453

 Side 1  free  transition at x/c =  0.2851   36
 Side 2 forced transition at x/c =  1.0000   75

   3   rms: 0.6444E-02   max: 0.1048E+00   C at   36  1
       a =  6.000      CL =  0.9384
      Cm = -0.0554     CD =  0.01076   =>   CDf =  0.00616    CDp =  0.00460

 Side 1  free  transition at x/c =  0.2820   36
 Side 2 forced transition at x/c =  1.0000   75

   4   rms: 0.2129E-03   max: 0.6273E-03   U at   38  1
       a =  6.000      CL =  0.9384
      Cm = -0.0554     CD =  0.01076   =>   CDf =  0.00619    CDp =  0.00458

 Side 1  free  transition at x/c =  0.2820   36
 Side 2 forced transition at x/c =  1.0000   75

   5   rms: 0.1262E-05   max: -.7037E-05   D at   37  1
       a =  6.000      CL =  0.9384
      Cm = -0.0554     CD =  0.01076   =>   CDf =  0.00619    CDp =  0.00458
 plradd ia,ip,cpol           21           0  1.75517646E-03

 Point added to stored polar  1
 Point written to save file  sa7035_Re400k.base.pol                          
 Dump file unspecified or not available
 Calculating wake trajectory ...
 Calculating source influence matrix ...

 Solving BL system ...

 Side 1  free  transition at x/c =  0.2820   36
 Side 2 forced transition at x/c =  1.0000   75

   1   rms: 0.1169E+00   max: 0.1196E+01   C at   36  1   RLX: 0.664
       a =  6.500      CL =  0.9694
      Cm = -0.0546     CD =  0.01143   =>   CDf =  0.00589    CDp =  0.00553

 Side 1  free  transition at x/c =  0.2510   34
 Side 2 forced transition at x/c =  1.0000   74

   2   rms: 0.3567E-01   max: 0.2041E+00   D at   36  1
       a =  6.500      CL =  0.9881
      Cm = -0.0546     CD =  0.01142   =>   CDf =  0.00627    CDp =  0.00515

 Side 1  free  transition at x/c =  0.2350   33
 Side 2 forced transition at x/c =  1.0000   74

   3   rms: 0.5898E-02   max: -.9296E-01   C at   33  1
       a =  6.500      CL =  0.9867
      Cm = -0.0544     CD =  0.01156   =>   CDf =  0.00631    CDp =  0.00525

 Side 1  free  transition at x/c =  0.2367   33
 Side 2 forced transition at x/c =  1.0000   74

   4   rms: 0.1490E-03   max: -.2752E-02   D at   35  1
       a =  6.500      CL =  0.9866
      Cm = -0.0544     CD =  0.01156   =>   CDf =  0.00630    CDp =  0.00526

 Side 1  free  transition at x/c =  0.2367   33
 Side 2 forced transition at x/c =  1.0000   74

   5   rms: 0.6698E-06   max: -.6161E-05   D at   35  1
       a =  6.500      CL =  0.9866
      Cm = -0.0544     CD =  0.01156   =>   CDf =  0.00630    CDp =  0.00526
 plradd ia,ip,cpol           22           0  1.75517646E-03

 Point added to stored polar  1
 Point written to save file  sa7035_Re400k.base.pol                          
 Dump file unspecified or not available
 Calculating wake trajectory ...
 Calculating source influence matrix ...

 Solving BL system ...

 Side 1  free  transition at x/c =  0.2367   33
 Side 2 forced transition at x/c =  1.0000   74

   1   rms: 0.8879E-01   max: 0.5344E+00   C at   33  1
       a =  7.000      CL =  1.0377
      Cm = -0.0538     CD =  0.01212   =>   CDf =  0.00630    CDp =  0.00583

 Side 1  free  transition at x/c =  0.1891   30
 Side 2 forced transition at x/c =  1.0000   74

   2   rms: 0.2261E-01   max: -.2449E+00   C at   30  1
       a =  7.000      CL =  1.0344
      Cm = -0.0534     CD =  0.01240   =>   CDf =  0.00646    CDp =  0.00594

 Side 1  free  transition at x/c =  0.1945   30
 Side 2 forced transition at x/c =  1.0000   74

   3   rms: 0.4182E-02   max: 0.7687E-01   C at   30  1
       a =  7.000      CL =  1.0342
      Cm = -0.0534     CD =  0.01243   =>   CDf =  0.00639    CDp =  0.00604

 Side 1  free  transition at x/c =  0.1927   30
 Side 2 forced transition at x/c =  1.0000   74

   4   rms: 0.8916E-04   max: -.1065E-02   C at   30  1
       a =  7.000      CL =  1.0342
      Cm = -0.0534     CD =  0.01243   =>   CDf =  0.00640    CDp =  0.00603
 plradd ia,ip,cpol           23           0  2.61496723E-04

 Point added to stored polar  1
 Point written to save file  sa7035_Re400k.base.pol                          
 Dump file unspecified or not available
 Calculating wake trajectory ...
 Calculating source influence matrix ...

 Solving BL system ...

 Side 1  free  transition at x/c =  0.1927   30
 Side 2 forced transition at x/c =  1.0000   74

   1   rms: 0.9668E-01   max: 0.8675E+00   C at   30  1
       a =  7.500      CL =  1.0830
      Cm = -0.0525     CD =  0.01321   =>   CDf =  0.00606    CDp =  0.00715

 Side 1  free  transition at x/c =  0.1495   28
 Side 2 forced transition at x/c =  1.0000   73

   2   rms: 0.2369E-01   max: -.2288E+00   D at   28  1
       a =  7.500      CL =  1.0805
      Cm = -0.0522     CD =  0.01340   =>   CDf =  0.00653    CDp =  0.00687

 Side 1  free  transition at x/c =  0.1520   28
 Side 2 forced transition at x/c =  1.0000   73

   3   rms: 0.3979E-02   max: 0.7292E-01   C at   28  1
       a =  7.500      CL =  1.0803
      Cm = -0.0522     CD =  0.01343   =>   CDf =  0.00648    CDp =  0.00695

 Side 1  free  transition at x/c =  0.1506   28
 Side 2 forced transition at x/c =  1.0000   73

   4   rms: 0.5688E-04   max: -.4906E-03   D at   28  1
       a =  7.500      CL =  1.0803
      Cm = -0.0522     CD =  0.01343   =>   CDf =  0.00650    CDp =  0.00693
 plradd ia,ip,cpol           24           0  2.61496723E-04

 Point added to stored polar  1
 Point written to save file  sa7035_Re400k.base.pol                          
 Dump file unspecified or not available
 Calculating wake trajectory ...
 Calculating source influence matrix ...

 Solving BL system ...

 Side 1  free  transition at x/c =  0.1506   28
 Side 2 forced transition at x/c =  1.0000   73

   1   rms: 0.1094E+00   max: 0.1130E+01   C at   28  1   RLX: 0.746
       a =  8.000      CL =  1.1147
      Cm = -0.0513     CD =  0.01421   =>   CDf =  0.00650    CDp =  0.00772

 Side 1  free  transition at x/c =  0.1149   25
 Side 2 forced transition at x/c =  1.0000   73

   2   rms: 0.3158E-01   max: -.3798E+00   C at   25  1
       a =  8.000      CL =  1.1254
      Cm = -0.0509     CD =  0.01450   =>   CDf =  0.00668    CDp =  0.00782

 Side 1  free  transition at x/c =  0.1054   25
 Side 2 forced transition at x/c =  1.0000   73

   3   rms: 0.2843E-02   max: 0.3554E-01   D at   26  1
       a =  8.000      CL =  1.1239
      Cm = -0.0507     CD =  0.01465   =>   CDf =  0.00667    CDp =  0.00798

 Side 1  free  transition at x/c =  0.1053   25
 Side 2 forced transition at x/c =  1.0000   73

   4   rms: 0.5901E-04   max: -.8905E-03   D at   26  1
       a =  8.000      CL =  1.1239
      Cm = -0.0507     CD =  0.01465   =>   CDf =  0.00667    CDp =  0.00798
 plradd ia,ip,cpol           25           0  2.61496723E-04

 Point added to stored polar  1
 Point written to save file  sa7035_Re400k.base.pol                          
 Dump file unspecified or not available
 Calculating wake trajectory ...
 Calculating source influence matrix ...

 Solving BL system ...

 Side 1  free  transition at x/c =  0.1053   25
 Side 2 forced transition at x/c =  1.0000   73

   1   rms: 0.1261E+00   max: 0.1124E+01   C at   25  1   RLX: 0.465
       a =  8.500      CL =  1.1427
      Cm = -0.0499     CD =  0.01543   =>   CDf =  0.00667    CDp =  0.00875

 Side 1  free  transition at x/c =  0.0889   23
 Side 2 forced transition at x/c =  1.0000   73

   2   rms: 0.5359E-01   max: -.3574E+00   D at   23  1
       a =  8.500      CL =  1.1684
      Cm = -0.0493     CD =  0.01579   =>   CDf =  0.00675    CDp =  0.00905

 Side 1  free  transition at x/c =  0.0686   22
 Side 2 forced transition at x/c =  1.0000   73

   3   rms: 0.2262E-01   max: -.3520E+00   D at   22  1
       a =  8.500      CL =  1.1662
      Cm = -0.0491     CD =  0.01596   =>   CDf =  0.00675    CDp =  0.00921

 Side 1  free  transition at x/c =  0.0687   22
 Side 2 forced transition at x/c =  1.0000   73

   4   rms: 0.3445E-02   max: 0.3859E-01   C at   22  1
       a =  8.500      CL =  1.1651
      Cm = -0.0489     CD =  0.01608   =>   CDf =  0.00680    CDp =  0.00928

 Side 1  free  transition at x/c =  0.0678   22
 Side 2 forced transition at x/c =  1.0000   73

   5   rms: 0.1132E-03   max: -.1197E-02   D at   23  1
       a =  8.500      CL =  1.1651
      Cm = -0.0489     CD =  0.01608   =>   CDf =  0.00682    CDp =  0.00927

 Side 1  free  transition at x/c =  0.0678   22
 Side 2 forced transition at x/c =  1.0000   73

   6   rms: 0.1529E-05   max: 0.1353E-04   D at   22  1
       a =  8.500      CL =  1.1651
      Cm = -0.0489     CD =  0.01608   =>   CDf =  0.00682    CDp =  0.00927
 plradd ia,ip,cpol           26           0  2.61496723E-04

 Point added to stored polar  1
 Point written to save file  sa7035_Re400k.base.pol                          
 Dump file unspecified or not available
 Calculating wake trajectory ...
 Calculating source influence matrix ...

 Solving BL system ...

 Side 1  free  transition at x/c =  0.0678   22
 Side 2 forced transition at x/c =  1.0000   73

   1   rms: 0.1302E+00   max: -.1226E+01   D at   22  1   RLX: 0.408
       a =  9.000      CL =  1.1796
      Cm = -0.0479     CD =  0.01695   =>   CDf =  0.00682    CDp =  0.01014

 Side 1  free  transition at x/c =  0.0567   21
 Side 2 forced transition at x/c =  1.0000   73

   2   rms: 0.7663E-01   max: -.6779E+00   D at   22  1   RLX: 0.738
       a =  9.000      CL =  1.1965
      Cm = -0.0471     CD =  0.01759   =>   CDf =  0.00644    CDp =  0.01115

 Side 1  free  transition at x/c =  0.0470   21
 Side 2 forced transition at x/c =  1.0000   72

   3   rms: 0.4127E-01   max: -.5780E+00   D at   21  1   RLX: 0.865
       a =  9.000      CL =  1.2055
      Cm = -0.0473     CD =  0.01736   =>   CDf =  0.00675    CDp =  0.01061

 Side 1  free  transition at x/c =  0.0438   21
 Side 2 forced transition at x/c =  1.0000   72

   4   rms: 0.1179E-01   max: -.1924E+00   D at   21  1
       a =  9.000      CL =  1.2018
      Cm = -0.0465     CD =  0.01789   =>   CDf =  0.00683    CDp =  0.01106

 Side 1  free  transition at x/c =  0.0420   20
 Side 2 forced transition at x/c =  1.0000   72

   5   rms: 0.6848E-02   max: -.7028E-01   C at   20  1
       a =  9.000      CL =  1.2027
      Cm = -0.0466     CD =  0.01778   =>   CDf =  0.00686    CDp =  0.01093

 Side 1  free  transition at x/c =  0.0421   20
 Side 2 forced transition at x/c =  1.0000   72

   6   rms: 0.1579E-03   max: 0.1907E-02   C at   20  1
       a =  9.000      CL =  1.2027
      Cm = -0.0466     CD =  0.01779   =>   CDf =  0.00687    CDp =  0.01093

 Side 1  free  transition at x/c =  0.0420   20
 Side 2 forced transition at x/c =  1.0000   72

   7   rms: 0.1292E-05   max: -.4780E-05   C at   72  2
       a =  9.000      CL =  1.2027
      Cm = -0.0466     CD =  0.01779   =>   CDf =  0.00687    CDp =  0.01093
 plradd ia,ip,cpol           27           0  2.61496723E-04

 Point added to stored polar  1
 Point written to save file  sa7035_Re400k.base.pol                          
 Dump file unspecified or not available
 Calculating wake trajectory ...
 Calculating source influence matrix ...

 Solving BL system ...

 Side 1  free  transition at x/c =  0.0420   20
 Side 2 forced transition at x/c =  1.0000   72

   1   rms: 0.9213E-01   max: -.6867E+00   C at   20  1   RLX: 0.728
       a =  9.500      CL =  1.2348
      Cm = -0.0454     CD =  0.01857   =>   CDf =  0.00687    CDp =  0.01170

 Side 1  free  transition at x/c =  0.0322   19
 Side 2 forced transition at x/c =  1.0000   72

   2   rms: 0.4087E-01   max: -.5535E+00   C at   19  1   RLX: 0.903
       a =  9.500      CL =  1.2423
      Cm = -0.0446     CD =  0.01912   =>   CDf =  0.00677    CDp =  0.01236

 Side 1  free  transition at x/c =  0.0283   19
 Side 2 forced transition at x/c =  1.0000   72

   3   rms: 0.8664E-02   max: -.5942E-01   D at   20  1
       a =  9.500      CL =  1.2374
      Cm = -0.0438     CD =  0.01966   =>   CDf =  0.00675    CDp =  0.01290

 Side 1  free  transition at x/c =  0.0272   19
 Side 2 forced transition at x/c =  1.0000   72

   4   rms: 0.4424E-03   max: -.4085E-02   D at   19  1
       a =  9.500      CL =  1.2372
      Cm = -0.0438     CD =  0.01967   =>   CDf =  0.00677    CDp =  0.01289

 Side 1  free  transition at x/c =  0.0272   19
 Side 2 forced transition at x/c =  1.0000   72

   5   rms: 0.6565E-05   max: -.2829E-04   D at   19  1
       a =  9.500      CL =  1.2372
      Cm = -0.0438     CD =  0.01967   =>   CDf =  0.00678    CDp =  0.01289
 plradd ia,ip,cpol           28           0  2.61496723E-04

 Point added to stored polar  1
 Point written to save file  sa7035_Re400k.base.pol                          
 Dump file unspecified or not available
 Calculating wake trajectory ...
 Calculating source influence matrix ...

 Solving BL system ...

 Side 1  free  transition at x/c =  0.0272   19
 Side 2 forced transition at x/c =  1.0000   72

   1   rms: 0.1088E+00   max: -.7961E+00   D at   19  1   RLX: 0.628
       a = 10.000      CL =  1.2569
      Cm = -0.0418     CD =  0.02109   =>   CDf =  0.00678    CDp =  0.01431

 MRCHDU: Convergence failed at  19  side 1    Res =  0.1582E+01
 MRCHDU: Convergence failed at  20  side 1    Res =  0.1142E+01
 MRCHDU: Convergence failed at  21  side 1    Res =  0.2226E+01
 MRCHDU: Convergence failed at  22  side 1    Res =  0.2298E+01
 MRCHDU: Convergence failed at  23  side 1    Res =  0.2491E+01
 MRCHDU: Convergence failed at  24  side 1    Res =  0.2749E+01
 MRCHDU: Convergence failed at  25  side 1    Res =  0.3206E+01
 MRCHDU: Convergence failed at  26  side 1    Res =  0.3818E+01
 MRCHDU: Convergence failed at  27  side 1    Res =  0.4598E+01
 MRCHDU: Convergence failed at  28  side 1    Res =  0.5584E+01
 MRCHDU: Convergence failed at  29  side 1    Res =  0.6729E+01
 MRCHDU: Convergence failed at  30  side 1    Res =  0.8231E+01
 MRCHDU: Convergence failed at  31  side 1    Res =  0.1041E+02
 MRCHDU: Convergence failed at  32  side 1    Res =  0.1371E+02
 MRCHDU: Convergence failed at  33  side 1    Res =  0.2428E+02
 MRCHDU: Convergence failed at  34  side 1    Res =  0.2029E+02
 MRCHDU: Convergence failed at  35  side 1    Res =  0.2062E+02
 MRCHDU: Convergence failed at  36  side 1    Res =  0.2322E+02
 MRCHDU: Convergence failed at  37  side 1    Res =  0.2652E+02
 MRCHDU: Convergence failed at  38  side 1    Res =  0.2997E+02
 MRCHDU: Convergence failed at  39  side 1    Res =  0.3207E+02
 MRCHDU: Convergence failed at  40  side 1    Res =  0.3567E+02
 MRCHDU: Convergence failed at  41  side 1    Res =  0.3946E+02
 MRCHDU: Convergence failed at  42  side 1    Res =  0.4389E+02
 MRCHDU: Convergence failed at  43  side 1    Res =  0.4888E+02
 MRCHDU: Convergence failed at  44  side 1    Res =  0.5486E+02
 MRCHDU: Convergence failed at  45  side 1    Res =  0.6204E+02
 MRCHDU: Convergence failed at  46  side 1    Res =  0.5019E+02
 MRCHDU: Convergence failed at  47  side 1    Res =  0.5321E+02
 MRCHDU: Convergence failed at  48  side 1    Res =  0.5604E+02
 MRCHDU: Convergence failed at  49  side 1    Res =  0.4664E+02
 MRCHDU: Convergence failed at  50  side 1    Res =  0.5084E+02
 MRCHDU: Convergence failed at  51  side 1    Res =  0.5565E+02
 MRCHDU: Convergence failed at  52  side 1    Res =  0.4300E+02
 MRCHDU: Convergence failed at  53  side 1    Res =  0.4921E+02
 MRCHDU: Convergence failed at  54  side 1    Res =  0.5671E+02
 MRCHDU: Convergence failed at  55  side 1    Res =  0.6717E+02
 MRCHDU: Convergence failed at  56  side 1    Res =  0.8154E+02
 MRCHDU: Convergence failed at  57  side 1    Res =  0.4089E+02
 MRCHDU: Convergence failed at  58  side 1    Res =  0.7069E+02
 MRCHDU: Convergence failed at  59  side 1    Res =  0.3038E+02
 MRCHDU: Convergence failed at  60  side 1    Res =  0.2868E+02
 MRCHDU: Convergence failed at  61  side 1    Res =  0.8278E+02
 MRCHDU: Convergence failed at  62  side 1    Res =  0.1386E+03
 MRCHDU: Convergence failed at  63  side 1    Res =  0.5224E+04
 MRCHDU: Convergence failed at  64  side 1    Res =  0.4011E+03
 MRCHDU: Convergence failed at  65  side 1    Res =  0.2075E+03
 MRCHDU: Convergence failed at  66  side 1    Res =  0.1412E+03
 MRCHDU: Convergence failed at  67  side 1    Res =  0.1073E+03
 MRCHDU: Convergence failed at  68  side 1    Res =  0.8652E+02
 MRCHDU: Convergence failed at  69  side 1    Res =  0.1064E+03
 MRCHDU: Convergence failed at  70  side 1    Res =  0.8613E+02
 MRCHDU: Convergence failed at  71  side 1    Res =  0.7270E+02
 MRCHDU: Convergence failed at  72  side 1    Res =  0.4879E+02
 MRCHDU: Convergence failed at  73  side 1    Res =  0.2791E+02
 MRCHDU: Convergence failed at  74  side 1    Res =  0.2615E+02
 MRCHDU: Convergence failed at  75  side 1    Res =  0.2382E+02
 MRCHDU: Convergence failed at  76  side 1    Res =  0.8616E+02
 MRCHDU: Convergence failed at  77  side 1    Res =  0.4715E+02
 MRCHDU: Convergence failed at  78  side 1    Res =  0.7915E+02
 MRCHDU: Convergence failed at  79  side 1    Res =  0.6888E+02
 MRCHDU: Convergence failed at  80  side 1    Res =  0.6144E+02
 MRCHDU: Convergence failed at  81  side 1    Res =  0.5581E+02
 MRCHDU: Convergence failed at  82  side 1    Res =  0.8989E+02
 MRCHDU: Convergence failed at  83  side 1    Res =  0.6883E+02
 MRCHDU: Convergence failed at  84  side 1    Res =  0.5802E+02
 MRCHDU: Convergence failed at  85  side 1    Res =  0.9458E+02
 MRCHDU: Convergence failed at  86  side 1    Res =  0.7407E+03
 MRCHDU: Convergence failed at  87  side 1    Res =  0.3007E+02
 MRCHDU: Convergence failed at  88  side 1    Res =  0.1211E+04
 MRCHDU: Convergence failed at  89  side 1    Res =  0.2146E+03
 MRCHDU: Convergence failed at  90  side 1    Res =  0.7965E+02
 Side 1  free  transition at x/c =  0.0220   18
 Side 2 forced transition at x/c =  1.0000   72

   2   rms: 0.2022E+01   max: 0.7260E+01   D at   74  2   RLX: 0.207
       a = 10.000      CL =  3.2917
      Cm = -0.7343     CD =  0.00463   =>   CDf =  0.00106    CDp =  0.00357

 MRCHDU: Convergence failed at  32  side 1    Res =  0.2011E+00
 MRCHDU: Convergence failed at  33  side 1    Res =  0.1804E+00
 MRCHDU: Convergence failed at  34  side 1    Res =  0.1522E+00
 MRCHDU: Convergence failed at  36  side 1    Res =  0.2055E+00
 MRCHDU: Convergence failed at  37  side 1    Res =  0.1945E+00
 MRCHDU: Convergence failed at  38  side 1    Res =  0.1801E+00
 MRCHDU: Convergence failed at  39  side 1    Res =  0.1661E+00
 MRCHDU: Convergence failed at  40  side 1    Res =  0.1503E+00
 MRCHDU: Convergence failed at  41  side 1    Res =  0.1295E+00
 MRCHDU: Convergence failed at  42  side 1    Res =  0.6801E-01
 MRCHDU: Convergence failed at  75  side 2    Res =  0.2859E+01
 MRCHDU: Convergence failed at  76  side 2    Res =  0.2557E+01
 MRCHDU: Convergence failed at  77  side 2    Res =  0.1336E+01
 Side 1  free  transition at x/c =  0.0233   18
 Side 2 forced transition at x/c =  1.0000   72

   3   rms: 0.7494E+00   max: 0.1129E+01   C at   72  2   RLX: 0.241
       a = 10.000      CL =  2.2935
      Cm = -0.4283     CD =  0.02964   =>   CDf =  0.00463    CDp =  0.02501

 MRCHDU: Convergence failed at  42  side 1    Res =  0.4654E+00
 MRCHDU: Convergence failed at  43  side 1    Res =  0.6333E+00
 MRCHDU: Convergence failed at  44  side 1    Res =  0.1340E+00
 MRCHDU: Convergence failed at  45  side 1    Res =  0.7707E-01
 MRCHDU: Convergence failed at  46  side 1    Res =  0.2349E+01
 MRCHDU: Convergence failed at  47  side 1    Res =  0.1231E+01
 MRCHDU: Convergence failed at  69  side 1    Res =  0.2100E+00
 MRCHDU: Convergence failed at  70  side 1    Res =  0.9415E+00
 Side 1  free  transition at x/c =  0.0233   18
 Side 2 forced transition at x/c =  1.0000   72

   4   rms: 0.7656E+00   max: -.4489E+01   D at   38  1   RLX: 0.111
       a = 10.000      CL =  1.9493
      Cm = -0.3147     CD =  0.03029   =>   CDf =  0.00494    CDp =  0.02535

 MRCHDU: Convergence failed at  45  side 1    Res =  0.2017E+00
 MRCHDU: Convergence failed at  46  side 1    Res =  0.1736E+00
 MRCHDU: Convergence failed at  47  side 1    Res =  0.1629E+00
 MRCHDU: Convergence failed at  71  side 1    Res =  0.1286E+00
 MRCHDU: Convergence failed at  72  side 1    Res =  0.8440E+00
 Side 1  free  transition at x/c =  0.0232   18
 Side 2 forced transition at x/c =  1.0000   72

   5   rms: 0.3025E+01   max: -.2054E+02   D at   38  1   RLX: 0.024
       a = 10.000      CL =  1.7206
      Cm = -0.2044     CD =  0.04330   =>   CDf =  0.00419    CDp =  0.03911

 Side 1  free  transition at x/c =  0.0230   18
 Side 2 forced transition at x/c =  1.0000   72

   6   rms: 0.1483E+01   max: -.1081E+02   D at   38  1   RLX: 0.046
       a = 10.000      CL =  1.6904
      Cm = -0.1923     CD =  0.04671   =>   CDf =  0.00460    CDp =  0.04211

 MRCHDU: Convergence failed at  38  side 1    Res =  0.9576E-01
 Side 1  free  transition at x/c =  0.0233   18
 Side 2 forced transition at x/c =  1.0000   72

   7   rms: 0.5062E+00   max: -.2413E+01   D at   33  1   RLX: 0.207
       a = 10.000      CL =  1.5784
      Cm = -0.1637     CD =  0.04590   =>   CDf =  0.00491    CDp =  0.04099

 MRCHDU: Convergence failed at  38  side 1    Res =  0.5668E-01
 Side 1  free  transition at x/c =  0.0264   19
 Side 2 forced transition at x/c =  1.0000   72

   8   rms: 0.3993E+00   max: -.1802E+01   D at   35  1   RLX: 0.278
       a = 10.000      CL =  1.4378
      Cm = -0.1241     CD =  0.04611   =>   CDf =  0.00505    CDp =  0.04106

 Side 1  free  transition at x/c =  0.0321   19
 Side 2 forced transition at x/c =  1.0000   72

   9   rms: 0.3192E+00   max: -.1135E+01   D at   36  1   RLX: 0.441
       a = 10.000      CL =  1.2862
      Cm = -0.0766     CD =  0.04127   =>   CDf =  0.00501    CDp =  0.03626

 Side 1  free  transition at x/c =  0.0346   20
 Side 2 forced transition at x/c =  1.0000   72

  10   rms: 0.5267E+00   max: 0.1667E+01   T at   20  1   RLX: 0.330
       a = 10.000      CL =  1.2541
      Cm = -0.0396     CD =  0.03355   =>   CDf =  0.00489    CDp =  0.02866

 Side 1  free  transition at x/c =  0.0247   19
 Side 2 forced transition at x/c =  1.0000   72

  11   rms: 0.1115E+01   max: -.4137E+01   D at   55  1   RLX: 0.121
       a = 10.000      CL =  1.2735
      Cm = -0.0427     CD =  0.02650   =>   CDf =  0.00504    CDp =  0.02146

 Side 1  free  transition at x/c =  0.0240   19
 Side 2 forced transition at x/c =  1.0000   72

  12   rms: 0.1003E+01   max: -.3357E+01   D at   68  1   RLX: 0.149
       a = 10.000      CL =  1.3138
      Cm = -0.0403     CD =  0.02340   =>   CDf =  0.00557    CDp =  0.01784

 MRCHDU: Convergence failed at  41  side 1    Res =  0.3448E+00
 Side 1  free  transition at x/c =  0.0229   18
 Side 2 forced transition at x/c =  1.0000   72

  13   rms: 0.4243E+00   max: -.1540E+01   C at   18  1   RLX: 0.325
       a = 10.000      CL =  1.3497
      Cm = -0.0399     CD =  0.02093   =>   CDf =  0.00631    CDp =  0.01462

 Side 1  free  transition at x/c =  0.0187   18
 Side 2 forced transition at x/c =  1.0000   72

  14   rms: 0.1931E+00   max: -.1120E+01   D at   19  1   RLX: 0.446
       a = 10.000      CL =  1.3278
      Cm = -0.0437     CD =  0.02114   =>   CDf =  0.00637    CDp =  0.01477

 Side 1  free  transition at x/c =  0.0193   18
 Side 2 forced transition at x/c =  1.0000   72

  15   rms: 0.8609E-01   max: -.6842E+00   D at   19  1   RLX: 0.731
       a = 10.000      CL =  1.2877
      Cm = -0.0414     CD =  0.02129   =>   CDf =  0.00653    CDp =  0.01476

 Side 1  free  transition at x/c =  0.0194   18
 Side 2 forced transition at x/c =  1.0000   72

  16   rms: 0.2771E-01   max: -.2900E+00   D at   19  1
       a = 10.000      CL =  1.2698
      Cm = -0.0409     CD =  0.02171   =>   CDf =  0.00660    CDp =  0.01511

 Side 1  free  transition at x/c =  0.0190   18
 Side 2 forced transition at x/c =  1.0000   72

  17   rms: 0.5273E-02   max: 0.2634E-01   D at   18  1
       a = 10.000      CL =  1.2667
      Cm = -0.0403     CD =  0.02173   =>   CDf =  0.00663    CDp =  0.01509

 Side 1  free  transition at x/c =  0.0192   18
 Side 2 forced transition at x/c =  1.0000   72

  18   rms: 0.6037E-04   max: 0.5181E-03   D at   18  1
       a = 10.000      CL =  1.2667
      Cm = -0.0403     CD =  0.02173   =>   CDf =  0.00664    CDp =  0.01509
 plradd ia,ip,cpol           29           0  2.61496723E-04

 Point added to stored polar  1
 Point written to save file  sa7035_Re400k.base.pol                          
 Dump file unspecified or not available

.OPERva   c>  
 Solving BL system ...

 Side 1  free  transition at x/c =  0.0192   18
 Side 2 forced transition at x/c =  1.0000   72

   1   rms: 0.7234E-06   max: -.5554E-05   D at   19  1
       a = 10.000      CL =  1.2667
      Cm = -0.0403     CD =  0.02173   =>   CDf =  0.00664    CDp =  0.01509
 plradd ia,ip,cpol           30         182  2.61496723E-04

 Point added to stored polar  1
 Point written to save file  sa7035_Re400k.base.pol                          
 Dump file unspecified or not available
 Calculating wake trajectory ...
 Calculating source influence matrix ...

 Solving BL system ...

 Side 1  free  transition at x/c =  0.0192   18
 Side 2 forced transition at x/c =  1.0000   72

   1   rms: 0.4532E-01   max: 0.2901E+00   T at   18  1
       a = 10.250      CL =  1.2826
      Cm = -0.0389     CD =  0.02264   =>   CDf =  0.00664    CDp =  0.01600

 Side 1  free  transition at x/c =  0.0165   18
 Side 2 forced transition at x/c =  1.0000   72

   2   rms: 0.1852E-01   max: -.9299E-01   D at   18  1
       a = 10.250      CL =  1.2691
      Cm = -0.0371     CD =  0.02364   =>   CDf =  0.00652    CDp =  0.01712

 Side 1  free  transition at x/c =  0.0163   17
 Side 2 forced transition at x/c =  1.0000   72

   3   rms: 0.4215E-02   max: -.3347E-01   D at   17  1
       a = 10.250      CL =  1.2709
      Cm = -0.0373     CD =  0.02344   =>   CDf =  0.00656    CDp =  0.01688

 Side 1  free  transition at x/c =  0.0163   17
 Side 2 forced transition at x/c =  1.0000   72

   4   rms: 0.1211E-03   max: 0.7154E-03   T at   17  1
       a = 10.250      CL =  1.2710
      Cm = -0.0373     CD =  0.02344   =>   CDf =  0.00657    CDp =  0.01688

 Side 1  free  transition at x/c =  0.0163   17
 Side 2 forced transition at x/c =  1.0000   72

   5   rms: 0.2257E-05   max: 0.1282E-04   C at   17  1
       a = 10.250      CL =  1.2710
      Cm = -0.0373     CD =  0.02344   =>   CDf =  0.00656    CDp =  0.01688
 plradd ia,ip,cpol           31           0  2.61496723E-04

 Point added to stored polar  1
 Point written to save file  sa7035_Re400k.base.pol                          
 Dump file unspecified or not available
 Calculating wake trajectory ...
 Calculating source influence matrix ...

 Solving BL system ...

 Side 1  free  transition at x/c =  0.0163   17
 Side 2 forced transition at x/c =  1.0000   72

   1   rms: 0.3904E-01   max: -.3056E+00   C at   17  1
       a = 10.500      CL =  1.2892
      Cm = -0.0360     CD =  0.02398   =>   CDf =  0.00657    CDp =  0.01741

 Side 1  free  transition at x/c =  0.0151   17
 Side 2 forced transition at x/c =  1.0000   72

   2   rms: 0.8095E-02   max: 0.6834E-01   D at   17  1
       a = 10.500      CL =  1.2844
      Cm = -0.0354     CD =  0.02425   =>   CDf =  0.00644    CDp =  0.01781

 Side 1  free  transition at x/c =  0.0150   17
 Side 2 forced transition at x/c =  1.0000   72

   3   rms: 0.1936E-03   max: 0.1598E-02   D at   88  1
       a = 10.500      CL =  1.2843
      Cm = -0.0353     CD =  0.02424   =>   CDf =  0.00644    CDp =  0.01780

 Side 1  free  transition at x/c =  0.0150   17
 Side 2 forced transition at x/c =  1.0000   72

   4   rms: 0.2450E-05   max: -.1844E-04   C at   72  2
       a = 10.500      CL =  1.2843
      Cm = -0.0353     CD =  0.02424   =>   CDf =  0.00644    CDp =  0.01780
 plradd ia,ip,cpol           32           0  2.61496723E-04

 Point added to stored polar  1
 Point written to save file  sa7035_Re400k.base.pol                          
 Dump file unspecified or not available
 Calculating wake trajectory ...
 Calculating source influence matrix ...

 Solving BL system ...

 Side 1  free  transition at x/c =  0.0150   17
 Side 2 forced transition at x/c =  1.0000   72

   1   rms: 0.3790E-01   max: 0.2122E+00   T at   17  1
       a = 10.750      CL =  1.2954
      Cm = -0.0331     CD =  0.02525   =>   CDf =  0.00644    CDp =  0.01882

 Side 1  free  transition at x/c =  0.0132   17
 Side 2 forced transition at x/c =  1.0000   72

   2   rms: 0.1571E-01   max: -.1394E+00   D at   17  1
       a = 10.750      CL =  1.2949
      Cm = -0.0331     CD =  0.02509   =>   CDf =  0.00631    CDp =  0.01878

 Side 1  free  transition at x/c =  0.0133   17
 Side 2 forced transition at x/c =  1.0000   72

   3   rms: 0.9780E-03   max: 0.6660E-02   T at   17  1
       a = 10.750      CL =  1.2956
      Cm = -0.0332     CD =  0.02512   =>   CDf =  0.00636    CDp =  0.01876

 Side 1  free  transition at x/c =  0.0133   17
 Side 2 forced transition at x/c =  1.0000   72

   4   rms: 0.2431E-04   max: -.1332E-03   T at   17  1
       a = 10.750      CL =  1.2956
      Cm = -0.0332     CD =  0.02512   =>   CDf =  0.00636    CDp =  0.01876
 plradd ia,ip,cpol           33           0  2.61496723E-04

 Point added to stored polar  1
 Point written to save file  sa7035_Re400k.base.pol                          
 Dump file unspecified or not available
 Calculating wake trajectory ...
 Calculating source influence matrix ...

 Solving BL system ...

 Side 1  free  transition at x/c =  0.0133   17
 Side 2 forced transition at x/c =  1.0000   72

   1   rms: 0.3841E-01   max: 0.2078E+00   T at   17  1
       a = 11.000      CL =  1.3051
      Cm = -0.0310     CD =  0.02624   =>   CDf =  0.00580    CDp =  0.02044

 Side 1  free  transition at x/c =  0.0120   18
 Side 2 forced transition at x/c =  1.0000   71

   2   rms: 0.1032E-01   max: -.1401E+00   D at    2  1
       a = 11.000      CL =  1.3008
      Cm = -0.0306     CD =  0.02640   =>   CDf =  0.00625    CDp =  0.02015

 Side 1  free  transition at x/c =  0.0122   18
 Side 2 forced transition at x/c =  1.0000   71

   3   rms: 0.1290E-02   max: -.1425E-01   D at    4  1
       a = 11.000      CL =  1.3009
      Cm = -0.0306     CD =  0.02642   =>   CDf =  0.00625    CDp =  0.02017

 Side 1  free  transition at x/c =  0.0121   18
 Side 2 forced transition at x/c =  1.0000   71

   4   rms: 0.3251E-04   max: -.1622E-03   T at   18  1
       a = 11.000      CL =  1.3009
      Cm = -0.0306     CD =  0.02642   =>   CDf =  0.00625    CDp =  0.02017
 plradd ia,ip,cpol           34           0  2.61496723E-04

 Point added to stored polar  1
 Point written to save file  sa7035_Re400k.base.pol                          
 Dump file unspecified or not available
 Calculating wake trajectory ...
 Calculating source influence matrix ...

 Solving BL system ...

[...]
 Calculating source influence matrix ...

 Solving BL system ...

 Side 1  free  transition at x/c =  0.0071   16
 Side 2 forced transition at x/c =  1.0000   71

   1   rms: 0.3649E-01   max: 0.2019E+00   T at   16  1   RLX: 0.948
       a = 13.000      CL =  1.2992
      Cm = -0.0173     CD =  0.04441   =>   CDf =  0.00533    CDp =  0.03907

 Side 1  free  transition at x/c =  0.0067   16
 Side 2 forced transition at x/c =  1.0000   71

   2   rms: 0.6820E-02   max: 0.3918E-01   D at   70  1
       a = 13.000      CL =  1.2951
      Cm = -0.0172     CD =  0.04475   =>   CDf =  0.00517    CDp =  0.03959

 Side 1  free  transition at x/c =  0.0067   16
 Side 2 forced transition at x/c =  1.0000   71

   3   rms: 0.3242E-03   max: 0.3909E-02   D at   83  2
       a = 13.000      CL =  1.2949
      Cm = -0.0172     CD =  0.04469   =>   CDf =  0.00516    CDp =  0.03954

 Side 1  free  transition at x/c =  0.0067   16
 Side 2 forced transition at x/c =  1.0000   71

   4   rms: 0.7815E-05   max: 0.1150E-03   D at   83  2
       a = 13.000      CL =  1.2949
      Cm = -0.0172     CD =  0.04469   =>   CDf =  0.00516    CDp =  0.03953
 plradd ia,ip,cpol           42           0  2.61496723E-04

 Point added to stored polar  1
 Point written to save file  sa7035_Re400k.base.pol                          
 Dump file unspecified or not available
 Calculating wake trajectory ...
 Calculating source influence matrix ...

 Solving BL system ...

 Side 1  free  transition at x/c =  0.0067   16
 Side 2 forced transition at x/c =  1.0000   71

   1   rms: 0.4125E-01   max: 0.1311E+00   D at   65  1   RLX: 0.892
       a = 13.250      CL =  1.2943
      Cm = -0.0171     CD =  0.04787   =>   CDf =  0.00516    CDp =  0.04271

 Side 1  free  transition at x/c =  0.0066   16
 Side 2 forced transition at x/c =  1.0000   71

   2   rms: 0.8701E-02   max: 0.4953E-01   D at   68  1
       a = 13.250      CL =  1.2907
      Cm = -0.0171     CD =  0.04822   =>   CDf =  0.00500    CDp =  0.04322

 Side 1  free  transition at x/c =  0.0066   16
 Side 2 forced transition at x/c =  1.0000   71

   3   rms: 0.6893E-03   max: 0.4276E-02   D at   84  2
       a = 13.250      CL =  1.2903
      Cm = -0.0171     CD =  0.04812   =>   CDf =  0.00498    CDp =  0.04314

 Side 1  free  transition at x/c =  0.0066   16
 Side 2 forced transition at x/c =  1.0000   71

   4   rms: 0.1752E-04   max: 0.1343E-03   D at   84  2
       a = 13.250      CL =  1.2903
      Cm = -0.0171     CD =  0.04812   =>   CDf =  0.00498    CDp =  0.04314
 plradd ia,ip,cpol           43           0  2.61496723E-04

 Point added to stored polar  1
 Point written to save file  sa7035_Re400k.base.pol                          
 Dump file unspecified or not available
 Calculating wake trajectory ...
 Calculating source influence matrix ...

 Solving BL system ...

 Side 1  free  transition at x/c =  0.0066   16
 Side 2 forced transition at x/c =  1.0000   71

   1   rms: 0.4117E-01   max: 0.1736E+00   T at   16  1   RLX: 0.843
       a = 13.500      CL =  1.2902
      Cm = -0.0174     CD =  0.05129   =>   CDf =  0.00498    CDp =  0.04630

 Side 1  free  transition at x/c =  0.0062   16
 Side 2 forced transition at x/c =  1.0000   71

   2   rms: 0.9620E-02   max: 0.5000E-01   D at   65  1
       a = 13.500      CL =  1.2864
      Cm = -0.0176     CD =  0.05184   =>   CDf =  0.00483    CDp =  0.04701

 Side 1  free  transition at x/c =  0.0062   16
 Side 2 forced transition at x/c =  1.0000   71

   3   rms: 0.8629E-03   max: 0.6502E-02   D at   84  2
       a = 13.500      CL =  1.2859
      Cm = -0.0176     CD =  0.05172   =>   CDf =  0.00481    CDp =  0.04691

 Side 1  free  transition at x/c =  0.0062   16
 Side 2 forced transition at x/c =  1.0000   71

   4   rms: 0.2834E-04   max: 0.4063E-03   D at   84  2
       a = 13.500      CL =  1.2859
      Cm = -0.0175     CD =  0.05171   =>   CDf =  0.00481    CDp =  0.04690
 plradd ia,ip,cpol           44           0  2.61496723E-04

 Point added to stored polar  1
 Point written to save file  sa7035_Re400k.base.pol                          
 Dump file unspecified or not available
 Calculating wake trajectory ...
 Calculating source influence matrix ...

 Solving BL system ...

 Side 1  free  transition at x/c =  0.0062   16
 Side 2 forced transition at x/c =  1.0000   71

   1   rms: 0.4178E-01   max: 0.1386E+00   D at   61  1   RLX: 0.797
       a = 13.750      CL =  1.2845
      Cm = -0.0182     CD =  0.05515   =>   CDf =  0.00482    CDp =  0.05034

 Side 1  free  transition at x/c =  0.0060   16
 Side 2 forced transition at x/c =  1.0000   71

   2   rms: 0.1239E-01   max: 0.6103E-01   D at   63  1
       a = 13.750      CL =  1.2803
      Cm = -0.0184     CD =  0.05597   =>   CDf =  0.00467    CDp =  0.05130

 Side 1  free  transition at x/c =  0.0060   16
 Side 2 forced transition at x/c =  1.0000   71

   3   rms: 0.1517E-02   max: 0.8679E-02   D at   62  1
       a = 13.750      CL =  1.2793
      Cm = -0.0184     CD =  0.05581   =>   CDf =  0.00464    CDp =  0.05117

 Side 1  free  transition at x/c =  0.0060   16
 Side 2 forced transition at x/c =  1.0000   71

   4   rms: 0.4506E-04   max: 0.3982E-03   D at   85  2
       a = 13.750      CL =  1.2793
      Cm = -0.0183     CD =  0.05579   =>   CDf =  0.00464    CDp =  0.05115
 plradd ia,ip,cpol           45           0  2.61496723E-04

 Point added to stored polar  1
 Point written to save file  sa7035_Re400k.base.pol                          
 Dump file unspecified or not available
 Calculating wake trajectory ...
 Calculating source influence matrix ...

 Solving BL system ...

 Side 1  free  transition at x/c =  0.0060   16
 Side 2 forced transition at x/c =  1.0000   71

   1   rms: 0.4187E-01   max: 0.1423E+00   D at   58  1   RLX: 0.754
       a = 14.000      CL =  1.2772
      Cm = -0.0192     CD =  0.05937   =>   CDf =  0.00464    CDp =  0.05473

 Side 1  free  transition at x/c =  0.0060   16
 Side 2 forced transition at x/c =  1.0000   71

   2   rms: 0.1425E-01   max: 0.6199E-01   D at   60  1
       a = 14.000      CL =  1.2728
      Cm = -0.0196     CD =  0.06047   =>   CDf =  0.00450    CDp =  0.05597

 Side 1  free  transition at x/c =  0.0060   16
 Side 2 forced transition at x/c =  1.0000   71

   3   rms: 0.2044E-02   max: 0.1093E-01   D at   85  2
       a = 14.000      CL =  1.2715
      Cm = -0.0195     CD =  0.06028   =>   CDf =  0.00446    CDp =  0.05582

 Side 1  free  transition at x/c =  0.0060   16
 Side 2 forced transition at x/c =  1.0000   71

   4   rms: 0.7737E-04   max: 0.8109E-03   D at   85  2
       a = 14.000      CL =  1.2715
      Cm = -0.0195     CD =  0.06025   =>   CDf =  0.00446    CDp =  0.05579
 plradd ia,ip,cpol           46           0  2.61496723E-04

 Point added to stored polar  1
 Point written to save file  sa7035_Re400k.base.pol                          
 Dump file unspecified or not available
 Calculating wake trajectory ...
 Calculating source influence matrix ...

 Solving BL system ...

 Side 1  free  transition at x/c =  0.0060   16
 Side 2 forced transition at x/c =  1.0000   71

   1   rms: 0.4104E-01   max: 0.1430E+00   D at   56  1   RLX: 0.716
       a = 14.250      CL =  1.2698
      Cm = -0.0207     CD =  0.06389   =>   CDf =  0.00446    CDp =  0.05943

 Side 1  free  transition at x/c =  0.0058   16
 Side 2 forced transition at x/c =  1.0000   71

   2   rms: 0.1535E-01   max: 0.7014E-01   D at   58  1
       a = 14.250      CL =  1.2653
      Cm = -0.0213     CD =  0.06521   =>   CDf =  0.00434    CDp =  0.06087

 Side 1  free  transition at x/c =  0.0058   16
 Side 2 forced transition at x/c =  1.0000   71

   3   rms: 0.2489E-02   max: 0.1447E-01   D at   85  2
       a = 14.250      CL =  1.2637
      Cm = -0.0212     CD =  0.06496   =>   CDf =  0.00430    CDp =  0.06066

 Side 1  free  transition at x/c =  0.0058   16
 Side 2 forced transition at x/c =  1.0000   71

   4   rms: 0.9959E-04   max: 0.8040E-03   D at   85  2
       a = 14.250      CL =  1.2637
      Cm = -0.0212     CD =  0.06492   =>   CDf =  0.00430    CDp =  0.06062
 plradd ia,ip,cpol           47           0  2.61496723E-04

 Point added to stored polar  1
 Point written to save file  sa7035_Re400k.base.pol                          
 Dump file unspecified or not available
 Calculating wake trajectory ...
 Calculating source influence matrix ...

 Solving BL system ...

 Side 1  free  transition at x/c =  0.0058   16
 Side 2 forced transition at x/c =  1.0000   71

   1   rms: 0.4239E-01   max: 0.1516E+00   D at   54  1   RLX: 0.679
       a = 14.500      CL =  1.2610
      Cm = -0.0227     CD =  0.06880   =>   CDf =  0.00430    CDp =  0.06450

 Side 1  free  transition at x/c =  0.0057   16
 Side 2 forced transition at x/c =  1.0000   71

   2   rms: 0.1755E-01   max: 0.7673E-01   D at   56  1
       a = 14.500      CL =  1.2559
      Cm = -0.0235     CD =  0.07050   =>   CDf =  0.00418    CDp =  0.06632

 Side 1  free  transition at x/c =  0.0057   16
 Side 2 forced transition at x/c =  1.0000   71

   3   rms: 0.2905E-02   max: 0.1528E-01   D at   86  2
       a = 14.500      CL =  1.2540
      Cm = -0.0234     CD =  0.07017   =>   CDf =  0.00412    CDp =  0.06605

 Side 1  free  transition at x/c =  0.0057   16
 Side 2 forced transition at x/c =  1.0000   71

   4   rms: 0.1195E-03   max: 0.1219E-02   D at   86  2
       a = 14.500      CL =  1.2540
      Cm = -0.0234     CD =  0.07012   =>   CDf =  0.00413    CDp =  0.06599

 Side 1  free  transition at x/c =  0.0057   16
 Side 2 forced transition at x/c =  1.0000   71

   5   rms: 0.1325E-04   max: -.5358E-04   D at   87  2
       a = 14.500      CL =  1.2540
      Cm = -0.0234     CD =  0.07012   =>   CDf =  0.00413    CDp =  0.06599
 plradd ia,ip,cpol           48           0  2.61496723E-04

 Point added to stored polar  1
 Point written to save file  sa7035_Re400k.base.pol                          
 Dump file unspecified or not available
 Calculating wake trajectory ...
 Calculating source influence matrix ...

 Solving BL system ...

 Side 1  free  transition at x/c =  0.0057   16
 Side 2 forced transition at x/c =  1.0000   71

   1   rms: 0.4374E-01   max: 0.1610E+00   D at   52  1   RLX: 0.645
       a = 14.750      CL =  1.2507
      Cm = -0.0250     CD =  0.07427   =>   CDf =  0.00413    CDp =  0.07014

 Side 1  free  transition at x/c =  0.0057   16
 Side 2 forced transition at x/c =  1.0000   71

   2   rms: 0.1932E-01   max: 0.8290E-01   D at   53  1
       a = 14.750      CL =  1.2450
      Cm = -0.0260     CD =  0.07632   =>   CDf =  0.00401    CDp =  0.07230

 Side 1  free  transition at x/c =  0.0056   16
 Side 2 forced transition at x/c =  1.0000   71

   3   rms: 0.3666E-02   max: 0.2184E-01   D at   86  2
       a = 14.750      CL =  1.2428
      Cm = -0.0260     CD =  0.07594   =>   CDf =  0.00395    CDp =  0.07199

 Side 1  free  transition at x/c =  0.0057   16
 Side 2 forced transition at x/c =  1.0000   71

   4   rms: 0.2237E-03   max: 0.2735E-02   D at   86  2
       a = 14.750      CL =  1.2427
      Cm = -0.0259     CD =  0.07586   =>   CDf =  0.00395    CDp =  0.07190

 Side 1  free  transition at x/c =  0.0057   16
 Side 2 forced transition at x/c =  1.0000   71

   5   rms: 0.2248E-04   max: -.8197E-04   D at   88  2
       a = 14.750      CL =  1.2427
      Cm = -0.0259     CD =  0.07586   =>   CDf =  0.00395    CDp =  0.07190
 plradd ia,ip,cpol           49           0  2.61496723E-04

 Point added to stored polar  1
 Point written to save file  sa7035_Re400k.base.pol                          
 Dump file unspecified or not available
 Calculating wake trajectory ...
 Calculating source influence matrix ...

 Solving BL system ...

 Side 1  free  transition at x/c =  0.0057   16
 Side 2 forced transition at x/c =  1.0000   71

   1   rms: 0.4364E-01   max: 0.1636E+00   D at   49  1   RLX: 0.614
       a = 15.000      CL =  1.2392
      Cm = -0.0278     CD =  0.08011   =>   CDf =  0.00395    CDp =  0.07616

 Side 1  free  transition at x/c =  0.0056   16
 Side 2 forced transition at x/c =  1.0000   71

   2   rms: 0.2109E-01   max: 0.9190E-01   D at   51  1
       a = 15.000      CL =  1.2331
      Cm = -0.0291     CD =  0.08260   =>   CDf =  0.00384    CDp =  0.07875

 Side 1  free  transition at x/c =  0.0056   16
 Side 2 forced transition at x/c =  1.0000   71

   3   rms: 0.3873E-02   max: 0.1783E-01   D at   87  2
       a = 15.000      CL =  1.2307
      Cm = -0.0290     CD =  0.08211   =>   CDf =  0.00378    CDp =  0.07833

 Side 1  free  transition at x/c =  0.0056   16
 Side 2 forced transition at x/c =  1.0000   71

   4   rms: 0.1826E-03   max: 0.1442E-02   D at   87  2
       a = 15.000      CL =  1.2306
      Cm = -0.0289     CD =  0.08200   =>   CDf =  0.00378    CDp =  0.07822

 Side 1  free  transition at x/c =  0.0056   16
 Side 2 forced transition at x/c =  1.0000   71

   5   rms: 0.2630E-04   max: -.1047E-03   D at   88  2
       a = 15.000      CL =  1.2306
      Cm = -0.0289     CD =  0.08200   =>   CDf =  0.00378    CDp =  0.07822
 plradd ia,ip,cpol           50           0  2.61496723E-04

 Point added to stored polar  1
 Point written to save file  sa7035_Re400k.base.pol                          
 Dump file unspecified or not available
 Calculating wake trajectory ...
 Calculating source influence matrix ...

 Solving BL system ...

 Side 1  free  transition at x/c =  0.0056   16
 Side 2 forced transition at x/c =  1.0000   71

   1   rms: 0.4418E-01   max: 0.1708E+00   D at   47  1   RLX: 0.585
       a = 15.250      CL =  1.2270
      Cm = -0.0311     CD =  0.08637   =>   CDf =  0.00378    CDp =  0.08259

 Side 1  free  transition at x/c =  0.0055   16
 Side 2 forced transition at x/c =  1.0000   71

   2   rms: 0.2118E-01   max: 0.9031E-01   D at   48  1
       a = 15.250      CL =  1.2211
      Cm = -0.0326     CD =  0.08910   =>   CDf =  0.00369    CDp =  0.08541

 Side 1  free  transition at x/c =  0.0055   16
 Side 2 forced transition at x/c =  1.0000   71

   3   rms: 0.3924E-02   max: 0.1961E-01   D at   87  2
       a = 15.250      CL =  1.2187
      Cm = -0.0324     CD =  0.08854   =>   CDf =  0.00363    CDp =  0.08492

 Side 1  free  transition at x/c =  0.0055   16
 Side 2 forced transition at x/c =  1.0000   71

   4   rms: 0.1827E-03   max: 0.1746E-02   D at   87  2
       a = 15.250      CL =  1.2186
      Cm = -0.0324     CD =  0.08844   =>   CDf =  0.00363    CDp =  0.08481

 Side 1  free  transition at x/c =  0.0055   16
 Side 2 forced transition at x/c =  1.0000   71

   5   rms: 0.2817E-04   max: -.1170E-03   D at   89  2
       a = 15.250      CL =  1.2186
      Cm = -0.0324     CD =  0.08844   =>   CDf =  0.00363    CDp =  0.08481
 plradd ia,ip,cpol           51           0  2.61496723E-04

 Point added to stored polar  1
 Point written to save file  sa7035_Re400k.base.pol                          
 Dump file unspecified or not available
 Calculating wake trajectory ...
 Calculating source influence matrix ...

 Solving BL system ...

 Side 1  free  transition at x/c =  0.0055   16
 Side 2 forced transition at x/c =  1.0000   71

   1   rms: 0.4634E-01   max: 0.1817E+00   D at   45  1   RLX: 0.558
       a = 15.500      CL =  1.2143
      Cm = -0.0346     CD =  0.09316   =>   CDf =  0.00363    CDp =  0.08952

 Side 1  free  transition at x/c =  0.0055   16
 Side 2 forced transition at x/c =  1.0000   71

   2   rms: 0.2475E-01   max: 0.1053E+00   D at   46  1
       a = 15.500      CL =  1.2072
      Cm = -0.0364     CD =  0.09657   =>   CDf =  0.00353    CDp =  0.09305

 Side 1  free  transition at x/c =  0.0055   16
 Side 2 forced transition at x/c =  1.0000   71

   3   rms: 0.5329E-02   max: 0.2840E-01   D at   87  2
       a = 15.500      CL =  1.2040
      Cm = -0.0363     CD =  0.09586   =>   CDf =  0.00344    CDp =  0.09241

 Side 1  free  transition at x/c =  0.0055   16
 Side 2 forced transition at x/c =  1.0000   71

   4   rms: 0.3120E-03   max: 0.2396E-02   D at   87  2
       a = 15.500      CL =  1.2039
      Cm = -0.0363     CD =  0.09567   =>   CDf =  0.00345    CDp =  0.09222

 Side 1  free  transition at x/c =  0.0055   16
 Side 2 forced transition at x/c =  1.0000   71

   5   rms: 0.5107E-04   max: -.2155E-03   D at   89  2
       a = 15.500      CL =  1.2039
      Cm = -0.0363     CD =  0.09567   =>   CDf =  0.00345    CDp =  0.09222
 plradd ia,ip,cpol           52           0  2.61496723E-04

 Point added to stored polar  1
 Point written to save file  sa7035_Re400k.base.pol                          
 Dump file unspecified or not available
 Calculating wake trajectory ...
 Calculating source influence matrix ...

 Solving BL system ...

 Side 1  free  transition at x/c =  0.0055   16
 Side 2 forced transition at x/c =  1.0000   71

   1   rms: 0.4710E-01   max: 0.1884E+00   D at   42  1   RLX: 0.532
       a = 15.750      CL =  1.1996
      Cm = -0.0386     CD =  0.10050   =>   CDf =  0.00345    CDp =  0.09705

 Side 1  free  transition at x/c =  0.0055   16
 Side 2 forced transition at x/c =  1.0000   71

   2   rms: 0.2684E-01   max: 0.1154E+00   D at   44  1
       a = 15.750      CL =  1.1919
      Cm = -0.0407     CD =  0.10448   =>   CDf =  0.00335    CDp =  0.10113

 Side 1  free  transition at x/c =  0.0056   16
 Side 2 forced transition at x/c =  1.0000   71

   3   rms: 0.5881E-02   max: 0.2677E-01   D at   88  2
       a = 15.750      CL =  1.1884
      Cm = -0.0406     CD =  0.10360   =>   CDf =  0.00326    CDp =  0.10034

 Side 1  free  transition at x/c =  0.0056   16
 Side 2 forced transition at x/c =  1.0000   71

   4   rms: 0.3786E-03   max: 0.3053E-02   D at   88  2
       a = 15.750      CL =  1.1883
      Cm = -0.0405     CD =  0.10337   =>   CDf =  0.00327    CDp =  0.10011

 Side 1  free  transition at x/c =  0.0056   16
 Side 2 forced transition at x/c =  1.0000   71

   5   rms: 0.6254E-04   max: -.2578E-03   D at   89  2
       a = 15.750      CL =  1.1884
      Cm = -0.0405     CD =  0.10338   =>   CDf =  0.00327    CDp =  0.10011
 plradd ia,ip,cpol           53           0  2.61496723E-04

 Point added to stored polar  1
 Point written to save file  sa7035_Re400k.base.pol                          
 Dump file unspecified or not available
 Calculating wake trajectory ...
 Calculating source influence matrix ...

 Solving BL system ...

 Side 1  free  transition at x/c =  0.0056   16
 Side 2 forced transition at x/c =  1.0000   71

   1   rms: 0.5033E-01   max: 0.2070E+00   D at   40  1   RLX: 0.508
       a = 16.000      CL =  1.1836
      Cm = -0.0431     CD =  0.10866   =>   CDf =  0.00327    CDp =  0.10539

 Side 1  free  transition at x/c =  0.0056   16
 Side 2 forced transition at x/c =  1.0000   71

   2   rms: 0.2892E-01   max: 0.1203E+00   D at   41  1
       a = 16.000      CL =  1.1754
      Cm = -0.0456     CD =  0.11321   =>   CDf =  0.00317    CDp =  0.11003

 Side 1  free  transition at x/c =  0.0056   16
 Side 2 forced transition at x/c =  1.0000   71

   3   rms: 0.6186E-02   max: 0.2864E-01   D at   88  2
       a = 16.000      CL =  1.1718
      Cm = -0.0454     CD =  0.11199   =>   CDf =  0.00309    CDp =  0.10890

 Side 1  free  transition at x/c =  0.0056   16
 Side 2 forced transition at x/c =  1.0000   71

   4   rms: 0.4387E-03   max: 0.4389E-02   D at   88  2
       a = 16.000      CL =  1.1718
      Cm = -0.0453     CD =  0.11169   =>   CDf =  0.00309    CDp =  0.10860

 Side 1  free  transition at x/c =  0.0056   16
 Side 2 forced transition at x/c =  1.0000   71

   5   rms: 0.6817E-04   max: 0.3169E-03   C at   71  2
       a = 16.000      CL =  1.1718
      Cm = -0.0453     CD =  0.11170   =>   CDf =  0.00309    CDp =  0.10860
 plradd ia,ip,cpol           54           0  2.61496723E-04

 Point added to stored polar  1
 Point written to save file  sa7035_Re400k.base.pol                          
 Dump file unspecified or not available

.OPERva   c>  
 Polar accumulation disabled

.OPERv   c>  
 XFOIL   c>  
 XFOIL   c>  