  
       XFOIL         Version 6.99
  
 Calculated polar for: SA7038                                          
  
 1 1 Reynolds number fixed          Mach number fixed         
  
 xtrf =   1.000 (top)        1.000 (bottom)  
 Mach =   0.000     Re =     0.150 e 6     Ncrit =   9.000
  
   alpha    CL        CD       CDp       CM     Top_Xtr  Bot_Xtr
  ------ -------- --------- --------- -------- -------- --------
-4.000  -0.2368   0.03803   0.03343  -0.0606   0.9747   0.1245
-3.500  -0.1379   0.02306   0.01570  -0.0661   0.9701   0.0417
-3.000  -0.0624   0.02032   0.01253  -0.0697   0.9583   0.0457
-2.500   0.0137   0.01810   0.01010  -0.0729   0.9457   0.0500
-2.000   0.0889   0.01525   0.00802  -0.0768   0.9329   0.2099
-1.500   0.1466   0.01306   0.00810  -0.0760   0.9192   0.8128
-1.000   0.2538   0.01255   0.00732  -0.0850   0.9097   1.0000
-0.500   0.3254   0.01226   0.00670  -0.0875   0.8918   1.0000
0.000   0.3929   0.01187   0.00606  -0.0887   0.8734   1.0000
0.500   0.4491   0.01161   0.00561  -0.0877   0.8495   1.0000
1.000   0.5051   0.01135   0.00518  -0.0866   0.8245   1.0000
1.500   0.5591   0.01117   0.00484  -0.0851   0.7953   1.0000
2.000   0.6124   0.01111   0.00462  -0.0835   0.7623   1.0000
2.500   0.6648   0.01120   0.00454  -0.0820   0.7256   1.0000
3.000   0.7168   0.01142   0.00460  -0.0805   0.6865   1.0000
3.500   0.7678   0.01178   0.00478  -0.0790   0.6442   1.0000
4.000   0.8176   0.01223   0.00510  -0.0775   0.5993   1.0000
4.500   0.8668   0.01278   0.00551  -0.0759   0.5535   1.0000
5.000   0.9150   0.01341   0.00604  -0.0743   0.5072   1.0000
6.000   1.0078   0.01497   0.00740  -0.0709   0.4119   1.0000
6.500   1.0524   0.01592   0.00826  -0.0690   0.3654   1.0000
7.000   1.0955   0.01701   0.00926  -0.0670   0.3206   1.0000
7.500   1.1365   0.01824   0.01043  -0.0648   0.2766   1.0000
8.000   1.1752   0.01958   0.01172  -0.0624   0.2343   1.0000
8.500   1.2118   0.02106   0.01325  -0.0598   0.1947   1.0000
9.000   1.2451   0.02278   0.01501  -0.0568   0.1585   1.0000
9.500   1.2727   0.02489   0.01707  -0.0532   0.1262   1.0000
10.000   1.2936   0.02743   0.01957  -0.0489   0.0986   1.0000
10.250   1.3019   0.02857   0.02080  -0.0464   0.0875   1.0000
10.500   1.3095   0.02972   0.02209  -0.0440   0.0771   1.0000
10.750   1.3156   0.03093   0.02338  -0.0418   0.0669   1.0000
11.000   1.3196   0.03250   0.02499  -0.0395   0.0588   1.0000
11.250   1.3218   0.03426   0.02679  -0.0373   0.0517   1.0000
11.500   1.3236   0.03627   0.02897  -0.0351   0.0440   1.0000
11.750   1.3196   0.03903   0.03176  -0.0329   0.0383   1.0000
12.000   1.3179   0.04145   0.03431  -0.0313   0.0326   1.0000
12.250   1.3135   0.04474   0.03765  -0.0297   0.0293   1.0000
12.500   1.3130   0.04743   0.04058  -0.0286   0.0263   1.0000
12.750   1.3126   0.05034   0.04361  -0.0277   0.0246   1.0000
13.000   1.3108   0.05356   0.04692  -0.0271   0.0233   1.0000
13.250   1.3096   0.05743   0.05090  -0.0263   0.0223   1.0000
13.500   1.3058   0.06171   0.05542  -0.0259   0.0217   1.0000
13.750   1.3001   0.06573   0.05971  -0.0261   0.0214   1.0000
14.000   1.2920   0.07031   0.06455  -0.0268   0.0211   1.0000
14.250   1.2818   0.07523   0.06973  -0.0280   0.0210   1.0000
14.500   1.2690   0.08076   0.07551  -0.0298   0.0209   1.0000
14.750   1.2538   0.08689   0.08188  -0.0324   0.0208   1.0000
15.000   1.2380   0.09347   0.08870  -0.0356   0.0209   1.0000
15.250   1.2205   0.10073   0.09618  -0.0395   0.0209   1.0000
15.500   1.2022   0.10856   0.10422  -0.0441   0.0210   1.0000
15.750   1.1827   0.11712   0.11297  -0.0494   0.0212   1.0000
16.000   1.1632   0.12616   0.12218  -0.0552   0.0214   1.0000
