  
       XFOIL         Version 6.99
  
 Calculated polar for: SA7025                                          
  
 1 1 Reynolds number fixed          Mach number fixed         
  
 xtrf =   1.000 (top)        1.000 (bottom)  
 Mach =   0.000     Re =     0.200 e 6     Ncrit =   9.000
  
   alpha    CL        CD       CDp       CM     Top_Xtr  Bot_Xtr
  ------ -------- --------- --------- -------- -------- --------
-4.000  -0.1554   0.03633   0.03212  -0.0758   0.9655   0.0721
-3.000   0.0395   0.00533  -0.00124  -0.0878   0.9425   0.0320
-2.500   0.1064   0.00362  -0.00329  -0.0896   0.9318   0.0341
-2.000   0.1761   0.00272  -0.00433  -0.0921   0.9215   0.0396
-1.500   0.2455   0.00176  -0.00453  -0.0952   0.9130   0.2833
-1.000   0.3079   0.00124  -0.00322  -0.0955   0.9035   1.0000
-0.500   0.3675   0.00124  -0.00357  -0.0957   0.8886   1.0000
0.000   0.4202   0.00125  -0.00378  -0.0945   0.8692   1.0000
0.500   0.4740   0.00126  -0.00397  -0.0934   0.8499   1.0000
1.000   0.5262   0.00128  -0.00410  -0.0921   0.8273   1.0000
1.500   0.5786   0.00130  -0.00421  -0.0908   0.8013   1.0000
2.000   0.6305   0.00134  -0.00429  -0.0895   0.7701   1.0000
2.500   0.6825   0.00141  -0.00434  -0.0882   0.7355   1.0000
3.000   0.7334   0.00152  -0.00439  -0.0869   0.6955   1.0000
3.500   0.7832   0.00166  -0.00435  -0.0856   0.6508   1.0000
4.000   0.8321   0.00184  -0.00430  -0.0841   0.6038   1.0000
4.500   0.8798   0.00207  -0.00419  -0.0826   0.5543   1.0000
5.000   0.9262   0.00235  -0.00397  -0.0809   0.5014   1.0000
5.500   0.9713   0.00271  -0.00371  -0.0792   0.4478   1.0000
6.000   1.0128   0.00317  -0.00337  -0.0770   0.3804   1.0000
6.500   1.0521   0.00377  -0.00296  -0.0746   0.3043   1.0000
7.000   1.0886   0.00462  -0.00236  -0.0721   0.2246   1.0000
7.500   1.1208   0.00602  -0.00135  -0.0692   0.1291   1.0000
8.000   1.1328   0.00958   0.00149  -0.0633   0.0237   1.0000
8.500   1.1493   0.01250   0.00467  -0.0580   0.0172   1.0000
9.000   1.1594   0.01540   0.00788  -0.0518   0.0158   1.0000
9.500   1.1694   0.01928   0.01203  -0.0463   0.0149   1.0000
10.000   1.1865   0.02436   0.01742  -0.0422   0.0144   1.0000
10.250   1.1972   0.02741   0.02067  -0.0404   0.0144   1.0000
10.500   1.2058   0.03080   0.02435  -0.0385   0.0144   1.0000
10.750   1.2105   0.03446   0.02829  -0.0365   0.0146   1.0000
11.000   1.2095   0.03839   0.03253  -0.0343   0.0148   1.0000
11.250   1.2028   0.04264   0.03708  -0.0322   0.0150   1.0000
11.500   1.1916   0.04710   0.04183  -0.0303   0.0153   1.0000
11.750   1.1768   0.05204   0.04706  -0.0289   0.0155   1.0000
12.000   1.1591   0.05734   0.05261  -0.0280   0.0156   1.0000
12.250   1.1399   0.06298   0.05850  -0.0280   0.0158   1.0000
12.500   1.1182   0.06927   0.06502  -0.0287   0.0159   1.0000
12.750   1.0959   0.07582   0.07179  -0.0303   0.0160   1.0000
13.000   1.0724   0.08263   0.07880  -0.0327   0.0161   1.0000
13.250   1.0476   0.08986   0.08624  -0.0359   0.0162   1.0000
13.500   1.0231   0.09710   0.09367  -0.0397   0.0163   1.0000
13.750   0.9950   0.10441   0.10115  -0.0442   0.0164   1.0000
14.000   0.9680   0.11181   0.10872  -0.0492   0.0165   1.0000
14.250   0.9417   0.12017   0.11722  -0.0550   0.0167   1.0000
14.500   0.9167   0.12911   0.12626  -0.0612   0.0168   1.0000
14.750   0.8903   0.13922   0.13647  -0.0680   0.0170   1.0000
15.000   0.8660   0.14938   0.14667  -0.0741   0.0175   1.0000
