
 ===================================================
  XFOIL Version 6.99
  Copyright (C) 2000   Mark Drela, Harold Youngren

  This software comes with ABSOLUTELY NO WARRANTY,
    subject to the GNU General Public License.

  Caveat computor
 ===================================================

 File  xfoil.def  not found

   QUIT    Exit program

  .OPER    Direct operating point(s)
  .MDES    Complex mapping design routine
  .QDES    Surface speed design routine
  .GDES    Geometry design routine

   SAVE f  Write airfoil to labeled coordinate file
   PSAV f  Write airfoil to plain coordinate file
   ISAV f  Write airfoil to ISES coordinate file
   MSAV f  Write airfoil to MSES coordinate file
   REVE    Reverse written-airfoil node ordering

   LOAD f  Read buffer airfoil from coordinate file
   NACA i  Set NACA 4,5-digit airfoil and buffer airfoil
   INTE    Set buffer airfoil by interpolating two airfoils
   NORM    Buffer airfoil normalization toggle
   XYCM rr Change CM reference location, currently  0.25000 0.00000

   BEND    Display structural properties of current airfoil

   PCOP    Set current-airfoil panel nodes directly from buffer airfoil points
   PANE    Set current-airfoil panel nodes ( 160 ) based on curvature
  .PPAR    Show/change paneling

  .PLOP    Plotting options

   WDEF f  Write  current-settings file
   RDEF f  Reread current-settings file
   NAME s  Specify new airfoil name
   NINC    Increment name version number

   Z       Zoom    | (available in all menus)
   U       Unzoom  | 

 XFOIL   c>  
 Labeled airfoil file.  Name:  SA7038                                          

 Number of input coordinate points:  81
 Counterclockwise ordering
 Max thickness =     0.092048  at x =   0.285
 Max camber    =     0.032650  at x =   0.425

  LE  x,y  =   0.00005  -0.00044  |   Chord =   0.99995
  TE  x,y  =   1.00000   0.00000  |

 Current airfoil nodes set from buffer airfoil nodes (  81 )

 WARNING: Poor input coordinate distribution
          Excessive panel angle   40.4  at i =  43
          Repaneling with PANE and/or PPAR suggested
           (doing GDES,CADD before repaneling _may_
            improve excessively coarse LE spacing

 XFOIL   c>  
 XFOIL   c>  
 Sharp trailing edge

 Paneling parameters used...
   Number of panel nodes       160
   Panel bunching parameter    1.000
   TE/LE panel density ratio   0.150
   Refined-area/LE panel density ratio    0.200
   Top    side refined area x/c limits  1.000 1.000
   Bottom side refined area x/c limits  1.000 1.000

 XFOIL   c>  
.OPERi   c>  
 Xtr/c     =  1.0000    top    side
 Xtr/c     =  1.0000    bottom side
 Ncrit     =    9.00   ( 0.070 % turb. level )
 Vacc      =  0.0100

 Klag  =  5.6000     Uxwt  =    1.00
 A     =  6.7000     B     =  0.7500       KCt = 0.01485
 CtiniK=  1.8000     CtiniX=  3.3000

..VPAR   c>  
..VPAR   c>  
.OPERi   c>  
 M  =    0.0000
 Re =    400000

.OPERv   c>  
.OPERv   c>  
.OPERv   c>  
 Polar  1 newly created for accumulation
 Airfoil archived with polar: SA7038                                          

Enter  polar save filename  OR  <return> for no file   s>  
 New polar save file available

Enter  polar dump filename  OR  <return> for no file   s>  
 Polar dump file will NOT be written

 Polar accumulation enabled

.OPERva   c>   Calculating unit vorticity distributions ...
 Calculating wake trajectory ...
 Calculating source influence matrix ...

 Solving BL system ...

 Initializing BL ...
    side            1  ...
 MRCHUE: Inverse mode at  61     Hk =   4.206
 MRCHUE: Inverse mode at  62     Hk =   4.645
 MRCHUE: Inverse mode at  63     Hk =   5.079
 MRCHUE: Inverse mode at  64     Hk =   5.507
 MRCHUE: Inverse mode at  65     Hk =   5.931
 MRCHUE: Inverse mode at  66     Hk =   6.352
 MRCHUE: Inverse mode at  67     Hk =   6.770
 MRCHUE: Inverse mode at  68     Hk =   7.187
 MRCHUE: Inverse mode at  69     Hk =   7.601
 MRCHUE: Inverse mode at  70     Hk =   8.015
 MRCHUE: Inverse mode at  71     Hk =   8.427
 MRCHUE: Inverse mode at  72     Hk =   7.525
 MRCHUE: Inverse mode at  73     Hk =   5.898
 MRCHUE: Inverse mode at  74     Hk =   4.759
 MRCHUE: Inverse mode at  75     Hk =   3.925
 MRCHUE: Inverse mode at  76     Hk =   3.337
 MRCHUE: Inverse mode at  77     Hk =   3.070
    side            2  ...
 MRCHUE: Inverse mode at  11     Hk =   3.942
 MRCHUE: Convergence failed at  12  side 2    Res =  0.2583E+01
 MRCHUE: Inverse mode at  13     Hk =   5.580
 MRCHUE: Inverse mode at  14     Hk =   7.138
 MRCHUE: Inverse mode at  15     Hk =   8.781
 MRCHUE: Inverse mode at  16     Hk =   5.135
 MRCHUE: Inverse mode at  17     Hk =   2.500

 MRCHDU: Convergence failed at  16  side 2    Res =  0.6675E+01
 MRCHDU: Convergence failed at  17  side 2    Res =  0.2906E+02
 MRCHDU: Convergence failed at  18  side 2    Res =  0.5806E+01
 MRCHDU: Convergence failed at  19  side 2    Res =  0.7340E+01
 MRCHDU: Convergence failed at  20  side 2    Res =  0.9549E+01
 MRCHDU: Convergence failed at  21  side 2    Res =  0.3998E+02
 MRCHDU: Convergence failed at  22  side 2    Res =  0.4835E+02
 MRCHDU: Convergence failed at  23  side 2    Res =  0.1535E+02
 MRCHDU: Convergence failed at  24  side 2    Res =  0.1533E+02
 MRCHDU: Convergence failed at  25  side 2    Res =  0.1650E+02
 MRCHDU: Convergence failed at  26  side 2    Res =  0.1675E+02
 MRCHDU: Convergence failed at  27  side 2    Res =  0.1711E+02
 MRCHDU: Convergence failed at  28  side 2    Res =  0.4172E+02
 MRCHDU: Convergence failed at  29  side 2    Res =  0.4453E+02
 MRCHDU: Convergence failed at  30  side 2    Res =  0.2564E+02
 MRCHDU: Convergence failed at  31  side 2    Res =  0.2804E+02
 MRCHDU: Convergence failed at  32  side 2    Res =  0.2638E+02
 MRCHDU: Convergence failed at  33  side 2    Res =  0.2843E+02
 MRCHDU: Convergence failed at  34  side 2    Res =  0.2572E+02
 MRCHDU: Convergence failed at  35  side 2    Res =  0.2137E+02
 MRCHDU: Convergence failed at  36  side 2    Res =  0.2243E+02
 MRCHDU: Convergence failed at  37  side 2    Res =  0.2361E+02
 MRCHDU: Convergence failed at  38  side 2    Res =  0.2480E+02
 MRCHDU: Convergence failed at  39  side 2    Res =  0.2609E+02
 MRCHDU: Convergence failed at  40  side 2    Res =  0.2737E+02
 MRCHDU: Convergence failed at  41  side 2    Res =  0.2864E+02
 MRCHDU: Convergence failed at  42  side 2    Res =  0.2992E+02
 MRCHDU: Convergence failed at  43  side 2    Res =  0.3134E+02
 MRCHDU: Convergence failed at  44  side 2    Res =  0.2514E+02
 MRCHDU: Convergence failed at  45  side 2    Res =  0.2617E+02
 MRCHDU: Convergence failed at  46  side 2    Res =  0.2719E+02
 MRCHDU: Convergence failed at  47  side 2    Res =  0.4115E+02
 MRCHDU: Convergence failed at  48  side 2    Res =  0.4307E+02
 MRCHDU: Convergence failed at  49  side 2    Res =  0.3413E+02
 MRCHDU: Convergence failed at  50  side 2    Res =  0.3569E+02
 MRCHDU: Convergence failed at  51  side 2    Res =  0.3742E+02
 MRCHDU: Convergence failed at  52  side 2    Res =  0.3910E+02
 MRCHDU: Convergence failed at  53  side 2    Res =  0.4104E+02
 MRCHDU: Convergence failed at  54  side 2    Res =  0.4280E+02
 MRCHDU: Convergence failed at  55  side 2    Res =  0.4539E+02
 MRCHDU: Convergence failed at  56  side 2    Res =  0.4768E+02
 MRCHDU: Convergence failed at  57  side 2    Res =  0.5016E+02
 MRCHDU: Convergence failed at  58  side 2    Res =  0.6299E+02
 MRCHDU: Convergence failed at  59  side 2    Res =  0.6698E+02
 MRCHDU: Convergence failed at  60  side 2    Res =  0.7142E+02
 MRCHDU: Convergence failed at  61  side 2    Res =  0.7633E+02
 MRCHDU: Convergence failed at  62  side 2    Res =  0.8269E+02
 MRCHDU: Convergence failed at  63  side 2    Res =  0.8865E+02
 MRCHDU: Convergence failed at  64  side 2    Res =  0.9661E+02
 MRCHDU: Convergence failed at  65  side 2    Res =  0.1046E+03
 MRCHDU: Convergence failed at  66  side 2    Res =  0.1165E+03
 MRCHDU: Convergence failed at  67  side 2    Res =  0.1247E+03
 MRCHDU: Convergence failed at  68  side 2    Res =  0.1429E+03
 MRCHDU: Convergence failed at  69  side 2    Res =  0.1597E+03
 MRCHDU: Convergence failed at  70  side 2    Res =  0.1843E+03
 MRCHDU: Convergence failed at  71  side 2    Res =  0.2146E+03
 MRCHDU: Convergence failed at  72  side 2    Res =  0.2599E+03
 MRCHDU: Convergence failed at  73  side 2    Res =  0.7641E+02
 MRCHDU: Convergence failed at  74  side 2    Res =  0.7974E+02
 MRCHDU: Convergence failed at  75  side 2    Res =  0.8409E+02
 MRCHDU: Convergence failed at  76  side 2    Res =  0.8845E+02
 MRCHDU: Convergence failed at  77  side 2    Res =  0.9402E+02
 MRCHDU: Convergence failed at  78  side 2    Res =  0.1009E+03
 MRCHDU: Convergence failed at  79  side 2    Res =  0.1113E+03
 MRCHDU: Convergence failed at  80  side 2    Res =  0.1240E+03
 MRCHDU: Convergence failed at  81  side 2    Res =  0.1435E+03
 MRCHDU: Convergence failed at  82  side 2    Res =  0.1853E+03
 MRCHDU: Convergence failed at  83  side 2    Res =  0.3007E+03
 MRCHDU: Convergence failed at  84  side 2    Res =  0.2164E+03
 MRCHDU: Convergence failed at  85  side 2    Res =  0.1005E+03
 Side 1  free  transition at x/c =  0.9353   72
 Side 2  free  transition at x/c =  0.0278   16

   1   rms: 0.1423E+01   max: 0.1517E+01   D at   87  2   RLX: 0.397
       a = -4.000      CL = -1.2707
      Cm =  0.2705     CD =  0.00614   =>   CDf =  0.00181    CDp =  0.00434

 MRCHDU: Convergence failed at  21  side 2    Res =  0.2021E+00
 MRCHDU: Convergence failed at  22  side 2    Res =  0.1775E+00
 MRCHDU: Convergence failed at  23  side 2    Res =  0.1431E+00
 MRCHDU: Convergence failed at  25  side 2    Res =  0.2882E+00
 MRCHDU: Convergence failed at  26  side 2    Res =  0.2597E+00
 MRCHDU: Convergence failed at  27  side 2    Res =  0.2239E+00
 MRCHDU: Convergence failed at  29  side 2    Res =  0.3291E+00
 MRCHDU: Convergence failed at  30  side 2    Res =  0.3041E+00
 MRCHDU: Convergence failed at  31  side 2    Res =  0.2760E+00
 MRCHDU: Convergence failed at  32  side 2    Res =  0.2382E+00
 MRCHDU: Convergence failed at  33  side 2    Res =  0.5791E-01
 MRCHDU: Convergence failed at  58  side 2    Res =  0.1800E+00
 MRCHDU: Convergence failed at  59  side 2    Res =  0.1726E+00
 MRCHDU: Convergence failed at  60  side 2    Res =  0.1650E+00
 MRCHDU: Convergence failed at  61  side 2    Res =  0.1571E+00
 MRCHDU: Convergence failed at  62  side 2    Res =  0.1491E+00
 MRCHDU: Convergence failed at  63  side 2    Res =  0.1405E+00
 MRCHDU: Convergence failed at  64  side 2    Res =  0.1315E+00
 MRCHDU: Convergence failed at  65  side 2    Res =  0.1218E+00
 MRCHDU: Convergence failed at  66  side 2    Res =  0.1114E+00
 MRCHDU: Convergence failed at  67  side 2    Res =  0.1005E+00
 MRCHDU: Convergence failed at  68  side 2    Res =  0.8797E-01
 MRCHDU: Convergence failed at  69  side 2    Res =  0.1819E+01
 MRCHDU: Convergence failed at  70  side 2    Res =  0.4772E+00
 MRCHDU: Convergence failed at  71  side 2    Res =  0.4439E+00
 Side 1  free  transition at x/c =  0.9576   74
 Side 2  free  transition at x/c =  0.0241   16

   2   rms: 0.5480E+00   max: 0.2257E+01   T at   16  2   RLX: 0.393
       a = -4.000      CL = -0.4620
      Cm =  0.0386     CD =  0.02335   =>   CDf =  0.00370    CDp =  0.01965

 MRCHDU: Convergence failed at  16  side 2    Res =  0.1124E+02
 MRCHDU: Convergence failed at  17  side 2    Res =  0.2266E+02
 MRCHDU: Convergence failed at  18  side 2    Res =  0.1965E+02
 MRCHDU: Convergence failed at  19  side 2    Res =  0.1585E+02
 MRCHDU: Convergence failed at  20  side 2    Res =  0.3195E+02
 MRCHDU: Convergence failed at  21  side 2    Res =  0.7878E+01
 MRCHDU: Convergence failed at  22  side 2    Res =  0.7318E+01
 MRCHDU: Convergence failed at  23  side 2    Res =  0.1008E+02
 MRCHDU: Convergence failed at  24  side 2    Res =  0.1090E+03
 MRCHDU: Convergence failed at  25  side 2    Res =  0.3893E+02
 MRCHDU: Convergence failed at  26  side 2    Res =  0.2518E+02
 MRCHDU: Convergence failed at  27  side 2    Res =  0.1853E+02
 MRCHDU: Convergence failed at  28  side 2    Res =  0.1221E+02
 MRCHDU: Convergence failed at  29  side 2    Res =  0.1375E+02
 MRCHDU: Convergence failed at  30  side 2    Res =  0.1652E+02
 MRCHDU: Convergence failed at  31  side 2    Res =  0.2071E+02
 MRCHDU: Convergence failed at  32  side 2    Res =  0.2611E+02
 MRCHDU: Convergence failed at  33  side 2    Res =  0.2165E+02
 MRCHDU: Convergence failed at  34  side 2    Res =  0.5561E+02
 MRCHDU: Convergence failed at  35  side 2    Res =  0.3321E+02
 MRCHDU: Convergence failed at  36  side 2    Res =  0.4103E+02
 MRCHDU: Convergence failed at  37  side 2    Res =  0.1394E+03
 MRCHDU: Convergence failed at  38  side 2    Res =  0.8809E+02
 MRCHDU: Convergence failed at  39  side 2    Res =  0.2831E+02
 MRCHDU: Convergence failed at  40  side 2    Res =  0.2188E+02
 MRCHDU: Convergence failed at  41  side 2    Res =  0.1491E+02
 MRCHDU: Convergence failed at  42  side 2    Res =  0.3191E+02
 MRCHDU: Convergence failed at  43  side 2    Res =  0.3986E+02
 MRCHDU: Convergence failed at  44  side 2    Res =  0.5468E+02
 MRCHDU: Convergence failed at  45  side 2    Res =  0.1037E+03
 MRCHDU: Convergence failed at  46  side 2    Res =  0.4160E+03
 MRCHDU: Convergence failed at  47  side 2    Res =  0.1216E+03
 MRCHDU: Convergence failed at  48  side 2    Res =  0.4351E+02
 MRCHDU: Convergence failed at  49  side 2    Res =  0.2645E+02
 MRCHDU: Convergence failed at  50  side 2    Res =  0.3318E+02
 MRCHDU: Convergence failed at  51  side 2    Res =  0.3745E+02
 MRCHDU: Convergence failed at  52  side 2    Res =  0.2676E+03
 MRCHDU: Convergence failed at  53  side 2    Res =  0.1018E+03
 MRCHDU: Convergence failed at  54  side 2    Res =  0.4004E+02
 MRCHDU: Convergence failed at  55  side 2    Res =  0.1127E+03
 MRCHDU: Convergence failed at  56  side 2    Res =  0.3168E+02
 MRCHDU: Convergence failed at  57  side 2    Res =  0.4690E+02
 MRCHDU: Convergence failed at  58  side 2    Res =  0.4921E+02
 MRCHDU: Convergence failed at  59  side 2    Res =  0.5579E+02
 MRCHDU: Convergence failed at  60  side 2    Res =  0.5536E+02
 MRCHDU: Convergence failed at  61  side 2    Res =  0.5758E+02
 MRCHDU: Convergence failed at  62  side 2    Res =  0.5590E+02
 MRCHDU: Convergence failed at  63  side 2    Res =  0.5706E+02
 MRCHDU: Convergence failed at  64  side 2    Res =  0.5066E+02
 MRCHDU: Convergence failed at  65  side 2    Res =  0.4690E+02
 MRCHDU: Convergence failed at  66  side 2    Res =  0.4930E+02
 MRCHDU: Convergence failed at  67  side 2    Res =  0.1797E+03
 MRCHDU: Convergence failed at  68  side 2    Res =  0.6191E+02
 MRCHDU: Convergence failed at  69  side 2    Res =  0.1766E+03
 MRCHDU: Convergence failed at  70  side 2    Res =  0.4649E+02
 MRCHDU: Convergence failed at  71  side 2    Res =  0.4416E+02
 MRCHDU: Convergence failed at  72  side 2    Res =  0.7482E+02
 MRCHDU: Convergence failed at  73  side 2    Res =  0.4347E+02
 MRCHDU: Convergence failed at  74  side 2    Res =  0.2846E+03
 MRCHDU: Convergence failed at  75  side 2    Res =  0.3035E+02
 MRCHDU: Convergence failed at  76  side 2    Res =  0.7070E+02
 MRCHDU: Convergence failed at  77  side 2    Res =  0.1269E+03
 MRCHDU: Convergence failed at  78  side 2    Res =  0.1534E+03
 MRCHDU: Convergence failed at  79  side 2    Res =  0.7752E+02
 MRCHDU: Convergence failed at  80  side 2    Res =  0.7891E+02
 MRCHDU: Convergence failed at  81  side 2    Res =  0.1012E+03
 MRCHDU: Convergence failed at  82  side 2    Res =  0.1018E+03
 MRCHDU: Convergence failed at  83  side 2    Res =  0.8477E+02
 MRCHDU: Convergence failed at  84  side 2    Res =  0.8573E+02
 MRCHDU: Convergence failed at  85  side 2    Res =  0.3700E+02
 Side 1  free  transition at x/c =  0.9613   74
 Side 2  free  transition at x/c =  0.0202   15

   3   rms: 0.1547E+01   max: 0.4419E+01   D at   56  2   RLX: 0.339
       a = -4.000      CL = -1.3110
      Cm =  0.2996     CD =  0.00630   =>   CDf =  0.00195    CDp =  0.00435

 MRCHDU: Convergence failed at  87  side 2    Res =  0.4551E+01
 MRCHDU: Convergence failed at  88  side 2    Res =  0.8533E+01
 MRCHDU: Convergence failed at  89  side 2    Res =  0.4331E+01
 MRCHDU: Convergence failed at  90  side 2    Res =  0.4257E+01
 MRCHDU: Convergence failed at  91  side 2    Res =  0.5795E+01
 MRCHDU: Convergence failed at  92  side 2    Res =  0.2211E+01
 Side 1  free  transition at x/c =  0.9762   76
 Side 2  free  transition at x/c =  0.0206   15

   4   rms: 0.4368E+00   max: -.1189E+01   C at  102  2   RLX: 0.421
       a = -4.000      CL = -0.4221
      Cm =  0.0535     CD =  0.06093   =>   CDf =  0.00236    CDp =  0.05858

 Side 1  free  transition at x/c =  0.9916   77
 Side 2  free  transition at x/c =  0.0214   15

   5   rms: 0.4002E+00   max: -.1116E+01   C at  105  2   RLX: 0.448
       a = -4.000      CL = -0.2000
      Cm = -0.0102     CD =  0.05558   =>   CDf =  0.00239    CDp =  0.05319

 Side 1  free  transition at x/c =  0.9895   77
 Side 2  free  transition at x/c =  0.0223   15
 idif Ue xi dudx           1  0.25042897      4.14049625E-03   60.482841    
 Uenew xinew           2  6.14878759E-02  1.01661682E-03

   6   rms: 0.6080E+00   max: 0.2682E+01   T at   15  2   RLX: 0.321
       a = -4.000      CL = -0.1370
      Cm = -0.0457     CD =  0.04946   =>   CDf =  0.00236    CDp =  0.04709

 Side 1  free  transition at x/c =  0.9847   76
 Side 2  free  transition at x/c =  0.0201   15

   7   rms: 0.6734E+00   max: -.2123E+01   D at  101  2   RLX: 0.235
       a = -4.000      CL = -0.0958
      Cm = -0.0777     CD =  0.04492   =>   CDf =  0.00236    CDp =  0.04256

 Side 1  free  transition at x/c =  0.9811   75
 Side 2  free  transition at x/c =  0.0196   15

   8   rms: 0.3301E+01   max: -.1148E+02   D at   23  2   RLX: 0.044
       a = -4.000      CL = -0.0780
      Cm = -0.0986     CD =  0.04059   =>   CDf =  0.00235    CDp =  0.03824

 Side 1  free  transition at x/c =  0.9773   75
 Side 2  free  transition at x/c =  0.0191   15
 idif Ue xi dudx           1  0.23422693      4.07135487E-03   57.530460    
 Uenew xinew           2  1.84278898E-02  3.20315361E-04

   9   rms: 0.1513E+01   max: -.5450E+01   D at   94  2   RLX: 0.092
       a = -4.000      CL = -0.0924
      Cm = -0.1114     CD =  0.03125   =>   CDf =  0.00234    CDp =  0.02891

 Side 1  free  transition at x/c =  0.9727   74
 Side 2  free  transition at x/c =  0.0193   16

  10   rms: 0.1524E+01   max: -.7318E+01   D at   88  2   RLX: 0.068
       a = -4.000      CL = -0.1100
      Cm = -0.1156     CD =  0.02599   =>   CDf =  0.00259    CDp =  0.02340

 MRCHDU: Convergence failed at  88  side 2    Res =  0.6319E-01
 Side 1  free  transition at x/c =  0.9703   74
 Side 2  free  transition at x/c =  0.0195   16

  11   rms: 0.1484E+01   max: -.9022E+01   D at   88  2   RLX: 0.055
       a = -4.000      CL = -0.1164
      Cm = -0.1187     CD =  0.02283   =>   CDf =  0.00273    CDp =  0.02010

 MRCHDU: Convergence failed at  88  side 2    Res =  0.3104E+00
 Side 1  free  transition at x/c =  0.9694   73
 Side 2  free  transition at x/c =  0.0197   16

  12   rms: 0.5783E+00   max: 0.3640E+01   T at   73  1   RLX: 0.190
       a = -4.000      CL = -0.1499
      Cm = -0.1123     CD =  0.02819   =>   CDf =  0.00283    CDp =  0.02536

 Side 1  free  transition at x/c =  0.9425   72
 Side 2  free  transition at x/c =  0.0213   17

  13   rms: 0.4756E+00   max: -.1598E+01   D at   58  2   RLX: 0.313
       a = -4.000      CL = -0.0829
      Cm = -0.1221     CD =  0.01993   =>   CDf =  0.00378    CDp =  0.01615

 Side 1  free  transition at x/c =  0.9415   72
 Side 2  free  transition at x/c =  0.0207   16

  14   rms: 0.6103E+00   max: -.3308E+01   D at    2  1   RLX: 0.151
       a = -4.000      CL = -0.0251
      Cm = -0.1323     CD =  0.01945   =>   CDf =  0.00410    CDp =  0.01534

 MRCHDU: Convergence failed at  75  side 1    Res =  0.9593E+00
 MRCHDU: Convergence failed at  76  side 1    Res =  0.2014E+01
 MRCHDU: Convergence failed at  77  side 1    Res =  0.2766E+01
 MRCHDU: Convergence failed at  88  side 2    Res =  0.2189E-01
 Side 1  free  transition at x/c =  0.9603   74
 Side 2  free  transition at x/c =  0.0204   15

  15   rms: 0.5511E+00   max: -.2285E+01   D at   88  2   RLX: 0.219
       a = -4.000      CL = -0.0176
      Cm = -0.1335     CD =  0.01323   =>   CDf =  0.00445    CDp =  0.00877

 MRCHDU: Convergence failed at  88  side 2    Res =  0.1007E+00
 Side 1  free  transition at x/c =  0.9529   73
 Side 2  free  transition at x/c =  0.0201   15

  16   rms: 0.9018E+00   max: 0.3948E+01   T at   73  1   RLX: 0.150
       a = -4.000      CL = -0.0601
      Cm = -0.1299     CD =  0.01514   =>   CDf =  0.00475    CDp =  0.01039

 MRCHDU: Convergence failed at  58  side 2    Res =  0.1392E+00
 MRCHDU: Convergence failed at  89  side 2    Res =  0.2419E-01
 Side 1  free  transition at x/c =  0.9286   72
 Side 2  free  transition at x/c =  0.0209   16

  17   rms: 0.5177E+00   max: 0.3052E+01   T at   72  1   RLX: 0.242
       a = -4.000      CL = -0.1337
      Cm = -0.1093     CD =  0.01772   =>   CDf =  0.00496    CDp =  0.01277

 MRCHDU: Convergence failed at  89  side 2    Res =  0.1259E-01
 Side 1  free  transition at x/c =  0.9093   70
 Side 2  free  transition at x/c =  0.0217   16

  18   rms: 0.3400E+00   max: -.1451E+01   D at   76  2   RLX: 0.345
       a = -4.000      CL = -0.1608
      Cm = -0.0945     CD =  0.01829   =>   CDf =  0.00500    CDp =  0.01329

 Side 1  free  transition at x/c =  0.8982   69
 Side 2  free  transition at x/c =  0.0227   16

  19   rms: 0.5085E+00   max: 0.2854E+01   T at   16  2   RLX: 0.238
       a = -4.000      CL = -0.1426
      Cm = -0.0903     CD =  0.01495   =>   CDf =  0.00507    CDp =  0.00988

 MRCHDU: Convergence failed at  16  side 2    Res =  0.6476E+01
 MRCHDU: Convergence failed at  17  side 2    Res =  0.5937E+02
 MRCHDU: Convergence failed at  18  side 2    Res =  0.2141E+03
 MRCHDU: Convergence failed at  19  side 2    Res =  0.2208E+03
 MRCHDU: Convergence failed at  20  side 2    Res =  0.7350E+03
 MRCHDU: Convergence failed at  21  side 2    Res =  0.2884E+03
 MRCHDU: Convergence failed at  22  side 2    Res =  0.2079E+03
 MRCHDU: Convergence failed at  23  side 2    Res =  0.2279E+03
 MRCHDU: Convergence failed at  24  side 2    Res =  0.3474E+03
 MRCHDU: Convergence failed at  25  side 2    Res =  0.3362E+03
 MRCHDU: Convergence failed at  26  side 2    Res =  0.8131E+02
 MRCHDU: Convergence failed at  27  side 2    Res =  0.3810E+02
 MRCHDU: Convergence failed at  28  side 2    Res =  0.7611E+02
 MRCHDU: Convergence failed at  29  side 2    Res =  0.8330E+02
 MRCHDU: Convergence failed at  30  side 2    Res =  0.9121E+02
 MRCHDU: Convergence failed at  31  side 2    Res =  0.9857E+02
 MRCHDU: Convergence failed at  32  side 2    Res =  0.8209E+02
 MRCHDU: Convergence failed at  33  side 2    Res =  0.3367E+02
 MRCHDU: Convergence failed at  34  side 2    Res =  0.3548E+02
 MRCHDU: Convergence failed at  35  side 2    Res =  0.3692E+02
 MRCHDU: Convergence failed at  36  side 2    Res =  0.3825E+02
 MRCHDU: Convergence failed at  37  side 2    Res =  0.3975E+02
 MRCHDU: Convergence failed at  38  side 2    Res =  0.3675E+02
 MRCHDU: Convergence failed at  39  side 2    Res =  0.3829E+02
 MRCHDU: Convergence failed at  40  side 2    Res =  0.3960E+02
 MRCHDU: Convergence failed at  41  side 2    Res =  0.7727E+02
 MRCHDU: Convergence failed at  42  side 2    Res =  0.7386E+02
 MRCHDU: Convergence failed at  43  side 2    Res =  0.7000E+02
 MRCHDU: Convergence failed at  44  side 2    Res =  0.3649E+02
 MRCHDU: Convergence failed at  45  side 2    Res =  0.7500E+02
 MRCHDU: Convergence failed at  46  side 2    Res =  0.4799E+02
 MRCHDU: Convergence failed at  47  side 2    Res =  0.3936E+02
 MRCHDU: Convergence failed at  48  side 2    Res =  0.3996E+02
 MRCHDU: Convergence failed at  49  side 2    Res =  0.6558E+02
 MRCHDU: Convergence failed at  50  side 2    Res =  0.6612E+02
 MRCHDU: Convergence failed at  51  side 2    Res =  0.6641E+02
 MRCHDU: Convergence failed at  52  side 2    Res =  0.5125E+02
 MRCHDU: Convergence failed at  53  side 2    Res =  0.5038E+02
 MRCHDU: Convergence failed at  54  side 2    Res =  0.7078E+02
 MRCHDU: Convergence failed at  55  side 2    Res =  0.3784E+02
 MRCHDU: Convergence failed at  56  side 2    Res =  0.7446E+02
 MRCHDU: Convergence failed at  57  side 2    Res =  0.9501E+02
 MRCHDU: Convergence failed at  58  side 2    Res =  0.1045E+03
 MRCHDU: Convergence failed at  59  side 2    Res =  0.2391E+03
 MRCHDU: Convergence failed at  60  side 2    Res =  0.2302E+03
 MRCHDU: Convergence failed at  61  side 2    Res =  0.2317E+03
 MRCHDU: Convergence failed at  62  side 2    Res =  0.2755E+03
 MRCHDU: Convergence failed at  63  side 2    Res =  0.2632E+03
 MRCHDU: Convergence failed at  64  side 2    Res =  0.2500E+03
 MRCHDU: Convergence failed at  65  side 2    Res =  0.7946E+02
 MRCHDU: Convergence failed at  66  side 2    Res =  0.3548E+03
 MRCHDU: Convergence failed at  67  side 2    Res =  0.5044E+03
 MRCHDU: Convergence failed at  68  side 2    Res =  0.5049E+03
 MRCHDU: Convergence failed at  69  side 2    Res =  0.4126E+03
 MRCHDU: Convergence failed at  70  side 2    Res =  0.3607E+03
 MRCHDU: Convergence failed at  71  side 2    Res =  0.3366E+03
 MRCHDU: Convergence failed at  72  side 2    Res =  0.3351E+03
 MRCHDU: Convergence failed at  73  side 2    Res =  0.3565E+03
 MRCHDU: Convergence failed at  74  side 2    Res =  0.4309E+03
 MRCHDU: Convergence failed at  75  side 2    Res =  0.5648E+03
 MRCHDU: Convergence failed at  76  side 2    Res =  0.1105E+04
 MRCHDU: Convergence failed at  77  side 2    Res =  0.2697E+04
 MRCHDU: Convergence failed at  78  side 2    Res =  0.1558E+04
 MRCHDU: Convergence failed at  79  side 2    Res =  0.6267E+03
 MRCHDU: Convergence failed at  80  side 2    Res =  0.5102E+03
 MRCHDU: Convergence failed at  81  side 2    Res =  0.4557E+03
 MRCHDU: Convergence failed at  82  side 2    Res =  0.3980E+03
 MRCHDU: Convergence failed at  83  side 2    Res =  0.3299E+03
 MRCHDU: Convergence failed at  84  side 2    Res =  0.2534E+03
 MRCHDU: Convergence failed at  85  side 2    Res =  0.1649E+03
 Side 1  free  transition at x/c =  0.9129   70
 Side 2  free  transition at x/c =  0.0203   15

  20   rms: 0.1479E+01   max: -.5522E+01   T at   70  1   RLX: 0.091
       a = -4.000      CL = -2.2453
      Cm =  0.5528     CD =  0.00363   =>   CDf =  0.00156    CDp =  0.00207

 MRCHDU: Convergence failed at  72  side 1    Res =  0.2876E+02
 MRCHDU: Convergence failed at  73  side 1    Res =  0.1621E+02
 MRCHDU: Convergence failed at  74  side 1    Res =  0.6352E+01
 MRCHDU: Convergence failed at  75  side 1    Res =  0.5023E+01
 MRCHDU: Convergence failed at  76  side 1    Res =  0.5447E+01
 MRCHDU: Convergence failed at  77  side 1    Res =  0.1090E+02
 Side 1  free  transition at x/c =  0.9377   72
 Side 2  free  transition at x/c =  0.0202   15

  21   rms: 0.1909E+01   max: 0.1465E+02   D at   89  2   RLX: 0.070
       a = -4.000      CL = -1.3025
      Cm =  0.2564     CD =  0.04138   =>   CDf =  0.00220    CDp =  0.03918

 Side 1  free  transition at x/c =  0.9823   75
 Side 2  free  transition at x/c =  0.0205   15

  22   rms: 0.1718E+01   max: 0.2421E+02   C at   75  1   RLX: 0.025
       a = -4.000      CL = -1.2924
      Cm =  0.2591     CD =  0.04986   =>   CDf =  0.00225    CDp =  0.04761

 Side 1 forced transition at x/c =  1.0000   77
 Side 2  free  transition at x/c =  0.0205   15

  23   rms: 0.2335E+01   max: -.1685E+02   D at   76  1   RLX: 0.030
       a = -4.000      CL = -1.2319
      Cm =  0.2449     CD =  0.04997   =>   CDf =  0.00228    CDp =  0.04770

 Side 1 forced transition at x/c =  1.0000   77
 Side 2  free  transition at x/c =  0.0204   15

  24   rms: 0.7804E+00   max: -.3943E+01   D at   76  1   RLX: 0.127
       a = -4.000      CL = -1.1212
      Cm =  0.2081     CD =  0.05147   =>   CDf =  0.00245    CDp =  0.04902

 Side 1 forced transition at x/c =  1.0000   77
 Side 2  free  transition at x/c =  0.0204   15

  25   rms: 0.5473E+00   max: 0.1138E+01   D at   90  2   RLX: 0.469
       a = -4.000      CL = -0.7121
      Cm =  0.0889     CD =  0.05266   =>   CDf =  0.00263    CDp =  0.05002

 MRCHDU: Convergence failed at  16  side 2    Res =  0.3806E+01
 MRCHDU: Convergence failed at  17  side 2    Res =  0.9328E+01
 MRCHDU: Convergence failed at  18  side 2    Res =  0.1573E+02
 MRCHDU: Convergence failed at  19  side 2    Res =  0.1500E+02
 MRCHDU: Convergence failed at  20  side 2    Res =  0.2821E+02
 MRCHDU: Convergence failed at  21  side 2    Res =  0.5164E+02
 MRCHDU: Convergence failed at  22  side 2    Res =  0.1355E+05
 MRCHDU: Convergence failed at  23  side 2    Res =  0.7917E+02
 MRCHDU: Convergence failed at  24  side 2    Res =  0.4107E+02
 MRCHDU: Convergence failed at  25  side 2    Res =  0.3134E+02
 MRCHDU: Convergence failed at  26  side 2    Res =  0.2258E+02
 MRCHDU: Convergence failed at  27  side 2    Res =  0.1919E+02
 MRCHDU: Convergence failed at  28  side 2    Res =  0.1507E+02
 MRCHDU: Convergence failed at  29  side 2    Res =  0.1783E+02
 MRCHDU: Convergence failed at  30  side 2    Res =  0.2079E+02
 MRCHDU: Convergence failed at  31  side 2    Res =  0.2414E+02
 MRCHDU: Convergence failed at  32  side 2    Res =  0.3139E+02
 MRCHDU: Convergence failed at  33  side 2    Res =  0.3798E+02
 MRCHDU: Convergence failed at  34  side 2    Res =  0.5124E+02
 MRCHDU: Convergence failed at  35  side 2    Res =  0.9422E+02
 MRCHDU: Convergence failed at  36  side 2    Res =  0.2157E+03
 MRCHDU: Convergence failed at  37  side 2    Res =  0.6221E+03
 MRCHDU: Convergence failed at  38  side 2    Res =  0.1500E+03
 MRCHDU: Convergence failed at  39  side 2    Res =  0.7179E+02
 MRCHDU: Convergence failed at  40  side 2    Res =  0.5192E+02
 MRCHDU: Convergence failed at  41  side 2    Res =  0.4725E+02
 MRCHDU: Convergence failed at  42  side 2    Res =  0.3733E+02
 MRCHDU: Convergence failed at  43  side 2    Res =  0.3266E+02
 MRCHDU: Convergence failed at  44  side 2    Res =  0.2715E+02
 MRCHDU: Convergence failed at  45  side 2    Res =  0.1616E+02
 MRCHDU: Convergence failed at  46  side 2    Res =  0.1710E+02
 MRCHDU: Convergence failed at  47  side 2    Res =  0.1931E+02
 MRCHDU: Convergence failed at  48  side 2    Res =  0.2116E+02
 MRCHDU: Convergence failed at  49  side 2    Res =  0.2356E+02
 MRCHDU: Convergence failed at  50  side 2    Res =  0.2575E+02
 MRCHDU: Convergence failed at  51  side 2    Res =  0.3109E+02
 MRCHDU: Convergence failed at  52  side 2    Res =  0.3598E+02
 MRCHDU: Convergence failed at  53  side 2    Res =  0.3980E+02
 MRCHDU: Convergence failed at  54  side 2    Res =  0.5001E+02
 MRCHDU: Convergence failed at  55  side 2    Res =  0.5917E+02
 MRCHDU: Convergence failed at  56  side 2    Res =  0.9004E+02
 MRCHDU: Convergence failed at  57  side 2    Res =  0.2047E+03
 MRCHDU: Convergence failed at  58  side 2    Res =  0.6082E+03
 MRCHDU: Convergence failed at  59  side 2    Res =  0.3638E+03
 MRCHDU: Convergence failed at  60  side 2    Res =  0.8663E+02
 MRCHDU: Convergence failed at  61  side 2    Res =  0.5676E+02
 MRCHDU: Convergence failed at  62  side 2    Res =  0.4628E+02
 MRCHDU: Convergence failed at  63  side 2    Res =  0.3957E+02
 MRCHDU: Convergence failed at  64  side 2    Res =  0.3112E+02
 MRCHDU: Convergence failed at  65  side 2    Res =  0.2839E+02
 MRCHDU: Convergence failed at  66  side 2    Res =  0.2606E+02
 MRCHDU: Convergence failed at  67  side 2    Res =  0.3079E+02
 MRCHDU: Convergence failed at  68  side 2    Res =  0.4236E+02
 MRCHDU: Convergence failed at  69  side 2    Res =  0.6067E+02
 MRCHDU: Convergence failed at  70  side 2    Res =  0.5711E+02
 MRCHDU: Convergence failed at  71  side 2    Res =  0.6766E+02
 MRCHDU: Convergence failed at  72  side 2    Res =  0.8620E+02
 MRCHDU: Convergence failed at  73  side 2    Res =  0.2054E+03
 MRCHDU: Convergence failed at  74  side 2    Res =  0.6182E+03
 MRCHDU: Convergence failed at  75  side 2    Res =  0.6142E+03
 MRCHDU: Convergence failed at  76  side 2    Res =  0.2037E+03
 MRCHDU: Convergence failed at  77  side 2    Res =  0.1178E+03
 MRCHDU: Convergence failed at  78  side 2    Res =  0.9921E+02
 MRCHDU: Convergence failed at  79  side 2    Res =  0.7855E+02
 MRCHDU: Convergence failed at  80  side 2    Res =  0.5774E+02
 MRCHDU: Convergence failed at  81  side 2    Res =  0.5266E+02
 MRCHDU: Convergence failed at  82  side 2    Res =  0.5003E+02
 MRCHDU: Convergence failed at  83  side 2    Res =  0.4808E+02
 MRCHDU: Convergence failed at  84  side 2    Res =  0.4844E+02
 MRCHDU: Convergence failed at  85  side 2    Res =  0.4875E+02
 Side 1 forced transition at x/c =  1.0000   77
 Side 2  free  transition at x/c =  0.0206   16

  26   rms: 0.1861E+01   max: 0.7091E+01   D at   89  2   RLX: 0.212
       a = -4.000      CL = -1.8166
      Cm =  0.4178     CD =  0.00887   =>   CDf =  0.00215    CDp =  0.00672

 MRCHDU: Convergence failed at  93  side 2    Res =  0.8127E+01
 MRCHDU: Convergence failed at  94  side 2    Res =  0.2764E+01
 MRCHDU: Convergence failed at  95  side 2    Res =  0.3111E+01
 MRCHDU: Convergence failed at  96  side 2    Res =  0.5578E+01
 MRCHDU: Convergence failed at  97  side 2    Res =  0.9698E+01
 MRCHDU: Convergence failed at  98  side 2    Res =  0.3055E+01
 MRCHDU: Convergence failed at  99  side 2    Res =  0.1887E+01
 Side 1 forced transition at x/c =  1.0000   77
 Side 2  free  transition at x/c =  0.0204   15

  27   rms: 0.5694E+00   max: -.1192E+01   T at  107  2   RLX: 0.277
       a = -4.000      CL = -0.6397
      Cm =  0.0941     CD =  0.06875   =>   CDf =  0.00277    CDp =  0.06598

 Side 1 forced transition at x/c =  1.0000   77
 Side 2  free  transition at x/c =  0.0204   15

  28   rms: 0.4660E+00   max: -.1177E+01   T at  107  2   RLX: 0.425
       a = -4.000      CL = -0.3589
      Cm =  0.0234     CD =  0.05889   =>   CDf =  0.00276    CDp =  0.05613

 Side 1 forced transition at x/c =  1.0000   77
 Side 2  free  transition at x/c =  0.0204   15

  29   rms: 0.4103E+00   max: -.1534E+01   D at  104  2   RLX: 0.326
       a = -4.000      CL = -0.2458
      Cm = -0.0162     CD =  0.07268   =>   CDf =  0.00271    CDp =  0.06997

 Side 1 forced transition at x/c =  1.0000   77
 Side 2  free  transition at x/c =  0.0205   15

  30   rms: 0.4149E+00   max: -.1565E+01   D at  104  2   RLX: 0.319
       a = -4.000      CL = -0.2049
      Cm = -0.0401     CD =  0.06842   =>   CDf =  0.00265    CDp =  0.06577

 Side 1 forced transition at x/c =  1.0000   77
 Side 2  free  transition at x/c =  0.0211   16

  31   rms: 0.7725E+00   max: -.2574E+01   D at  103  2   RLX: 0.194
       a = -4.000      CL = -0.0838
      Cm = -0.0969     CD =  0.05520   =>   CDf =  0.00254    CDp =  0.05265

 Side 1 forced transition at x/c =  1.0000   77
 Side 2  free  transition at x/c =  0.0221   16
 idif Ue xi dudx           1  0.25883639      4.79006767E-03   54.036060    
 Uenew xinew           2  5.61449900E-02  1.03902817E-03

  32   rms: 0.2263E+01   max: -.6774E+01   D at   26  2   RLX: 0.074
       a = -4.000      CL = -0.0967
      Cm = -0.1140     CD =  0.04604   =>   CDf =  0.00236    CDp =  0.04368

 Side 1 forced transition at x/c =  1.0000   76
 Side 2  free  transition at x/c =  0.0224   17

  33   rms: 0.1168E+01   max: 0.3722E+01   D at   34  2   RLX: 0.180
       a = -4.000      CL = -0.0869
      Cm = -0.0949     CD =  0.06682   =>   CDf =  0.00267    CDp =  0.06415

 Side 1 forced transition at x/c =  1.0000   77
 Side 2  free  transition at x/c =  0.0265   16
 idif Ue xi dudx           1  0.23183727      4.63199615E-03   50.051266    
 Uenew xinew           2  4.40929942E-02  8.80956650E-04

  34   rms: 0.2298E+01   max: -.7422E+01   D at   31  2   RLX: 0.067
       a = -4.000      CL = -0.1248
      Cm = -0.1033     CD =  0.04650   =>   CDf =  0.00226    CDp =  0.04424

 MRCHDU: Convergence failed at  33  side 2    Res =  0.2619E+01
 MRCHDU: Convergence failed at  34  side 2    Res =  0.2846E+01
 MRCHDU: Convergence failed at  35  side 2    Res =  0.3955E+01
 MRCHDU: Convergence failed at  36  side 2    Res =  0.3303E+02
 MRCHDU: Convergence failed at  37  side 2    Res =  0.1969E+01
 MRCHDU: Convergence failed at  38  side 2    Res =  0.1751E+01
 MRCHDU: Convergence failed at  39  side 2    Res =  0.1715E+02
 MRCHDU: Convergence failed at  40  side 2    Res =  0.4615E+01
 MRCHDU: Convergence failed at  41  side 2    Res =  0.4315E+01
 MRCHDU: Convergence failed at  42  side 2    Res =  0.4632E+01
 MRCHDU: Convergence failed at  43  side 2    Res =  0.4921E+01
 MRCHDU: Convergence failed at  44  side 2    Res =  0.5269E+01
 MRCHDU: Convergence failed at  45  side 2    Res =  0.4492E+01
 MRCHDU: Convergence failed at  46  side 2    Res =  0.3849E+01
 MRCHDU: Convergence failed at  47  side 2    Res =  0.3372E+01
 MRCHDU: Convergence failed at  48  side 2    Res =  0.2895E+01
 MRCHDU: Convergence failed at  49  side 2    Res =  0.2567E+01
 MRCHDU: Convergence failed at  50  side 2    Res =  0.2345E+01
 MRCHDU: Convergence failed at  51  side 2    Res =  0.2146E+01
 MRCHDU: Convergence failed at  52  side 2    Res =  0.1927E+01
 MRCHDU: Convergence failed at  53  side 2    Res =  0.1802E+01
 MRCHDU: Convergence failed at  54  side 2    Res =  0.1604E+01
 MRCHDU: Convergence failed at  55  side 2    Res =  0.1710E+01
 MRCHDU: Convergence failed at  56  side 2    Res =  0.1822E+01
 MRCHDU: Convergence failed at  57  side 2    Res =  0.2003E+01
 MRCHDU: Convergence failed at  58  side 2    Res =  0.2176E+01
 MRCHDU: Convergence failed at  59  side 2    Res =  0.2385E+01
 MRCHDU: Convergence failed at  60  side 2    Res =  0.2596E+01
 MRCHDU: Convergence failed at  61  side 2    Res =  0.2830E+01
 MRCHDU: Convergence failed at  62  side 2    Res =  0.3245E+01
 MRCHDU: Convergence failed at  63  side 2    Res =  0.3934E+01
 MRCHDU: Convergence failed at  64  side 2    Res =  0.4899E+01
 MRCHDU: Convergence failed at  65  side 2    Res =  0.6326E+01
 MRCHDU: Convergence failed at  66  side 2    Res =  0.9434E+01
 MRCHDU: Convergence failed at  67  side 2    Res =  0.2315E+02
 MRCHDU: Convergence failed at  68  side 2    Res =  0.2024E+03
 MRCHDU: Convergence failed at  69  side 2    Res =  0.1891E+02
 MRCHDU: Convergence failed at  70  side 2    Res =  0.9768E+01
 MRCHDU: Convergence failed at  71  side 2    Res =  0.7136E+01
 MRCHDU: Convergence failed at  72  side 2    Res =  0.5437E+01
 MRCHDU: Convergence failed at  73  side 2    Res =  0.4477E+01
 MRCHDU: Convergence failed at  74  side 2    Res =  0.3848E+01
 MRCHDU: Convergence failed at  75  side 2    Res =  0.3380E+01
 MRCHDU: Convergence failed at  76  side 2    Res =  0.3063E+01
 MRCHDU: Convergence failed at  77  side 2    Res =  0.2675E+01
 MRCHDU: Convergence failed at  78  side 2    Res =  0.2465E+01
 MRCHDU: Convergence failed at  79  side 2    Res =  0.2321E+01
 MRCHDU: Convergence failed at  80  side 2    Res =  0.2191E+01
 MRCHDU: Convergence failed at  81  side 2    Res =  0.2078E+01
 MRCHDU: Convergence failed at  82  side 2    Res =  0.2174E+01
 MRCHDU: Convergence failed at  83  side 2    Res =  0.2302E+01
 MRCHDU: Convergence failed at  84  side 2    Res =  0.2432E+01
 MRCHDU: Convergence failed at  85  side 2    Res =  0.2591E+01
 MRCHDU: Convergence failed at  86  side 2    Res =  0.2786E+01
 Side 1  free  transition at x/c =  0.9904   75
 Side 2  free  transition at x/c =  0.0281   17

  35   rms: 0.7537E+00   max: 0.2543E+01   T at   17  2   RLX: 0.251
       a = -4.000      CL = -0.3201
      Cm = -0.0293     CD =  0.02692   =>   CDf =  0.00248    CDp =  0.02444

 Side 1  free  transition at x/c =  0.9792   74
 Side 2  free  transition at x/c =  0.0265   17

  36   rms: 0.5927E+00   max: -.1742E+01   D at   31  2   RLX: 0.287
       a = -4.000      CL = -0.2466
      Cm = -0.0522     CD =  0.01999   =>   CDf =  0.00415    CDp =  0.01584

 Side 1  free  transition at x/c =  0.9668   74
 Side 2  free  transition at x/c =  0.0246   16
 idif Ue xi dudx           1  0.19768687      3.79621983E-03   52.074661    
 Uenew xinew           2  2.35274993E-03  4.51803207E-05

  37   rms: 0.1178E+01   max: 0.4251E+01   T at   16  2   RLX: 0.142
       a = -4.000      CL = -0.2225
      Cm = -0.0587     CD =  0.01877   =>   CDf =  0.00421    CDp =  0.01456

 Side 1  free  transition at x/c =  0.9619   73
 Side 2  free  transition at x/c =  0.0215   17

  38   rms: 0.7010E+00   max: -.6273E+01   D at    2  2   RLX: 0.080
       a = -4.000      CL = -0.2103
      Cm = -0.0620     CD =  0.02144   =>   CDf =  0.00450    CDp =  0.01694

 Side 1  free  transition at x/c =  0.9607   74
 Side 2  free  transition at x/c =  0.0210   16

  39   rms: 0.4602E+00   max: -.3054E+01   D at    2  1   RLX: 0.164
       a = -4.000      CL = -0.1765
      Cm = -0.0683     CD =  0.02015   =>   CDf =  0.00459    CDp =  0.01556

 Side 1  free  transition at x/c =  0.9587   74
 Side 2  free  transition at x/c =  0.0208   16

  40   rms: 0.3283E+00   max: -.1181E+01   D at   34  2   RLX: 0.423
       a = -4.000      CL = -0.0992
      Cm = -0.0815     CD =  0.01726   =>   CDf =  0.00485    CDp =  0.01241

 Side 1  free  transition at x/c =  0.9557   73
 Side 2  free  transition at x/c =  0.0205   15

  41   rms: 0.2557E+01   max: 0.1763E+02   T at   15  2   RLX: 0.041
       a = -4.000      CL = -0.1057
      Cm = -0.0804     CD =  0.01510   =>   CDf =  0.00544    CDp =  0.00966

 Side 1  free  transition at x/c =  0.9521   73
 Side 2  free  transition at x/c =  0.0198   15

  42   rms: 0.1900E+00   max: -.7201E+00   D at   34  2   RLX: 0.694
       a = -4.000      CL = -0.0385
      Cm = -0.0911     CD =  0.01439   =>   CDf =  0.00556    CDp =  0.00883

 Side 1  free  transition at x/c =  0.9460   73
 Side 2  free  transition at x/c =  0.0200   15

  43   rms: 0.4620E-01   max: -.2323E+00   D at   17  2
       a = -4.000      CL = -0.0185
      Cm = -0.0935     CD =  0.01458   =>   CDf =  0.00590    CDp =  0.00868

 Side 1  free  transition at x/c =  0.9421   72
 Side 2  free  transition at x/c =  0.0203   15

  44   rms: 0.2248E-01   max: -.8272E-01   T at   15  2
       a = -4.000      CL = -0.0245
      Cm = -0.0922     CD =  0.01511   =>   CDf =  0.00595    CDp =  0.00916

 Side 1  free  transition at x/c =  0.9399   72
 Side 2  free  transition at x/c =  0.0205   15

  45   rms: 0.1518E-01   max: 0.5684E-01   D at   18  2
       a = -4.000      CL = -0.0235
      Cm = -0.0924     CD =  0.01524   =>   CDf =  0.00594    CDp =  0.00930

 Side 1  free  transition at x/c =  0.9404   72
 Side 2  free  transition at x/c =  0.0205   16

  46   rms: 0.2046E-01   max: 0.8709E-01   D at   17  2
       a = -4.000      CL = -0.0236
      Cm = -0.0924     CD =  0.01509   =>   CDf =  0.00595    CDp =  0.00913

 Side 1  free  transition at x/c =  0.9404   72
 Side 2  free  transition at x/c =  0.0205   16

  47   rms: 0.1079E-03   max: 0.1321E-02   D at   16  2
       a = -4.000      CL = -0.0236
      Cm = -0.0924     CD =  0.01509   =>   CDf =  0.00592    CDp =  0.00917

 Side 1  free  transition at x/c =  0.9405   72
 Side 2  free  transition at x/c =  0.0205   16

  48   rms: 0.1417E-05   max: -.1110E-04   T at   72  1
       a = -4.000      CL = -0.0236
      Cm = -0.0924     CD =  0.01509   =>   CDf =  0.00592    CDp =  0.00917
 plradd ia,ip,cpol            1           0  1.01615756E-03

 Point added to stored polar  1
 Point written to save file  sa7038_Re400k.base.pol                          
 Dump file unspecified or not available
 Calculating wake trajectory ...
 Calculating source influence matrix ...

 Solving BL system ...

 Side 1  free  transition at x/c =  0.9405   72
 Side 2  free  transition at x/c =  0.0205   16

   1   rms: 0.1009E+00   max: 0.4423E+00   T at   72  1
       a = -3.500      CL =  0.0186
      Cm = -0.0891     CD =  0.01345   =>   CDf =  0.00597    CDp =  0.00748

 Side 1  free  transition at x/c =  0.9193   72
 Side 2  free  transition at x/c =  0.0206   15

   2   rms: 0.3329E-01   max: -.3231E+00   D at   74  1
       a = -3.500      CL =  0.0303
      Cm = -0.0913     CD =  0.01255   =>   CDf =  0.00618    CDp =  0.00637

 Side 1  free  transition at x/c =  0.9298   73
 Side 2  free  transition at x/c =  0.0207   15

   3   rms: 0.5327E-02   max: 0.5577E-01   D at   74  1
       a = -3.500      CL =  0.0301
      Cm = -0.0913     CD =  0.01248   =>   CDf =  0.00618    CDp =  0.00630

 Side 1  free  transition at x/c =  0.9288   73
 Side 2  free  transition at x/c =  0.0207   15

   4   rms: 0.9487E-04   max: -.8712E-03   D at   73  1
       a = -3.500      CL =  0.0301
      Cm = -0.0913     CD =  0.01248   =>   CDf =  0.00618    CDp =  0.00630
 plradd ia,ip,cpol            2           0  2.21547787E-03

 Point added to stored polar  1
 Point written to save file  sa7038_Re400k.base.pol                          
 Dump file unspecified or not available
 Calculating wake trajectory ...
 Calculating source influence matrix ...

 Solving BL system ...

 Side 1  free  transition at x/c =  0.9288   73
 Side 2  free  transition at x/c =  0.0207   15

   1   rms: 0.1849E+00   max: -.6548E+00   D at   17  2   RLX: 0.764
       a = -3.000      CL =  0.0722
      Cm = -0.0908     CD =  0.01045   =>   CDf =  0.00618    CDp =  0.00427

 Side 1  free  transition at x/c =  0.9223   72
 Side 2  free  transition at x/c =  0.0225   15

   2   rms: 0.2580E-01   max: 0.2108E+00   T at   72  1
       a = -3.000      CL =  0.0774
      Cm = -0.0892     CD =  0.01087   =>   CDf =  0.00628    CDp =  0.00459

 Side 1  free  transition at x/c =  0.9107   71
 Side 2  free  transition at x/c =  0.0226   15

   3   rms: 0.1251E-01   max: -.1361E+00   D at   73  1
       a = -3.000      CL =  0.0810
      Cm = -0.0898     CD =  0.01078   =>   CDf =  0.00632    CDp =  0.00446

 Side 1  free  transition at x/c =  0.9154   72
 Side 2  free  transition at x/c =  0.0226   15

   4   rms: 0.2886E-02   max: 0.3787E-01   D at   72  1
       a = -3.000      CL =  0.0805
      Cm = -0.0898     CD =  0.01079   =>   CDf =  0.00631    CDp =  0.00448

 Side 1  free  transition at x/c =  0.9146   72
 Side 2  free  transition at x/c =  0.0226   15

   5   rms: 0.1217E-03   max: -.1137E-02   D at   75  1
       a = -3.000      CL =  0.0805
      Cm = -0.0898     CD =  0.01079   =>   CDf =  0.00631    CDp =  0.00448

 Side 1  free  transition at x/c =  0.9146   72
 Side 2  free  transition at x/c =  0.0226   15

   6   rms: 0.1402E-05   max: -.7418E-05   D at   72  1
       a = -3.000      CL =  0.0805
      Cm = -0.0898     CD =  0.01079   =>   CDf =  0.00631    CDp =  0.00448
 plradd ia,ip,cpol            3           0  2.21547787E-03

 Point added to stored polar  1
 Point written to save file  sa7038_Re400k.base.pol                          
 Dump file unspecified or not available
 Calculating wake trajectory ...
 Calculating source influence matrix ...

 Solving BL system ...

 Side 1  free  transition at x/c =  0.9146   72
 Side 2  free  transition at x/c =  0.0226   15

   1   rms: 0.1178E+00   max: -.4301E+00   T at   15  2
       a = -2.500      CL =  0.1358
      Cm = -0.0890     CD =  0.00973   =>   CDf =  0.00636    CDp =  0.00337

 Side 1  free  transition at x/c =  0.9043   72
 Side 2  free  transition at x/c =  0.0279   14

   2   rms: 0.1752E-01   max: 0.1646E+00   D at   14  2
       a = -2.500      CL =  0.1326
      Cm = -0.0884     CD =  0.01007   =>   CDf =  0.00639    CDp =  0.00368

 Side 1  free  transition at x/c =  0.8982   71
 Side 2  free  transition at x/c =  0.0274   14

   3   rms: 0.4997E-02   max: -.6379E-01   D at   72  1
       a = -2.500      CL =  0.1329
      Cm = -0.0885     CD =  0.01005   =>   CDf =  0.00642    CDp =  0.00363

 Side 1  free  transition at x/c =  0.8997   71
 Side 2  free  transition at x/c =  0.0274   14

   4   rms: 0.1759E-03   max: 0.1786E-02   D at   72  1
       a = -2.500      CL =  0.1329
      Cm = -0.0885     CD =  0.01005   =>   CDf =  0.00642    CDp =  0.00363

 Side 1  free  transition at x/c =  0.8996   71
 Side 2  free  transition at x/c =  0.0274   14

   5   rms: 0.2679E-05   max: -.1739E-04   D at    4  1
       a = -2.500      CL =  0.1329
      Cm = -0.0885     CD =  0.01005   =>   CDf =  0.00642    CDp =  0.00363
 plradd ia,ip,cpol            4           0  2.21547787E-03

 Point added to stored polar  1
 Point written to save file  sa7038_Re400k.base.pol                          
 Dump file unspecified or not available
 Calculating wake trajectory ...
 Calculating source influence matrix ...

 Solving BL system ...

 Side 1  free  transition at x/c =  0.8996   71
 Side 2  free  transition at x/c =  0.0274   14

   1   rms: 0.1017E+00   max: -.4123E+00   T at   14  2
       a = -2.000      CL =  0.1811
      Cm = -0.0867     CD =  0.00949   =>   CDf =  0.00642    CDp =  0.00307

 Side 1  free  transition at x/c =  0.8730   70
 Side 2  free  transition at x/c =  0.0363   15

   2   rms: 0.9170E-01   max: -.1758E+01   C at   15  2   RLX: 0.284
       a = -2.000      CL =  0.1820
      Cm = -0.0858     CD =  0.00958   =>   CDf =  0.00659    CDp =  0.00299

 Side 1  free  transition at x/c =  0.8761   70
 Side 2  free  transition at x/c =  0.0398   16

   3   rms: 0.3372E+00   max: -.4203E+01   C at   16  2   RLX: 0.119
       a = -2.000      CL =  0.1829
      Cm = -0.0858     CD =  0.00945   =>   CDf =  0.00656    CDp =  0.00289

 Side 1  free  transition at x/c =  0.8770   70
 Side 2  free  transition at x/c =  0.0922   20

   4   rms: 0.7187E-01   max: -.1303E+01   C at   20  2   RLX: 0.384
       a = -2.000      CL =  0.1832
      Cm = -0.0865     CD =  0.00910   =>   CDf =  0.00632    CDp =  0.00278

 Side 1  free  transition at x/c =  0.8795   70
 Side 2  free  transition at x/c =  0.1100   21

   5   rms: 0.6478E-01   max: -.1409E+01   C at   21  2   RLX: 0.355
       a = -2.000      CL =  0.1838
      Cm = -0.0868     CD =  0.00899   =>   CDf =  0.00622    CDp =  0.00277

 Side 1  free  transition at x/c =  0.8807   70
 Side 2  free  transition at x/c =  0.1195   21

   6   rms: 0.3459E-01   max: -.7658E+00   C at   21  2   RLX: 0.653
       a = -2.000      CL =  0.1845
      Cm = -0.0871     CD =  0.00892   =>   CDf =  0.00617    CDp =  0.00274

 Side 1  free  transition at x/c =  0.8819   70
 Side 2  free  transition at x/c =  0.1313   22

   7   rms: 0.7095E-02   max: -.1461E+00   C at   22  2
       a = -2.000      CL =  0.1847
      Cm = -0.0873     CD =  0.00888   =>   CDf =  0.00612    CDp =  0.00276

 Side 1  free  transition at x/c =  0.8822   70
 Side 2  free  transition at x/c =  0.1345   23

   8   rms: 0.2241E-02   max: -.4390E-01   C at   23  2
       a = -2.000      CL =  0.1846
      Cm = -0.0873     CD =  0.00888   =>   CDf =  0.00610    CDp =  0.00277

 Side 1  free  transition at x/c =  0.8822   70
 Side 2  free  transition at x/c =  0.1351   23

   9   rms: 0.2253E-04   max: 0.4310E-03   C at   23  2
       a = -2.000      CL =  0.1846
      Cm = -0.0873     CD =  0.00888   =>   CDf =  0.00610    CDp =  0.00278
 plradd ia,ip,cpol            5           0  2.21547787E-03

 Point added to stored polar  1
 Point written to save file  sa7038_Re400k.base.pol                          
 Dump file unspecified or not available
 Calculating wake trajectory ...
 Calculating source influence matrix ...

 Solving BL system ...

 Side 1  free  transition at x/c =  0.8822   70
 Side 2  free  transition at x/c =  0.1351   23

   1   rms: 0.5190E+00   max: -.1019E+02   C at   23  2   RLX: 0.049
       a = -1.500      CL =  0.1870
      Cm = -0.0873     CD =  0.00879   =>   CDf =  0.00610    CDp =  0.00269

 Side 1  free  transition at x/c =  0.8811   70
 Side 2  free  transition at x/c =  0.1463   23

   2   rms: 0.3568E+00   max: -.7538E+01   C at   23  2   RLX: 0.066
       a = -1.500      CL =  0.1906
      Cm = -0.0872     CD =  0.00876   =>   CDf =  0.00606    CDp =  0.00270

 Side 1  free  transition at x/c =  0.8798   70
 Side 2  free  transition at x/c =  0.1622   24

   3   rms: 0.2401E+00   max: -.4795E+01   C at   24  2   RLX: 0.104
       a = -1.500      CL =  0.1953
      Cm = -0.0871     CD =  0.00868   =>   CDf =  0.00602    CDp =  0.00267

 Side 1  free  transition at x/c =  0.8779   70
 Side 2  free  transition at x/c =  0.1900   26

   4   rms: 0.1165E+00   max: -.1229E+01   C at   26  2   RLX: 0.407
       a = -1.500      CL =  0.2122
      Cm = -0.0868     CD =  0.00850   =>   CDf =  0.00594    CDp =  0.00257

 Side 1  free  transition at x/c =  0.8717   70
 Side 2  free  transition at x/c =  0.2607   31

   5   rms: 0.6511E-01   max: -.4748E+00   T at   31  2
       a = -1.500      CL =  0.2378
      Cm = -0.0865     CD =  0.00820   =>   CDf =  0.00585    CDp =  0.00235

 Side 1  free  transition at x/c =  0.8659   70
 Side 2  free  transition at x/c =  0.3458   36

   6   rms: 0.4899E-01   max: 0.6438E+00   D at   30  2
       a = -1.500      CL =  0.2360
      Cm = -0.0865     CD =  0.00790   =>   CDf =  0.00562    CDp =  0.00228

 Side 1  free  transition at x/c =  0.8618   70
 Side 2  free  transition at x/c =  0.4186   41

   7   rms: 0.4585E-01   max: -.7129E+00   C at   41  2   RLX: 0.701
       a = -1.500      CL =  0.2330
      Cm = -0.0862     CD =  0.00765   =>   CDf =  0.00528    CDp =  0.00237

 Side 1  free  transition at x/c =  0.8623   70
 Side 2  free  transition at x/c =  0.4178   41

   8   rms: 0.1375E-01   max: 0.2222E+00   C at   41  2
       a = -1.500      CL =  0.2354
      Cm = -0.0865     CD =  0.00772   =>   CDf =  0.00524    CDp =  0.00248

 Side 1  free  transition at x/c =  0.8626   70
 Side 2  free  transition at x/c =  0.3984   40

   9   rms: 0.2713E-02   max: -.4829E-01   C at   40  2
       a = -1.500      CL =  0.2355
      Cm = -0.0865     CD =  0.00775   =>   CDf =  0.00529    CDp =  0.00246

 Side 1  free  transition at x/c =  0.8626   70
 Side 2  free  transition at x/c =  0.3993   40

  10   rms: 0.3724E-04   max: 0.6380E-03   C at   40  2
       a = -1.500      CL =  0.2355
      Cm = -0.0865     CD =  0.00775   =>   CDf =  0.00528    CDp =  0.00246
 plradd ia,ip,cpol            6           0  2.21547787E-03

 Point added to stored polar  1
 Point written to save file  sa7038_Re400k.base.pol                          
 Dump file unspecified or not available
 Calculating wake trajectory ...
 Calculating source influence matrix ...

 Solving BL system ...

 Side 1  free  transition at x/c =  0.8626   70
 Side 2  free  transition at x/c =  0.3993   40

   1   rms: 0.3311E+00   max: -.6037E+01   C at   40  2   RLX: 0.083
       a = -1.000      CL =  0.2397
      Cm = -0.0864     CD =  0.00767   =>   CDf =  0.00529    CDp =  0.00239

 Side 1  free  transition at x/c =  0.8609   70
 Side 2  free  transition at x/c =  0.4171   41

   2   rms: 0.2701E+00   max: -.4838E+01   C at   41  2   RLX: 0.103
       a = -1.000      CL =  0.2449
      Cm = -0.0863     CD =  0.00761   =>   CDf =  0.00524    CDp =  0.00237

 Side 1  free  transition at x/c =  0.8592   70
 Side 2  free  transition at x/c =  0.4414   43

   3   rms: 0.2697E+00   max: -.4834E+01   C at   43  2   RLX: 0.103
       a = -1.000      CL =  0.2491
      Cm = -0.0862     CD =  0.00752   =>   CDf =  0.00517    CDp =  0.00234

 Side 1  free  transition at x/c =  0.8578   70
 Side 2  free  transition at x/c =  0.4617   44

   4   rms: 0.1762E+00   max: -.2994E+01   C at   44  2   RLX: 0.167
       a = -1.000      CL =  0.2559
      Cm = -0.0861     CD =  0.00745   =>   CDf =  0.00513    CDp =  0.00232

 Side 1  free  transition at x/c =  0.8560   69
 Side 2  free  transition at x/c =  0.5014   47

   5   rms: 0.1975E+00   max: -.3486E+01   C at   47  2   RLX: 0.143
       a = -1.000      CL =  0.2594
      Cm = -0.0859     CD =  0.00731   =>   CDf =  0.00500    CDp =  0.00231

 Side 1  free  transition at x/c =  0.8532   69
 Side 2  free  transition at x/c =  0.5220   48

   6   rms: 0.1159E+00   max: -.1918E+01   C at   48  2   RLX: 0.261
       a = -1.000      CL =  0.2666
      Cm = -0.0858     CD =  0.00725   =>   CDf =  0.00494    CDp =  0.00231

 Side 1  free  transition at x/c =  0.8493   69
 Side 2  free  transition at x/c =  0.5692   52

   7   rms: 0.1586E+00   max: -.2766E+01   C at   52  2   RLX: 0.181
       a = -1.000      CL =  0.2688
      Cm = -0.0852     CD =  0.00709   =>   CDf =  0.00481    CDp =  0.00229

 Side 1  free  transition at x/c =  0.8477   69
 Side 2  free  transition at x/c =  0.5864   53

   8   rms: 0.1268E+00   max: -.2186E+01   C at   53  2   RLX: 0.229
       a = -1.000      CL =  0.2727
      Cm = -0.0853     CD =  0.00703   =>   CDf =  0.00475    CDp =  0.00228

 Side 1  free  transition at x/c =  0.8462   69
 Side 2  free  transition at x/c =  0.6085   54

   9   rms: 0.7604E-01   max: -.1252E+01   C at   54  2   RLX: 0.399
       a = -1.000      CL =  0.2778
      Cm = -0.0852     CD =  0.00697   =>   CDf =  0.00469    CDp =  0.00228

 Side 1  free  transition at x/c =  0.8444   69
 Side 2  free  transition at x/c =  0.6573   58

  10   rms: 0.6692E-01   max: -.1144E+01   C at   58  2   RLX: 0.437
       a = -1.000      CL =  0.2797
      Cm = -0.0846     CD =  0.00680   =>   CDf =  0.00452    CDp =  0.00227

 Side 1  free  transition at x/c =  0.8434   68
 Side 2  free  transition at x/c =  0.6732   59

  11   rms: 0.3482E-01   max: -.5919E+00   C at   59  2   RLX: 0.845
       a = -1.000      CL =  0.2830
      Cm = -0.0847     CD =  0.00674   =>   CDf =  0.00447    CDp =  0.00227

 Side 1  free  transition at x/c =  0.8415   68
 Side 2  free  transition at x/c =  0.6959   60

  12   rms: 0.7533E-02   max: -.1289E+00   C at   60  2
       a = -1.000      CL =  0.2836
      Cm = -0.0846     CD =  0.00674   =>   CDf =  0.00439    CDp =  0.00234

 Side 1  free  transition at x/c =  0.8413   68
 Side 2  free  transition at x/c =  0.7046   61

  13   rms: 0.2031E-02   max: 0.3329E-01   C at   61  2
       a = -1.000      CL =  0.2835
      Cm = -0.0846     CD =  0.00672   =>   CDf =  0.00435    CDp =  0.00237

 Side 1  free  transition at x/c =  0.8413   68
 Side 2  free  transition at x/c =  0.7032   61

  14   rms: 0.9010E-05   max: -.9740E-04   C at   61  2
       a = -1.000      CL =  0.2835
      Cm = -0.0846     CD =  0.00672   =>   CDf =  0.00436    CDp =  0.00237
 plradd ia,ip,cpol            7           0  4.02679760E-03

 Point added to stored polar  1
 Point written to save file  sa7038_Re400k.base.pol                          
 Dump file unspecified or not available
 Calculating wake trajectory ...
 Calculating source influence matrix ...

 Solving BL system ...

 Side 1  free  transition at x/c =  0.8413   68
 Side 2  free  transition at x/c =  0.7032   61

   1   rms: 0.4277E+00   max: -.7220E+01   C at   61  2   RLX: 0.069
       a = -0.500      CL =  0.2861
      Cm = -0.0843     CD =  0.00664   =>   CDf =  0.00436    CDp =  0.00229

 Side 1  free  transition at x/c =  0.8393   68
 Side 2  free  transition at x/c =  0.7251   62

   2   rms: 0.2368E+00   max: -.3569E+01   C at   62  2   RLX: 0.140
       a = -0.500      CL =  0.2924
      Cm = -0.0841     CD =  0.00659   =>   CDf =  0.00429    CDp =  0.00230

 Side 1  free  transition at x/c =  0.8357   68
 Side 2  free  transition at x/c =  0.7861   67

   3   rms: 0.3110E+00   max: -.5227E+01   C at   67  2   RLX: 0.096
       a = -0.500      CL =  0.2932
      Cm = -0.0827     CD =  0.00640   =>   CDf =  0.00410    CDp =  0.00230

 Side 1  free  transition at x/c =  0.8338   68
 Side 2  free  transition at x/c =  0.7992   68

   4   rms: 0.2218E+00   max: -.3649E+01   C at   68  2   RLX: 0.137
       a = -0.500      CL =  0.2974
      Cm = -0.0825     CD =  0.00636   =>   CDf =  0.00408    CDp =  0.00228

 Side 1  free  transition at x/c =  0.8317   68
 Side 2  free  transition at x/c =  0.8156   69

   5   rms: 0.1646E+00   max: -.2674E+01   C at   69  2   RLX: 0.187
       a = -0.500      CL =  0.3023
      Cm = -0.0821     CD =  0.00631   =>   CDf =  0.00404    CDp =  0.00227

 Side 1  free  transition at x/c =  0.8295   68
 Side 2  free  transition at x/c =  0.8355   70

   6   rms: 0.1406E+00   max: -.2324E+01   C at   70  2   RLX: 0.215
       a = -0.500      CL =  0.3068
      Cm = -0.0817     CD =  0.00627   =>   CDf =  0.00399    CDp =  0.00228

 Side 1  free  transition at x/c =  0.8277   67
 Side 2  free  transition at x/c =  0.8552   71

   7   rms: 0.1107E+00   max: -.1823E+01   C at   71  2   RLX: 0.274
       a = -0.500      CL =  0.3112
      Cm = -0.0813     CD =  0.00622   =>   CDf =  0.00394    CDp =  0.00228

 Side 1  free  transition at x/c =  0.8240   67
 Side 2  free  transition at x/c =  0.8770   73

   8   rms: 0.9149E-01   max: -.1527E+01   C at   73  2   RLX: 0.327
       a = -0.500      CL =  0.3145
      Cm = -0.0806     CD =  0.00617   =>   CDf =  0.00392    CDp =  0.00225

 Side 1  free  transition at x/c =  0.8214   68
 Side 2  free  transition at x/c =  0.8969   73

   9   rms: 0.8079E-01   max: -.1022E+01   T at    2  1   RLX: 0.489
       a = -0.500      CL =  0.3190
      Cm = -0.0802     CD =  0.00615   =>   CDf =  0.00386    CDp =  0.00229

 Side 1  free  transition at x/c =  0.8191   68
 Side 2  free  transition at x/c =  0.9284   76

  10   rms: 0.3837E-01   max: -.5680E+00   C at   76  2   RLX: 0.880
       a = -0.500      CL =  0.3303
      Cm = -0.0811     CD =  0.00607   =>   CDf =  0.00383    CDp =  0.00224

 Side 1  free  transition at x/c =  0.8178   68
 Side 2  free  transition at x/c =  0.9484   77

  11   rms: 0.9175E-02   max: -.1422E+00   C at   77  2
       a = -0.500      CL =  0.3317
      Cm = -0.0812     CD =  0.00610   =>   CDf =  0.00384    CDp =  0.00226

 Side 1  free  transition at x/c =  0.8176   68
 Side 2  free  transition at x/c =  0.9592   78

  12   rms: 0.1533E-02   max: 0.1497E-01   C at   78  2
       a = -0.500      CL =  0.3329
      Cm = -0.0815     CD =  0.00610   =>   CDf =  0.00384    CDp =  0.00226

 Side 1  free  transition at x/c =  0.8176   68
 Side 2  free  transition at x/c =  0.9588   78

  13   rms: 0.6503E-05   max: 0.1046E-03   C at   78  2
       a = -0.500      CL =  0.3329
      Cm = -0.0815     CD =  0.00610   =>   CDf =  0.00384    CDp =  0.00226
 plradd ia,ip,cpol            8           0  0.17871314    

 Point added to stored polar  1
 Point written to save file  sa7038_Re400k.base.pol                          
 Dump file unspecified or not available
 Calculating wake trajectory ...
 Calculating source influence matrix ...

 Solving BL system ...

 Side 1  free  transition at x/c =  0.8176   68
 Side 2  free  transition at x/c =  0.9588   78

   1   rms: 0.1957E+00   max: -.2089E+01   C at   78  2   RLX: 0.239
       a =  0.000      CL =  0.3598
      Cm = -0.0842     CD =  0.00601   =>   CDf =  0.00384    CDp =  0.00217

 Side 1  free  transition at x/c =  0.8131   67
 Side 2  free  transition at x/c =  0.9785   79

   2   rms: 0.9108E-01   max: 0.5319E+00   C at   79  2
       a =  0.000      CL =  0.4166
      Cm = -0.0871     CD =  0.00604   =>   CDf =  0.00389    CDp =  0.00215

 Side 1  free  transition at x/c =  0.7847   65
 Side 2 forced transition at x/c =  1.0000   81

   3   rms: 0.4740E-01   max: -.5236E+00   C at   81  2   RLX: 0.955
       a =  0.000      CL =  0.3994
      Cm = -0.0835     CD =  0.00607   =>   CDf =  0.00415    CDp =  0.00193

 Side 1  free  transition at x/c =  0.7919   66
 Side 2 forced transition at x/c =  1.0000   81

   4   rms: 0.7940E-02   max: 0.9048E-01   C at   81  2
       a =  0.000      CL =  0.4020
      Cm = -0.0841     CD =  0.00607   =>   CDf =  0.00407    CDp =  0.00200

 Side 1  free  transition at x/c =  0.7901   66
 Side 2 forced transition at x/c =  1.0000   81

   5   rms: 0.5139E-03   max: 0.5821E-02   C at   81  2
       a =  0.000      CL =  0.4021
      Cm = -0.0841     CD =  0.00608   =>   CDf =  0.00408    CDp =  0.00200

 Side 1  free  transition at x/c =  0.7900   66
 Side 2 forced transition at x/c =  1.0000   81

   6   rms: 0.3080E-05   max: 0.3790E-04   C at   81  2
       a =  0.000      CL =  0.4021
      Cm = -0.0841     CD =  0.00608   =>   CDf =  0.00408    CDp =  0.00200
 plradd ia,ip,cpol            9           0  0.16507128    

 Point added to stored polar  1
 Point written to save file  sa7038_Re400k.base.pol                          
 Dump file unspecified or not available
 Calculating wake trajectory ...
 Calculating source influence matrix ...

 Solving BL system ...

 Side 1  free  transition at x/c =  0.7900   66
 Side 2 forced transition at x/c =  1.0000   81

   1   rms: 0.9384E-01   max: -.2045E+00   C at   81  2
       a =  0.500      CL =  0.4537
      Cm = -0.0828     CD =  0.00620   =>   CDf =  0.00413    CDp =  0.00207

 Side 1  free  transition at x/c =  0.7587   64
 Side 2 forced transition at x/c =  1.0000   80

   2   rms: 0.2056E-01   max: 0.2562E+00   D at   66  1
       a =  0.500      CL =  0.4538
      Cm = -0.0829     CD =  0.00623   =>   CDf =  0.00435    CDp =  0.00189

 Side 1  free  transition at x/c =  0.7586   64
 Side 2 forced transition at x/c =  1.0000   80

   3   rms: 0.2008E-02   max: 0.2338E-01   D at   65  1
       a =  0.500      CL =  0.4540
      Cm = -0.0830     CD =  0.00621   =>   CDf =  0.00433    CDp =  0.00188

 Side 1  free  transition at x/c =  0.7580   64
 Side 2 forced transition at x/c =  1.0000   80

   4   rms: 0.8386E-05   max: 0.9723E-04   D at   65  1
       a =  0.500      CL =  0.4540
      Cm = -0.0830     CD =  0.00621   =>   CDf =  0.00433    CDp =  0.00187
 plradd ia,ip,cpol           10           0  0.15154621    

 Point added to stored polar  1
 Point written to save file  sa7038_Re400k.base.pol                          
 Dump file unspecified or not available
 Calculating wake trajectory ...
 Calculating source influence matrix ...

 Solving BL system ...

 Side 1  free  transition at x/c =  0.7580   64
 Side 2 forced transition at x/c =  1.0000   80

   1   rms: 0.8628E-01   max: -.1909E+00   C at   80  2
       a =  1.000      CL =  0.5064
      Cm = -0.0822     CD =  0.00631   =>   CDf =  0.00436    CDp =  0.00195

 Side 1  free  transition at x/c =  0.7147   62
 Side 2 forced transition at x/c =  1.0000   79

   2   rms: 0.1812E-01   max: -.2919E+00   D at   63  1
       a =  1.000      CL =  0.5058
      Cm = -0.0819     CD =  0.00644   =>   CDf =  0.00468    CDp =  0.00177

 Side 1  free  transition at x/c =  0.7249   63
 Side 2 forced transition at x/c =  1.0000   79

   3   rms: 0.8683E-02   max: 0.1352E+00   C at   63  1
       a =  1.000      CL =  0.5063
      Cm = -0.0820     CD =  0.00639   =>   CDf =  0.00452    CDp =  0.00186

 Side 1  free  transition at x/c =  0.7221   63
 Side 2 forced transition at x/c =  1.0000   79

   4   rms: 0.8097E-03   max: 0.1026E-01   C at   63  1
       a =  1.000      CL =  0.5063
      Cm = -0.0820     CD =  0.00639   =>   CDf =  0.00456    CDp =  0.00184

 Side 1  free  transition at x/c =  0.7217   63
 Side 2 forced transition at x/c =  1.0000   79

   5   rms: 0.4960E-05   max: -.5589E-04   D at   66  1
       a =  1.000      CL =  0.5063
      Cm = -0.0820     CD =  0.00639   =>   CDf =  0.00456    CDp =  0.00183
 plradd ia,ip,cpol           11           0  0.12484904    

 Point added to stored polar  1
 Point written to save file  sa7038_Re400k.base.pol                          
 Dump file unspecified or not available
 Calculating wake trajectory ...
 Calculating source influence matrix ...

 Solving BL system ...

 Side 1  free  transition at x/c =  0.7217   63
 Side 2 forced transition at x/c =  1.0000   79

   1   rms: 0.9012E-01   max: -.1602E+00   C at   79  2
       a =  1.500      CL =  0.5586
      Cm = -0.0810     CD =  0.00663   =>   CDf =  0.00456    CDp =  0.00207

 Side 1  free  transition at x/c =  0.6834   60
 Side 2 forced transition at x/c =  1.0000   79

   2   rms: 0.1806E-01   max: 0.2680E+00   D at   62  1
       a =  1.500      CL =  0.5586
      Cm = -0.0811     CD =  0.00667   =>   CDf =  0.00483    CDp =  0.00184

 Side 1  free  transition at x/c =  0.6858   60
 Side 2 forced transition at x/c =  1.0000   79

   3   rms: 0.2246E-02   max: 0.3217E-01   C at   60  1
       a =  1.500      CL =  0.5588
      Cm = -0.0811     CD =  0.00664   =>   CDf =  0.00478    CDp =  0.00186

 Side 1  free  transition at x/c =  0.6848   60
 Side 2 forced transition at x/c =  1.0000   79

   4   rms: 0.2492E-04   max: -.5249E-03   D at   62  1
       a =  1.500      CL =  0.5588
      Cm = -0.0811     CD =  0.00664   =>   CDf =  0.00479    CDp =  0.00185
 plradd ia,ip,cpol           12           0  9.88269746E-02

 Point added to stored polar  1
 Point written to save file  sa7038_Re400k.base.pol                          
 Dump file unspecified or not available
 Calculating wake trajectory ...
 Calculating source influence matrix ...

 Solving BL system ...

 Side 1  free  transition at x/c =  0.6848   60
 Side 2 forced transition at x/c =  1.0000   79

   1   rms: 0.8557E-01   max: -.1479E+00   C at   79  2
       a =  2.000      CL =  0.6118
      Cm = -0.0805     CD =  0.00686   =>   CDf =  0.00477    CDp =  0.00209

 Side 1  free  transition at x/c =  0.6415   58
 Side 2 forced transition at x/c =  1.0000   78

   2   rms: 0.1891E-01   max: -.2840E+00   D at   59  1
       a =  2.000      CL =  0.6108
      Cm = -0.0802     CD =  0.00698   =>   CDf =  0.00508    CDp =  0.00190

 Side 1  free  transition at x/c =  0.6473   59
 Side 2 forced transition at x/c =  1.0000   78

   3   rms: 0.1892E-02   max: -.3391E-01   D at   58  1
       a =  2.000      CL =  0.6112
      Cm = -0.0803     CD =  0.00694   =>   CDf =  0.00501    CDp =  0.00193

 Side 1  free  transition at x/c =  0.6463   59
 Side 2 forced transition at x/c =  1.0000   78

   4   rms: 0.1676E-03   max: 0.2577E-02   C at   59  1
       a =  2.000      CL =  0.6112
      Cm = -0.0803     CD =  0.00694   =>   CDf =  0.00500    CDp =  0.00194

 Side 1  free  transition at x/c =  0.6463   59
 Side 2 forced transition at x/c =  1.0000   78

   5   rms: 0.6573E-06   max: 0.7988E-05   C at   78  2
       a =  2.000      CL =  0.6112
      Cm = -0.0803     CD =  0.00694   =>   CDf =  0.00500    CDp =  0.00194
 plradd ia,ip,cpol           13           0  9.88269746E-02

 Point added to stored polar  1
 Point written to save file  sa7038_Re400k.base.pol                          
 Dump file unspecified or not available
 Calculating wake trajectory ...
 Calculating source influence matrix ...

 Solving BL system ...

 Side 1  free  transition at x/c =  0.6463   59
 Side 2 forced transition at x/c =  1.0000   78

   1   rms: 0.9516E-01   max: 0.7397E+00   C at   59  1
       a =  2.500      CL =  0.6626
      Cm = -0.0793     CD =  0.00737   =>   CDf =  0.00501    CDp =  0.00237

 Side 1  free  transition at x/c =  0.6056   56
 Side 2 forced transition at x/c =  1.0000   78

   2   rms: 0.2074E-01   max: 0.2915E+00   D at   58  1
       a =  2.500      CL =  0.6634
      Cm = -0.0795     CD =  0.00725   =>   CDf =  0.00523    CDp =  0.00202

 Side 1  free  transition at x/c =  0.6076   56
 Side 2 forced transition at x/c =  1.0000   78

   3   rms: 0.4216E-02   max: -.6772E-01   D at   58  1
       a =  2.500      CL =  0.6634
      Cm = -0.0795     CD =  0.00727   =>   CDf =  0.00518    CDp =  0.00210

 Side 1  free  transition at x/c =  0.6060   56
 Side 2 forced transition at x/c =  1.0000   78

   4   rms: 0.1661E-03   max: -.3726E-02   D at   58  1
       a =  2.500      CL =  0.6634
      Cm = -0.0795     CD =  0.00728   =>   CDf =  0.00520    CDp =  0.00208

 Side 1  free  transition at x/c =  0.6059   56
 Side 2 forced transition at x/c =  1.0000   78

   5   rms: 0.1550E-05   max: -.1975E-04   D at   58  1
       a =  2.500      CL =  0.6634
      Cm = -0.0795     CD =  0.00728   =>   CDf =  0.00520    CDp =  0.00208
 plradd ia,ip,cpol           14           0  8.62101987E-02

 Point added to stored polar  1
 Point written to save file  sa7038_Re400k.base.pol                          
 Dump file unspecified or not available
 Calculating wake trajectory ...
 Calculating source influence matrix ...

 Solving BL system ...

 Side 1  free  transition at x/c =  0.6059   56
 Side 2 forced transition at x/c =  1.0000   78

   1   rms: 0.9491E-01   max: 0.7743E+00   C at   56  1
       a =  3.000      CL =  0.7147
      Cm = -0.0785     CD =  0.00771   =>   CDf =  0.00512    CDp =  0.00259

 Side 1  free  transition at x/c =  0.5628   54
 Side 2 forced transition at x/c =  1.0000   77

   2   rms: 0.2071E-01   max: 0.2864E+00   D at   56  1
       a =  3.000      CL =  0.7153
      Cm = -0.0787     CD =  0.00763   =>   CDf =  0.00542    CDp =  0.00221

 Side 1  free  transition at x/c =  0.5664   54
 Side 2 forced transition at x/c =  1.0000   77

   3   rms: 0.4809E-02   max: -.7322E-01   D at   56  1
       a =  3.000      CL =  0.7153
      Cm = -0.0787     CD =  0.00765   =>   CDf =  0.00535    CDp =  0.00230

 Side 1  free  transition at x/c =  0.5644   54
 Side 2 forced transition at x/c =  1.0000   77

   4   rms: 0.1870E-03   max: -.4137E-02   D at   56  1
       a =  3.000      CL =  0.7153
      Cm = -0.0787     CD =  0.00766   =>   CDf =  0.00537    CDp =  0.00228

 Side 1  free  transition at x/c =  0.5643   54
 Side 2 forced transition at x/c =  1.0000   77

   5   rms: 0.8672E-06   max: -.1194E-04   D at   56  1
       a =  3.000      CL =  0.7153
      Cm = -0.0787     CD =  0.00766   =>   CDf =  0.00537    CDp =  0.00228
 plradd ia,ip,cpol           15           0  6.18913695E-02

 Point added to stored polar  1
 Point written to save file  sa7038_Re400k.base.pol                          
 Dump file unspecified or not available
 Calculating wake trajectory ...
 Calculating source influence matrix ...

 Solving BL system ...

 Side 1  free  transition at x/c =  0.5643   54
 Side 2 forced transition at x/c =  1.0000   77

   1   rms: 0.9525E-01   max: 0.7995E+00   C at   54  1
       a =  3.500      CL =  0.7664
      Cm = -0.0777     CD =  0.00812   =>   CDf =  0.00538    CDp =  0.00274

 Side 1  free  transition at x/c =  0.5215   51
 Side 2 forced transition at x/c =  1.0000   77

   2   rms: 0.1922E-01   max: 0.2748E+00   D at   53  1
       a =  3.500      CL =  0.7669
      Cm = -0.0779     CD =  0.00805   =>   CDf =  0.00559    CDp =  0.00246

 Side 1  free  transition at x/c =  0.5244   51
 Side 2 forced transition at x/c =  1.0000   77

   3   rms: 0.3977E-02   max: -.6414E-01   D at   53  1
       a =  3.500      CL =  0.7669
      Cm = -0.0779     CD =  0.00807   =>   CDf =  0.00553    CDp =  0.00254

 Side 1  free  transition at x/c =  0.5227   51
 Side 2 forced transition at x/c =  1.0000   77

   4   rms: 0.1372E-03   max: -.3025E-02   D at   53  1
       a =  3.500      CL =  0.7669
      Cm = -0.0779     CD =  0.00807   =>   CDf =  0.00555    CDp =  0.00253

 Side 1  free  transition at x/c =  0.5227   51
 Side 2 forced transition at x/c =  1.0000   77

   5   rms: 0.1233E-05   max: -.9166E-05   C at   51  1
       a =  3.500      CL =  0.7669
      Cm = -0.0779     CD =  0.00807   =>   CDf =  0.00555    CDp =  0.00253
 plradd ia,ip,cpol           16           0  5.05297743E-02

 Point added to stored polar  1
 Point written to save file  sa7038_Re400k.base.pol                          
 Dump file unspecified or not available
 Calculating wake trajectory ...
 Calculating source influence matrix ...

 Solving BL system ...

 Side 1  free  transition at x/c =  0.5227   51
 Side 2 forced transition at x/c =  1.0000   77

   1   rms: 0.9379E-01   max: 0.7888E+00   C at   51  1
       a =  4.000      CL =  0.8182
      Cm = -0.0770     CD =  0.00854   =>   CDf =  0.00542    CDp =  0.00313

 Side 1  free  transition at x/c =  0.4789   49
 Side 2 forced transition at x/c =  1.0000   76

   2   rms: 0.2045E-01   max: 0.2718E+00   D at   51  1
       a =  4.000      CL =  0.8182
      Cm = -0.0770     CD =  0.00851   =>   CDf =  0.00575    CDp =  0.00276

 Side 1  free  transition at x/c =  0.4832   49
 Side 2 forced transition at x/c =  1.0000   76

   3   rms: 0.4631E-02   max: -.6888E-01   D at   51  1
       a =  4.000      CL =  0.8182
      Cm = -0.0771     CD =  0.00853   =>   CDf =  0.00567    CDp =  0.00286

 Side 1  free  transition at x/c =  0.4812   49
 Side 2 forced transition at x/c =  1.0000   76

   4   rms: 0.1560E-03   max: -.3321E-02   D at   51  1
       a =  4.000      CL =  0.8182
      Cm = -0.0770     CD =  0.00853   =>   CDf =  0.00569    CDp =  0.00284

 Side 1  free  transition at x/c =  0.4812   49
 Side 2 forced transition at x/c =  1.0000   76

   5   rms: 0.1424E-05   max: -.2043E-04   C at   49  1
       a =  4.000      CL =  0.8182
      Cm = -0.0770     CD =  0.00853   =>   CDf =  0.00569    CDp =  0.00284
 plradd ia,ip,cpol           17           0  5.05297743E-02

 Point added to stored polar  1
 Point written to save file  sa7038_Re400k.base.pol                          
 Dump file unspecified or not available
 Calculating wake trajectory ...
 Calculating source influence matrix ...

 Solving BL system ...

 Side 1  free  transition at x/c =  0.4812   49
 Side 2 forced transition at x/c =  1.0000   76

   1   rms: 0.9554E-01   max: 0.8315E+00   C at   49  1
       a =  4.500      CL =  0.8691
      Cm = -0.0762     CD =  0.00904   =>   CDf =  0.00569    CDp =  0.00335

 Side 1  free  transition at x/c =  0.4334   46
 Side 2 forced transition at x/c =  1.0000   76

   2   rms: 0.2320E-01   max: 0.2701E+00   D at   48  1
       a =  4.500      CL =  0.8689
      Cm = -0.0762     CD =  0.00902   =>   CDf =  0.00593    CDp =  0.00310

 Side 1  free  transition at x/c =  0.4397   46
 Side 2 forced transition at x/c =  1.0000   76

   3   rms: 0.6474E-02   max: 0.1073E+00   C at   46  1
       a =  4.500      CL =  0.8688
      Cm = -0.0762     CD =  0.00905   =>   CDf =  0.00583    CDp =  0.00322

 Side 1  free  transition at x/c =  0.4367   46
 Side 2 forced transition at x/c =  1.0000   76

   4   rms: 0.2489E-03   max: -.4664E-02   D at   48  1
       a =  4.500      CL =  0.8688
      Cm = -0.0762     CD =  0.00906   =>   CDf =  0.00586    CDp =  0.00320

 Side 1  free  transition at x/c =  0.4368   46
 Side 2 forced transition at x/c =  1.0000   76

   5   rms: 0.1010E-05   max: -.1082E-04   D at   48  1
       a =  4.500      CL =  0.8688
      Cm = -0.0762     CD =  0.00906   =>   CDf =  0.00586    CDp =  0.00320
 plradd ia,ip,cpol           18           0  3.99215296E-02

 Point added to stored polar  1
 Point written to save file  sa7038_Re400k.base.pol                          
 Dump file unspecified or not available
 Calculating wake trajectory ...
 Calculating source influence matrix ...

 Solving BL system ...

 Side 1  free  transition at x/c =  0.4368   46
 Side 2 forced transition at x/c =  1.0000   76

   1   rms: 0.9995E-01   max: 0.9481E+00   C at   46  1   RLX: 0.985
       a =  5.000      CL =  0.9178
      Cm = -0.0752     CD =  0.00966   =>   CDf =  0.00567    CDp =  0.00399

 Side 1  free  transition at x/c =  0.3941   44
 Side 2 forced transition at x/c =  1.0000   75

   2   rms: 0.2174E-01   max: 0.2501E+00   D at   46  1
       a =  5.000      CL =  0.9191
      Cm = -0.0753     CD =  0.00960   =>   CDf =  0.00602    CDp =  0.00358

 Side 1  free  transition at x/c =  0.3954   44
 Side 2 forced transition at x/c =  1.0000   75

   3   rms: 0.4263E-02   max: 0.5426E-01   C at   44  1
       a =  5.000      CL =  0.9190
      Cm = -0.0753     CD =  0.00962   =>   CDf =  0.00597    CDp =  0.00365

 Side 1  free  transition at x/c =  0.3940   44
 Side 2 forced transition at x/c =  1.0000   75

   4   rms: 0.8641E-04   max: -.1722E-02   D at   46  1
       a =  5.000      CL =  0.9190
      Cm = -0.0753     CD =  0.00962   =>   CDf =  0.00598    CDp =  0.00364
[...]
      Cm = -0.0324     CD =  0.04061   =>   CDf =  0.00587    CDp =  0.03474

 Side 1  free  transition at x/c =  0.0072   18
 Side 2 forced transition at x/c =  1.0000   70

   3   rms: 0.2681E-03   max: 0.5044E-02   D at   73  1
       a = 13.000      CL =  1.3936
      Cm = -0.0324     CD =  0.04056   =>   CDf =  0.00586    CDp =  0.03469

 Side 1  free  transition at x/c =  0.0072   18
 Side 2 forced transition at x/c =  1.0000   70

   4   rms: 0.6926E-05   max: 0.8593E-04   C at   70  2
       a = 13.000      CL =  1.3936
      Cm = -0.0324     CD =  0.04056   =>   CDf =  0.00586    CDp =  0.03469
 plradd ia,ip,cpol           42           0  5.28915225E-05

 Point added to stored polar  1
 Point written to save file  sa7038_Re400k.base.pol                          
 Dump file unspecified or not available
 Calculating wake trajectory ...
 Calculating source influence matrix ...

 Solving BL system ...

 Side 1  free  transition at x/c =  0.0072   18
 Side 2 forced transition at x/c =  1.0000   70

   1   rms: 0.4563E-01   max: 0.1572E+00   D at   69  1   RLX: 0.897
       a = 13.250      CL =  1.3890
      Cm = -0.0318     CD =  0.04380   =>   CDf =  0.00587    CDp =  0.03794

 Side 1  free  transition at x/c =  0.0071   18
 Side 2 forced transition at x/c =  1.0000   70

   2   rms: 0.7301E-02   max: 0.4835E-01   D at   71  1
       a = 13.250      CL =  1.3862
      Cm = -0.0317     CD =  0.04406   =>   CDf =  0.00573    CDp =  0.03833

 Side 1  free  transition at x/c =  0.0071   18
 Side 2 forced transition at x/c =  1.0000   70

   3   rms: 0.5164E-03   max: 0.6022E-02   D at   82  2
       a = 13.250      CL =  1.3860
      Cm = -0.0317     CD =  0.04399   =>   CDf =  0.00571    CDp =  0.03828

 Side 1  free  transition at x/c =  0.0071   18
 Side 2 forced transition at x/c =  1.0000   70

   4   rms: 0.1304E-04   max: -.1184E-03   C at   70  2
       a = 13.250      CL =  1.3860
      Cm = -0.0317     CD =  0.04399   =>   CDf =  0.00571    CDp =  0.03828
 plradd ia,ip,cpol           43           0  5.28915225E-05

 Point added to stored polar  1
 Point written to save file  sa7038_Re400k.base.pol                          
 Dump file unspecified or not available
 Calculating wake trajectory ...
 Calculating source influence matrix ...

 Solving BL system ...

 Side 1  free  transition at x/c =  0.0071   18
 Side 2 forced transition at x/c =  1.0000   70

   1   rms: 0.5239E-01   max: 0.1819E+00   D at   67  1   RLX: 0.837
       a = 13.500      CL =  1.3779
      Cm = -0.0314     CD =  0.04785   =>   CDf =  0.00571    CDp =  0.04213

 Side 1  free  transition at x/c =  0.0070   17
 Side 2 forced transition at x/c =  1.0000   70

   2   rms: 0.9257E-02   max: -.7001E-01   D at   17  1
       a = 13.500      CL =  1.3826
      Cm = -0.0315     CD =  0.04721   =>   CDf =  0.00558    CDp =  0.04163

 Side 1  free  transition at x/c =  0.0070   17
 Side 2 forced transition at x/c =  1.0000   70

   3   rms: 0.6071E-03   max: 0.2941E-02   D at   18  1
       a = 13.500      CL =  1.3829
      Cm = -0.0314     CD =  0.04715   =>   CDf =  0.00557    CDp =  0.04158

 Side 1  free  transition at x/c =  0.0070   17
 Side 2 forced transition at x/c =  1.0000   70

   4   rms: 0.4884E-04   max: 0.2259E-03   D at   68  1
       a = 13.500      CL =  1.3829
      Cm = -0.0314     CD =  0.04716   =>   CDf =  0.00557    CDp =  0.04159
 plradd ia,ip,cpol           44           0  5.28915225E-05

 Point added to stored polar  1
 Point written to save file  sa7038_Re400k.base.pol                          
 Dump file unspecified or not available
 Calculating wake trajectory ...
 Calculating source influence matrix ...

 Solving BL system ...

 Side 1  free  transition at x/c =  0.0070   17
 Side 2 forced transition at x/c =  1.0000   70

   1   rms: 0.3956E-01   max: 0.1354E+00   D at   65  1   RLX: 0.806
       a = 13.750      CL =  1.3821
      Cm = -0.0315     CD =  0.05015   =>   CDf =  0.00557    CDp =  0.04457

 Side 1  free  transition at x/c =  0.0069   17
 Side 2 forced transition at x/c =  1.0000   70

   2   rms: 0.1123E-01   max: 0.5800E-01   D at   67  1
       a = 13.750      CL =  1.3787
      Cm = -0.0316     CD =  0.05085   =>   CDf =  0.00546    CDp =  0.04540

 Side 1  free  transition at x/c =  0.0069   17
 Side 2 forced transition at x/c =  1.0000   70

   3   rms: 0.1496E-02   max: 0.1054E-01   D at   83  2
       a = 13.750      CL =  1.3778
      Cm = -0.0315     CD =  0.05076   =>   CDf =  0.00542    CDp =  0.04534

 Side 1  free  transition at x/c =  0.0070   17
 Side 2 forced transition at x/c =  1.0000   70

   4   rms: 0.8847E-04   max: 0.1035E-02   D at   83  2
       a = 13.750      CL =  1.3778
      Cm = -0.0315     CD =  0.05075   =>   CDf =  0.00542    CDp =  0.04532
 plradd ia,ip,cpol           45           0  5.28915225E-05

 Point added to stored polar  1
 Point written to save file  sa7038_Re400k.base.pol                          
 Dump file unspecified or not available
 Calculating wake trajectory ...
 Calculating source influence matrix ...

 Solving BL system ...

 Side 1  free  transition at x/c =  0.0070   17
 Side 2 forced transition at x/c =  1.0000   70

   1   rms: 0.3490E-01   max: 0.1408E+00   T at   17  1   RLX: 0.771
       a = 14.000      CL =  1.3811
      Cm = -0.0319     CD =  0.05320   =>   CDf =  0.00543    CDp =  0.04777

 Side 1  free  transition at x/c =  0.0068   17
 Side 2 forced transition at x/c =  1.0000   70

   2   rms: 0.1551E-01   max: 0.6129E-01   D at   65  1
       a = 14.000      CL =  1.3765
      Cm = -0.0320     CD =  0.05438   =>   CDf =  0.00532    CDp =  0.04906

 Side 1  free  transition at x/c =  0.0068   17
 Side 2 forced transition at x/c =  1.0000   70

   3   rms: 0.2180E-02   max: 0.1029E-01   D at   84  2
       a = 14.000      CL =  1.3751
      Cm = -0.0320     CD =  0.05425   =>   CDf =  0.00527    CDp =  0.04898

 Side 1  free  transition at x/c =  0.0068   17
 Side 2 forced transition at x/c =  1.0000   70

   4   rms: 0.1101E-03   max: 0.8496E-03   D at   84  2
       a = 14.000      CL =  1.3751
      Cm = -0.0320     CD =  0.05423   =>   CDf =  0.00527    CDp =  0.04896

 Side 1  free  transition at x/c =  0.0068   17
 Side 2 forced transition at x/c =  1.0000   70

   5   rms: 0.2955E-05   max: -.2237E-04   C at   70  2
       a = 14.000      CL =  1.3751
      Cm = -0.0320     CD =  0.05423   =>   CDf =  0.00527    CDp =  0.04896
 plradd ia,ip,cpol           46           0  5.28915225E-05

 Point added to stored polar  1
 Point written to save file  sa7038_Re400k.base.pol                          
 Dump file unspecified or not available
 Calculating wake trajectory ...
 Calculating source influence matrix ...

 Solving BL system ...

 Side 1  free  transition at x/c =  0.0068   17
 Side 2 forced transition at x/c =  1.0000   70

   1   rms: 0.4067E-01   max: 0.1438E+00   D at   61  1   RLX: 0.729
       a = 14.250      CL =  1.3732
      Cm = -0.0325     CD =  0.05750   =>   CDf =  0.00527    CDp =  0.05222

 Side 1  free  transition at x/c =  0.0068   17
 Side 2 forced transition at x/c =  1.0000   70

   2   rms: 0.1416E-01   max: 0.6223E-01   D at   62  1
       a = 14.250      CL =  1.3693
      Cm = -0.0328     CD =  0.05863   =>   CDf =  0.00516    CDp =  0.05346

 Side 1  free  transition at x/c =  0.0068   17
 Side 2 forced transition at x/c =  1.0000   70

   3   rms: 0.2225E-02   max: 0.1198E-01   D at   84  2
       a = 14.250      CL =  1.3679
      Cm = -0.0327     CD =  0.05848   =>   CDf =  0.00512    CDp =  0.05336

 Side 1  free  transition at x/c =  0.0068   17
 Side 2 forced transition at x/c =  1.0000   70

   4   rms: 0.1231E-03   max: 0.1086E-02   D at   84  2
       a = 14.250      CL =  1.3678
      Cm = -0.0327     CD =  0.05845   =>   CDf =  0.00512    CDp =  0.05334

 Side 1  free  transition at x/c =  0.0068   17
 Side 2 forced transition at x/c =  1.0000   70

   5   rms: 0.4821E-05   max: -.2379E-04   C at   70  2
       a = 14.250      CL =  1.3678
      Cm = -0.0327     CD =  0.05845   =>   CDf =  0.00512    CDp =  0.05333
 plradd ia,ip,cpol           47           0  5.28915225E-05

 Point added to stored polar  1
 Point written to save file  sa7038_Re400k.base.pol                          
 Dump file unspecified or not available
 Calculating wake trajectory ...
 Calculating source influence matrix ...

 Solving BL system ...

 Side 1  free  transition at x/c =  0.0068   17
 Side 2 forced transition at x/c =  1.0000   70

   1   rms: 0.3785E-01   max: 0.1336E+00   D at   59  1   RLX: 0.695
       a = 14.500      CL =  1.3675
      Cm = -0.0335     CD =  0.06158   =>   CDf =  0.00512    CDp =  0.05646

 Side 1  free  transition at x/c =  0.0067   17
 Side 2 forced transition at x/c =  1.0000   70

   2   rms: 0.1447E-01   max: 0.6335E-01   D at   60  1
       a = 14.500      CL =  1.3641
      Cm = -0.0339     CD =  0.06287   =>   CDf =  0.00501    CDp =  0.05785

 Side 1  free  transition at x/c =  0.0067   17
 Side 2 forced transition at x/c =  1.0000   70

   3   rms: 0.2563E-02   max: 0.1603E-01   D at   84  2
       a = 14.500      CL =  1.3625
      Cm = -0.0338     CD =  0.06269   =>   CDf =  0.00496    CDp =  0.05773

 Side 1  free  transition at x/c =  0.0067   17
 Side 2 forced transition at x/c =  1.0000   70

   4   rms: 0.1486E-03   max: 0.1317E-02   D at   84  2
       a = 14.500      CL =  1.3624
      Cm = -0.0338     CD =  0.06265   =>   CDf =  0.00496    CDp =  0.05769

 Side 1  free  transition at x/c =  0.0067   17
 Side 2 forced transition at x/c =  1.0000   70

   5   rms: 0.4633E-05   max: -.3313E-04   C at   70  2
       a = 14.500      CL =  1.3624
      Cm = -0.0338     CD =  0.06265   =>   CDf =  0.00496    CDp =  0.05769
 plradd ia,ip,cpol           48           0  5.28915225E-05

 Point added to stored polar  1
 Point written to save file  sa7038_Re400k.base.pol                          
 Dump file unspecified or not available
 Calculating wake trajectory ...
 Calculating source influence matrix ...

 Solving BL system ...

 Side 1  free  transition at x/c =  0.0067   17
 Side 2 forced transition at x/c =  1.0000   70

   1   rms: 0.3921E-01   max: 0.1415E+00   D at   57  1   RLX: 0.663
       a = 14.750      CL =  1.3610
      Cm = -0.0348     CD =  0.06600   =>   CDf =  0.00497    CDp =  0.06104

 Side 1  free  transition at x/c =  0.0066   17
 Side 2 forced transition at x/c =  1.0000   70

   2   rms: 0.1645E-01   max: 0.7083E-01   D at   58  1
       a = 14.750      CL =  1.3568
      Cm = -0.0353     CD =  0.06761   =>   CDf =  0.00486    CDp =  0.06275

 Side 1  free  transition at x/c =  0.0066   17
 Side 2 forced transition at x/c =  1.0000   70

   3   rms: 0.2911E-02   max: 0.1436E-01   D at   85  2
       a = 14.750      CL =  1.3550
      Cm = -0.0353     CD =  0.06739   =>   CDf =  0.00481    CDp =  0.06259

 Side 1  free  transition at x/c =  0.0066   17
 Side 2 forced transition at x/c =  1.0000   70

   4   rms: 0.1849E-03   max: 0.1525E-02   D at   85  2
       a = 14.750      CL =  1.3549
      Cm = -0.0352     CD =  0.06734   =>   CDf =  0.00481    CDp =  0.06254

 Side 1  free  transition at x/c =  0.0066   17
 Side 2 forced transition at x/c =  1.0000   70

   5   rms: 0.7760E-05   max: -.5525E-04   C at   70  2
       a = 14.750      CL =  1.3549
      Cm = -0.0352     CD =  0.06734   =>   CDf =  0.00481    CDp =  0.06253
 plradd ia,ip,cpol           49           0  5.28915225E-05

 Point added to stored polar  1
 Point written to save file  sa7038_Re400k.base.pol                          
 Dump file unspecified or not available
 Calculating wake trajectory ...
 Calculating source influence matrix ...

 Solving BL system ...

 Side 1  free  transition at x/c =  0.0066   17
 Side 2 forced transition at x/c =  1.0000   70

   1   rms: 0.3838E-01   max: 0.1408E+00   D at   55  1   RLX: 0.633
       a = 15.000      CL =  1.3534
      Cm = -0.0363     CD =  0.07072   =>   CDf =  0.00481    CDp =  0.06591

 Side 1  free  transition at x/c =  0.0066   17
 Side 2 forced transition at x/c =  1.0000   70

   2   rms: 0.1709E-01   max: 0.7284E-01   D at   56  1
       a = 15.000      CL =  1.3495
      Cm = -0.0370     CD =  0.07256   =>   CDf =  0.00471    CDp =  0.06785

 Side 1  free  transition at x/c =  0.0066   17
 Side 2 forced transition at x/c =  1.0000   70

   3   rms: 0.3424E-02   max: 0.1717E-01   D at   85  2
       a = 15.000      CL =  1.3473
      Cm = -0.0370     CD =  0.07233   =>   CDf =  0.00466    CDp =  0.06767

 Side 1  free  transition at x/c =  0.0066   17
 Side 2 forced transition at x/c =  1.0000   70

   4   rms: 0.2447E-03   max: 0.2388E-02   D at   85  2
       a = 15.000      CL =  1.3472
      Cm = -0.0369     CD =  0.07226   =>   CDf =  0.00465    CDp =  0.06760

 Side 1  free  transition at x/c =  0.0066   17
 Side 2 forced transition at x/c =  1.0000   70

   5   rms: 0.8540E-05   max: -.7879E-04   C at   70  2
       a = 15.000      CL =  1.3472
      Cm = -0.0369     CD =  0.07226   =>   CDf =  0.00465    CDp =  0.06760
 plradd ia,ip,cpol           50           0  5.28915225E-05

 Point added to stored polar  1
 Point written to save file  sa7038_Re400k.base.pol                          
 Dump file unspecified or not available
 Calculating wake trajectory ...
 Calculating source influence matrix ...

 Solving BL system ...

 Side 1  free  transition at x/c =  0.0066   17
 Side 2 forced transition at x/c =  1.0000   70

   1   rms: 0.3842E-01   max: 0.1430E+00   D at   53  1   RLX: 0.605
       a = 15.250      CL =  1.3455
      Cm = -0.0381     CD =  0.07574   =>   CDf =  0.00466    CDp =  0.07108

 Side 1  free  transition at x/c =  0.0065   17
 Side 2 forced transition at x/c =  1.0000   70

   2   rms: 0.1837E-01   max: 0.7735E-01   D at   54  1
       a = 15.250      CL =  1.3410
      Cm = -0.0390     CD =  0.07787   =>   CDf =  0.00456    CDp =  0.07331

 Side 1  free  transition at x/c =  0.0065   17
 Side 2 forced transition at x/c =  1.0000   70

   3   rms: 0.3635E-02   max: 0.1823E-01   D at   85  2
       a = 15.250      CL =  1.3388
      Cm = -0.0390     CD =  0.07757   =>   CDf =  0.00450    CDp =  0.07307

 Side 1  free  transition at x/c =  0.0065   17
 Side 2 forced transition at x/c =  1.0000   70

   4   rms: 0.2445E-03   max: 0.1764E-02   D at   85  2
       a = 15.250      CL =  1.3386
      Cm = -0.0389     CD =  0.07749   =>   CDf =  0.00450    CDp =  0.07299

 Side 1  free  transition at x/c =  0.0065   17
 Side 2 forced transition at x/c =  1.0000   70

   5   rms: 0.1070E-04   max: -.8575E-04   C at   70  2
       a = 15.250      CL =  1.3386
      Cm = -0.0389     CD =  0.07749   =>   CDf =  0.00450    CDp =  0.07299
 plradd ia,ip,cpol           51           0  5.28915225E-05

 Point added to stored polar  1
 Point written to save file  sa7038_Re400k.base.pol                          
 Dump file unspecified or not available
 Calculating wake trajectory ...
 Calculating source influence matrix ...

 Solving BL system ...

 Side 1  free  transition at x/c =  0.0065   17
 Side 2 forced transition at x/c =  1.0000   70

   1   rms: 0.3876E-01   max: 0.1458E+00   D at   51  1   RLX: 0.579
       a = 15.500      CL =  1.3364
      Cm = -0.0402     CD =  0.08104   =>   CDf =  0.00450    CDp =  0.07654

 Side 1  free  transition at x/c =  0.0065   17
 Side 2 forced transition at x/c =  1.0000   70

   2   rms: 0.1960E-01   max: 0.8077E-01   D at   52  1
       a = 15.500      CL =  1.3315
      Cm = -0.0412     CD =  0.08353   =>   CDf =  0.00441    CDp =  0.07913

 Side 1  free  transition at x/c =  0.0066   17
 Side 2 forced transition at x/c =  1.0000   70

   3   rms: 0.4085E-02   max: 0.1895E-01   D at   86  2
       a = 15.500      CL =  1.3290
      Cm = -0.0412     CD =  0.08320   =>   CDf =  0.00434    CDp =  0.07886

 Side 1  free  transition at x/c =  0.0066   17
 Side 2 forced transition at x/c =  1.0000   70

   4   rms: 0.2808E-03   max: 0.2284E-02   D at   86  2
       a = 15.500      CL =  1.3288
      Cm = -0.0412     CD =  0.08310   =>   CDf =  0.00434    CDp =  0.07876

 Side 1  free  transition at x/c =  0.0066   17
 Side 2 forced transition at x/c =  1.0000   70

   5   rms: 0.1479E-04   max: -.8678E-04   C at   70  2
       a = 15.500      CL =  1.3288
      Cm = -0.0412     CD =  0.08309   =>   CDf =  0.00434    CDp =  0.07876
 plradd ia,ip,cpol           52           0  5.28915225E-05

 Point added to stored polar  1
 Point written to save file  sa7038_Re400k.base.pol                          
 Dump file unspecified or not available
 Calculating wake trajectory ...
 Calculating source influence matrix ...

 Solving BL system ...

 Side 1  free  transition at x/c =  0.0066   17
 Side 2 forced transition at x/c =  1.0000   70

   1   rms: 0.3803E-01   max: 0.1475E+00   D at   49  1   RLX: 0.555
       a = 15.750      CL =  1.3269
      Cm = -0.0426     CD =  0.08669   =>   CDf =  0.00434    CDp =  0.08235

 Side 1  free  transition at x/c =  0.0065   17
 Side 2 forced transition at x/c =  1.0000   70

   2   rms: 0.1977E-01   max: 0.8125E-01   D at   50  1
       a = 15.750      CL =  1.3223
      Cm = -0.0439     CD =  0.08940   =>   CDf =  0.00425    CDp =  0.08515

 Side 1  free  transition at x/c =  0.0065   17
 Side 2 forced transition at x/c =  1.0000   70

   3   rms: 0.4312E-02   max: 0.2050E-01   D at   86  2
       a = 15.750      CL =  1.3197
      Cm = -0.0439     CD =  0.08901   =>   CDf =  0.00418    CDp =  0.08483

 Side 1  free  transition at x/c =  0.0065   17
 Side 2 forced transition at x/c =  1.0000   70

   4   rms: 0.3363E-03   max: 0.3867E-02   D at   86  2
       a = 15.750      CL =  1.3195
      Cm = -0.0438     CD =  0.08888   =>   CDf =  0.00418    CDp =  0.08471

 Side 1  free  transition at x/c =  0.0065   17
 Side 2 forced transition at x/c =  1.0000   70

   5   rms: 0.1777E-04   max: 0.1304E-03   D at   86  2
       a = 15.750      CL =  1.3195
      Cm = -0.0438     CD =  0.08888   =>   CDf =  0.00418    CDp =  0.08470
 plradd ia,ip,cpol           53           0  5.28915225E-05

 Point added to stored polar  1
 Point written to save file  sa7038_Re400k.base.pol                          
 Dump file unspecified or not available
 Calculating wake trajectory ...
 Calculating source influence matrix ...

 Solving BL system ...

 Side 1  free  transition at x/c =  0.0065   17
 Side 2 forced transition at x/c =  1.0000   70

   1   rms: 0.3797E-01   max: 0.1497E+00   D at   47  1   RLX: 0.533
       a = 16.000      CL =  1.3173
      Cm = -0.0453     CD =  0.09255   =>   CDf =  0.00418    CDp =  0.08837

 Side 1  free  transition at x/c =  0.0064   17
 Side 2 forced transition at x/c =  1.0000   70

   2   rms: 0.2046E-01   max: 0.8196E-01   D at   48  1
       a = 16.000      CL =  1.3125
      Cm = -0.0467     CD =  0.09553   =>   CDf =  0.00410    CDp =  0.09144

 Side 1  free  transition at x/c =  0.0064   17
 Side 2 forced transition at x/c =  1.0000   70

   3   rms: 0.4834E-02   max: 0.2176E-01   D at   48  1
       a = 16.000      CL =  1.3096
      Cm = -0.0467     CD =  0.09511   =>   CDf =  0.00402    CDp =  0.09109

 Side 1  free  transition at x/c =  0.0065   17
 Side 2 forced transition at x/c =  1.0000   70

   4   rms: 0.3703E-03   max: 0.2506E-02   D at   86  2
       a = 16.000      CL =  1.3094
      Cm = -0.0467     CD =  0.09495   =>   CDf =  0.00402    CDp =  0.09092

 Side 1  free  transition at x/c =  0.0065   17
 Side 2 forced transition at x/c =  1.0000   70

   5   rms: 0.3023E-04   max: -.9641E-04   D at   88  2
       a = 16.000      CL =  1.3094
      Cm = -0.0467     CD =  0.09494   =>   CDf =  0.00402    CDp =  0.09092
 plradd ia,ip,cpol           54           0  5.28915225E-05

 Point added to stored polar  1
 Point written to save file  sa7038_Re400k.base.pol                          
 Dump file unspecified or not available

.OPERva   c>  
 Polar accumulation disabled

.OPERv   c>  
 XFOIL   c>  
 XFOIL   c>  