  
       XFOIL         Version 6.99
  
 Calculated polar for: NASA SC(2)-0410 AIRFOIL                         
  
 1 1 Reynolds number fixed          Mach number fixed         
  
 xtrf =   1.000 (top)        1.000 (bottom)  
 Mach =   0.000     Re =     0.600 e 6     Ncrit =   9.000
  
   alpha    CL        CD       CDp       CM     Top_Xtr  Bot_Xtr
  ------ -------- --------- --------- -------- -------- --------
  -4.000  -0.3391   0.00985   0.00377  -0.0413   1.0000   0.0898
  -3.500  -0.2649   0.00878   0.00327  -0.0464   0.9984   0.2089
  -3.000  -0.1838   0.00689   0.00284  -0.0539   0.9997   0.5688
  -2.500  -0.1103   0.00683   0.00291  -0.0577   0.9953   0.6435
  -2.000  -0.0356   0.00683   0.00290  -0.0616   0.9886   0.6714
  -1.500   0.0443   0.00675   0.00286  -0.0664   0.9824   0.6891
  -1.000   0.1212   0.00668   0.00287  -0.0702   0.9711   0.7076
  -0.500   0.1852   0.00663   0.00285  -0.0711   0.9465   0.7167
   0.000   0.2415   0.00667   0.00284  -0.0703   0.9049   0.7255
   0.500   0.2952   0.00684   0.00289  -0.0690   0.8533   0.7321
   1.000   0.3499   0.00711   0.00288  -0.0682   0.7751   0.7369
   1.500   0.4014   0.00788   0.00292  -0.0670   0.5906   0.7405
   2.000   0.4501   0.00955   0.00335  -0.0662   0.2881   0.7437
   2.500   0.5033   0.01064   0.00378  -0.0661   0.1337   0.7474
   3.000   0.5588   0.01137   0.00422  -0.0662   0.0813   0.7514
   3.500   0.6154   0.01190   0.00469  -0.0664   0.0649   0.7551
   4.000   0.6705   0.01247   0.00525  -0.0662   0.0551   0.7585
   4.500   0.7256   0.01298   0.00577  -0.0661   0.0478   0.7621
   5.000   0.7807   0.01354   0.00637  -0.0659   0.0415   0.7663
   5.500   0.8351   0.01430   0.00713  -0.0657   0.0350   0.7710
   6.000   0.8874   0.01522   0.00812  -0.0650   0.0300   0.7750
   6.500   0.9393   0.01617   0.00909  -0.0644   0.0265   0.7794
   7.000   0.9906   0.01737   0.01043  -0.0636   0.0246   0.7845
   7.500   1.0413   0.01850   0.01169  -0.0627   0.0230   0.7891
   8.000   1.0891   0.02008   0.01337  -0.0615   0.0218   0.7941
   8.500   1.1344   0.02245   0.01601  -0.0599   0.0210   0.7998
   9.000   1.1799   0.02445   0.01832  -0.0584   0.0203   0.8052
   9.500   1.2231   0.02650   0.02067  -0.0566   0.0194   0.8116
  10.000   1.2625   0.02905   0.02355  -0.0545   0.0188   0.8183
  10.000   1.2625   0.02905   0.02355  -0.0545   0.0188   0.8183
  10.250   1.2803   0.03039   0.02506  -0.0532   0.0185   0.8214
  10.500   1.2969   0.03184   0.02666  -0.0518   0.0183   0.8249
  10.750   1.3116   0.03351   0.02851  -0.0503   0.0181   0.8287
  11.000   1.3229   0.03557   0.03076  -0.0485   0.0179   0.8323
  11.250   1.3282   0.03823   0.03369  -0.0461   0.0177   0.8358
  11.500   1.3256   0.04160   0.03738  -0.0430   0.0176   0.8397
  11.750   1.3154   0.04531   0.04142  -0.0395   0.0175   0.8441
  12.000   1.2965   0.04855   0.04493  -0.0348   0.0175   0.8486
  12.250   1.2762   0.05210   0.04875  -0.0313   0.0175   0.8533
  12.500   1.2534   0.05652   0.05342  -0.0296   0.0175   0.8584
  12.750   1.2317   0.06161   0.05874  -0.0300   0.0176   0.8630
  13.000   1.2068   0.06830   0.06569  -0.0331   0.0176   0.8675
