  
       XFOIL         Version 6.99
  
 Calculated polar for: NASA SC(2)-0406 AIRFOIL                         
  
 1 1 Reynolds number fixed          Mach number fixed         
  
 xtrf =   1.000 (top)        1.000 (bottom)  
 Mach =   0.000     Re =     0.200 e 6     Ncrit =   9.000
  
   alpha    CL        CD       CDp       CM     Top_Xtr  Bot_Xtr
  ------ -------- --------- --------- -------- -------- --------
  -4.000  -0.3170   0.01270   0.00460  -0.0322   1.0000   0.0686
  -3.500  -0.2601   0.01115   0.00331  -0.0332   1.0000   0.1339
  -3.000  -0.2056   0.00845   0.00287  -0.0343   1.0000   0.6742
  -2.500  -0.1574   0.00837   0.00290  -0.0317   1.0000   0.7627
  -2.000  -0.1127   0.00837   0.00296  -0.0283   1.0000   0.8196
  -1.500  -0.0747   0.00833   0.00300  -0.0234   1.0000   0.8676
  -0.500  -0.0071   0.00773   0.00255  -0.0125   1.0000   0.9630
   0.000   0.0542   0.00761   0.00246  -0.0149   1.0000   1.0000
   0.500   0.1178   0.00776   0.00266  -0.0180   1.0000   1.0000
   1.000   0.1791   0.00801   0.00300  -0.0205   1.0000   1.0000
   1.500   0.2811   0.00788   0.00315  -0.0303   0.9703   1.0000
   2.000   0.3618   0.00762   0.00296  -0.0332   0.8395   1.0000
   2.500   0.3963   0.01127   0.00352  -0.0287   0.1410   1.0000
   3.000   0.4519   0.01286   0.00473  -0.0292   0.0638   1.0000
   3.500   0.5061   0.01539   0.00723  -0.0288   0.0374   1.0000
   4.500   0.6163   0.02349   0.01622  -0.0273   0.0325   1.0000
   5.000   0.6664   0.03102   0.02455  -0.0263   0.0343   1.0000
