
 ===================================================
  XFOIL Version 6.99
  Copyright (C) 2000   Mark Drela, Harold Youngren

  This software comes with ABSOLUTELY NO WARRANTY,
    subject to the GNU General Public License.

  Caveat computor
 ===================================================

 File  xfoil.def  not found

   QUIT    Exit program

  .OPER    Direct operating point(s)
  .MDES    Complex mapping design routine
  .QDES    Surface speed design routine
  .GDES    Geometry design routine

   SAVE f  Write airfoil to labeled coordinate file
   PSAV f  Write airfoil to plain coordinate file
   ISAV f  Write airfoil to ISES coordinate file
   MSAV f  Write airfoil to MSES coordinate file
   REVE    Reverse written-airfoil node ordering

   LOAD f  Read buffer airfoil from coordinate file
   NACA i  Set NACA 4,5-digit airfoil and buffer airfoil
   INTE    Set buffer airfoil by interpolating two airfoils
   NORM    Buffer airfoil normalization toggle
   XYCM rr Change CM reference location, currently  0.25000 0.00000

   BEND    Display structural properties of current airfoil

   PCOP    Set current-airfoil panel nodes directly from buffer airfoil points
   PANE    Set current-airfoil panel nodes ( 160 ) based on curvature
  .PPAR    Show/change paneling

  .PLOP    Plotting options

   WDEF f  Write  current-settings file
   RDEF f  Reread current-settings file
   NAME s  Specify new airfoil name
   NINC    Increment name version number

   Z       Zoom    | (available in all menus)
   U       Unzoom  | 

 XFOIL   c>  
 Labeled airfoil file.  Name:  NASA SC(2)-0012 AIRFOIL                         

 Number of input coordinate points: 205
 Counterclockwise ordering
 Max thickness =     0.120000  at x =   0.400
 Max camber    =     0.000000  at x =   0.960

  LE  x,y  =   0.00000   0.00000  |   Chord =   1.00000
  TE  x,y  =   1.00000   0.00000  |

 Current airfoil nodes set from buffer airfoil nodes ( 205 )

 XFOIL   c>  
 XFOIL   c>  
 Blunt trailing edge.  Gap =  0.00600

 Paneling parameters used...
   Number of panel nodes       160
   Panel bunching parameter    1.000
   TE/LE panel density ratio   0.150
   Refined-area/LE panel density ratio    0.200
   Top    side refined area x/c limits  1.000 1.000
   Bottom side refined area x/c limits  1.000 1.000

 XFOIL   c>  
.OPERi   c>  
 Xtr/c     =  1.0000    top    side
 Xtr/c     =  1.0000    bottom side
 Ncrit     =    9.00   ( 0.070 % turb. level )
 Vacc      =  0.0100

 Klag  =  5.6000     Uxwt  =    1.00
 A     =  6.7000     B     =  0.7500       KCt = 0.01485
 CtiniK=  1.8000     CtiniX=  3.3000

..VPAR   c>  
..VPAR   c>  
.OPERi   c>  
 M  =    0.0000
 Re =    150000

.OPERv   c>  
.OPERv   c>  
.OPERv   c>  
 Polar  1 newly created for accumulation
 Airfoil archived with polar: NASA SC(2)-0012 AIRFOIL                         

Enter  polar save filename  OR  <return> for no file   s>  
 New polar save file available

Enter  polar dump filename  OR  <return> for no file   s>  
 Polar dump file will NOT be written

 Polar accumulation enabled

.OPERva   c>   Calculating unit vorticity distributions ...
 Calculating wake trajectory ...
 Calculating source influence matrix ...

 Solving BL system ...

 Initializing BL ...
    side            1  ...
 MRCHUE: Inverse mode at  55     Hk =   3.800
 MRCHUE: Inverse mode at  56     Hk =   4.182
 MRCHUE: Inverse mode at  57     Hk =   4.573
 MRCHUE: Inverse mode at  58     Hk =   4.966
 MRCHUE: Inverse mode at  59     Hk =   5.357
 MRCHUE: Inverse mode at  60     Hk =   5.743
 MRCHUE: Inverse mode at  61     Hk =   6.124
 MRCHUE: Inverse mode at  62     Hk =   6.499
 MRCHUE: Inverse mode at  63     Hk =   6.869
 MRCHUE: Inverse mode at  64     Hk =   7.235
 MRCHUE: Inverse mode at  65     Hk =   7.595
 MRCHUE: Inverse mode at  66     Hk =   7.951
 MRCHUE: Inverse mode at  67     Hk =   8.302
 MRCHUE: Inverse mode at  68     Hk =   8.647
 MRCHUE: Inverse mode at  69     Hk =   8.983
 MRCHUE: Inverse mode at  70     Hk =   9.306
 MRCHUE: Inverse mode at  71     Hk =   9.609
 MRCHUE: Inverse mode at  72     Hk =   9.884
 MRCHUE: Inverse mode at  73     Hk =  10.035
 MRCHUE: Inverse mode at  74     Hk =   9.043
 MRCHUE: Inverse mode at  75     Hk =   8.609
    side            2  ...
 MRCHUE: Inverse mode at  25     Hk =   4.228
 MRCHUE: Inverse mode at  26     Hk =   4.789
 MRCHUE: Inverse mode at  27     Hk =   5.378
 MRCHUE: Inverse mode at  28     Hk =   6.004
 MRCHUE: Inverse mode at  29     Hk =   6.665
 MRCHUE: Inverse mode at  30     Hk =   7.364
 MRCHUE: Inverse mode at  31     Hk =   8.094
 MRCHUE: Inverse mode at  32     Hk =   8.842
 MRCHUE: Inverse mode at  33     Hk =   9.596
 MRCHUE: Inverse mode at  34     Hk =   9.802
 MRCHUE: Inverse mode at  35     Hk =   6.437
 MRCHUE: Inverse mode at  36     Hk =   4.813
 MRCHUE: Inverse mode at  37     Hk =   3.692
 MRCHUE: Inverse mode at  38     Hk =   2.820
 MRCHUE: Inverse mode at  87     Hk =   2.500
 MRCHUE: Inverse mode at  89     Hk =   3.280

 Side 1  free  transition at x/c =  0.9814   73
 Side 2  free  transition at x/c =  0.1370   34

   1   rms: 0.2776E+00   max: -.1962E+01   T at   34  2   RLX: 0.255
       a = -4.000      CL = -0.4867
      Cm = -0.0067     CD =  0.01562   =>   CDf =  0.00919    CDp =  0.00643

 MRCHDU: Convergence failed at  36  side 2    Res =  0.3555E+02
 MRCHDU: Convergence failed at  37  side 2    Res =  0.1079E+03
 MRCHDU: Convergence failed at  38  side 2    Res =  0.1059E+02
 MRCHDU: Convergence failed at  39  side 2    Res =  0.6331E+01
 MRCHDU: Convergence failed at  40  side 2    Res =  0.6205E+01
 MRCHDU: Convergence failed at  41  side 2    Res =  0.1177E+02
 MRCHDU: Convergence failed at  42  side 2    Res =  0.1146E+02
 MRCHDU: Convergence failed at  43  side 2    Res =  0.2230E+02
 MRCHDU: Convergence failed at  44  side 2    Res =  0.2170E+02
 MRCHDU: Convergence failed at  45  side 2    Res =  0.2372E+02
 MRCHDU: Convergence failed at  46  side 2    Res =  0.2233E+02
 MRCHDU: Convergence failed at  47  side 2    Res =  0.2323E+02
 MRCHDU: Convergence failed at  48  side 2    Res =  0.2311E+02
 MRCHDU: Convergence failed at  49  side 2    Res =  0.2121E+02
 MRCHDU: Convergence failed at  50  side 2    Res =  0.2018E+02
 MRCHDU: Convergence failed at  51  side 2    Res =  0.1900E+02
 MRCHDU: Convergence failed at  52  side 2    Res =  0.1833E+02
 MRCHDU: Convergence failed at  53  side 2    Res =  0.1836E+02
 MRCHDU: Convergence failed at  54  side 2    Res =  0.1745E+02
 MRCHDU: Convergence failed at  55  side 2    Res =  0.1693E+02
 MRCHDU: Convergence failed at  56  side 2    Res =  0.1621E+02
 MRCHDU: Convergence failed at  57  side 2    Res =  0.1571E+02
 MRCHDU: Convergence failed at  58  side 2    Res =  0.1533E+02
 MRCHDU: Convergence failed at  59  side 2    Res =  0.1469E+02
 MRCHDU: Convergence failed at  60  side 2    Res =  0.1391E+02
 MRCHDU: Convergence failed at  61  side 2    Res =  0.1405E+02
 MRCHDU: Convergence failed at  62  side 2    Res =  0.1336E+02
 MRCHDU: Convergence failed at  63  side 2    Res =  0.1326E+02
 MRCHDU: Convergence failed at  64  side 2    Res =  0.1242E+02
 MRCHDU: Convergence failed at  65  side 2    Res =  0.1188E+02
 MRCHDU: Convergence failed at  66  side 2    Res =  0.1151E+02
 MRCHDU: Convergence failed at  67  side 2    Res =  0.1086E+02
 MRCHDU: Convergence failed at  68  side 2    Res =  0.8225E+01
 MRCHDU: Convergence failed at  69  side 2    Res =  0.9142E+01
 MRCHDU: Convergence failed at  70  side 2    Res =  0.1008E+02
 MRCHDU: Convergence failed at  71  side 2    Res =  0.1125E+02
 MRCHDU: Convergence failed at  72  side 2    Res =  0.1242E+02
 MRCHDU: Convergence failed at  73  side 2    Res =  0.1374E+02
 MRCHDU: Convergence failed at  74  side 2    Res =  0.1514E+02
 MRCHDU: Convergence failed at  75  side 2    Res =  0.1692E+02
 MRCHDU: Convergence failed at  76  side 2    Res =  0.1892E+02
 MRCHDU: Convergence failed at  77  side 2    Res =  0.2153E+02
 MRCHDU: Convergence failed at  78  side 2    Res =  0.2484E+02
 MRCHDU: Convergence failed at  79  side 2    Res =  0.2988E+02
 MRCHDU: Convergence failed at  80  side 2    Res =  0.2080E+02
 MRCHDU: Convergence failed at  81  side 2    Res =  0.2264E+02
 MRCHDU: Convergence failed at  82  side 2    Res =  0.2594E+02
 MRCHDU: Convergence failed at  83  side 2    Res =  0.9187E+03
 MRCHDU: Convergence failed at  84  side 2    Res =  0.1904E+03
 MRCHDU: Convergence failed at  85  side 2    Res =  0.2680E+02
 MRCHDU: Convergence failed at  86  side 2    Res =  0.2556E+02
 MRCHDU: Convergence failed at  87  side 2    Res =  0.4235E+02
 Side 1  free  transition at x/c =  0.9877   74
 Side 2  free  transition at x/c =  0.1529   36

   2   rms: 0.5565E+00   max: 0.3303E+01   D at   90  2   RLX: 0.377
       a = -4.000      CL = -0.8557
      Cm =  0.1455     CD =  0.00623   =>   CDf =  0.00381    CDp =  0.00242

 MRCHDU: Convergence failed at  90  side 2    Res =  0.6467E+01
 MRCHDU: Convergence failed at  91  side 2    Res =  0.3585E+01
 MRCHDU: Convergence failed at  92  side 2    Res =  0.1727E+01
 Side 1 forced transition at x/c =  1.0000   75
 Side 2  free  transition at x/c =  0.1615   36

   3   rms: 0.2415E+00   max: 0.7560E+00   D at   96  2   RLX: 0.687
       a = -4.000      CL = -0.5964
      Cm =  0.0382     CD =  0.01245   =>   CDf =  0.01016    CDp =  0.00229

 Side 1 forced transition at x/c =  1.0000   75
 Side 2  free  transition at x/c =  0.1823   38

   4   rms: 0.1131E+00   max: 0.3671E+00   D at   98  2
       a = -4.000      CL = -0.5451
      Cm =  0.0131     CD =  0.01622   =>   CDf =  0.00920    CDp =  0.00703

 Side 1  free  transition at x/c =  0.9849   74
 Side 2  free  transition at x/c =  0.1708   37

   5   rms: 0.5653E-01   max: -.3617E+00   D at   75  1
       a = -4.000      CL = -0.5202
      Cm =  0.0086     CD =  0.01612   =>   CDf =  0.00863    CDp =  0.00749

 Side 1  free  transition at x/c =  0.9961   75
 Side 2  free  transition at x/c =  0.1847   38

   6   rms: 0.1171E-01   max: -.1202E+00   C at   38  2
       a = -4.000      CL = -0.5217
      Cm =  0.0088     CD =  0.01625   =>   CDf =  0.00855    CDp =  0.00771

 Side 1  free  transition at x/c =  0.9950   75
 Side 2  free  transition at x/c =  0.1860   38

   7   rms: 0.1154E-02   max: 0.1499E-01   C at   38  2
       a = -4.000      CL = -0.5215
      Cm =  0.0088     CD =  0.01628   =>   CDf =  0.00846    CDp =  0.00781

 Side 1  free  transition at x/c =  0.9950   75
 Side 2  free  transition at x/c =  0.1856   38

   8   rms: 0.9273E-05   max: -.1126E-03   D at   39  2
       a = -4.000      CL = -0.5215
      Cm =  0.0088     CD =  0.01628   =>   CDf =  0.00847    CDp =  0.00780
 plradd ia,ip,cpol            1           0  8.23095441E-03

 Point added to stored polar  1
 Point written to save file  sc20012_Re150k.base.pol                         
 Dump file unspecified or not available
 Calculating wake trajectory ...
 Calculating source influence matrix ...

 Solving BL system ...

 Side 1  free  transition at x/c =  0.9950   75
 Side 2  free  transition at x/c =  0.1856   38

   1   rms: 0.1928E+00   max: -.1852E+01   C at   38  2   RLX: 0.270
       a = -3.500      CL = -0.5041
      Cm =  0.0077     CD =  0.01566   =>   CDf =  0.00847    CDp =  0.00719

 Side 1  free  transition at x/c =  0.9931   74
 Side 2  free  transition at x/c =  0.2084   39

   2   rms: 0.1308E+00   max: -.1326E+01   T at   39  2   RLX: 0.377
       a = -3.500      CL = -0.4846
      Cm =  0.0071     CD =  0.01555   =>   CDf =  0.00838    CDp =  0.00716

 Side 1  free  transition at x/c =  0.9903   74
 Side 2  free  transition at x/c =  0.2628   43

   3   rms: 0.1723E+00   max: -.2244E+01   C at   43  2   RLX: 0.223
       a = -3.500      CL = -0.4822
      Cm =  0.0070     CD =  0.01484   =>   CDf =  0.00811    CDp =  0.00673

 Side 1  free  transition at x/c =  0.9895   74
 Side 2  free  transition at x/c =  0.2777   44

   4   rms: 0.1678E+00   max: -.2158E+01   C at   44  2   RLX: 0.232
       a = -3.500      CL = -0.4779
      Cm =  0.0068     CD =  0.01469   =>   CDf =  0.00804    CDp =  0.00665

 Side 1  free  transition at x/c =  0.9888   74
 Side 2  free  transition at x/c =  0.2948   45

   5   rms: 0.1714E+00   max: -.2482E+01   C at   45  2   RLX: 0.201
       a = -3.500      CL = -0.4749
      Cm =  0.0067     CD =  0.01461   =>   CDf =  0.00793    CDp =  0.00668

 Side 1  free  transition at x/c =  0.9884   74
 Side 2  free  transition at x/c =  0.3094   45

   6   rms: 0.6657E-01   max: -.6551E+00   T at   45  2   RLX: 0.763
       a = -3.500      CL = -0.4620
      Cm =  0.0058     CD =  0.01441   =>   CDf =  0.00787    CDp =  0.00654

 Side 1  free  transition at x/c =  0.9869   75
 Side 2  free  transition at x/c =  0.4715   54

   7   rms: 0.6170E-01   max: 0.6489E+00   D at   44  2   RLX: 0.878
       a = -3.500      CL = -0.4675
      Cm =  0.0066     CD =  0.01326   =>   CDf =  0.00713    CDp =  0.00613

 Side 1  free  transition at x/c =  0.9867   75
 Side 2  free  transition at x/c =  0.6119   63

   8   rms: 0.4161E-01   max: 0.4434E+00   D at   54  2
       a = -3.500      CL = -0.4750
      Cm =  0.0094     CD =  0.01317   =>   CDf =  0.00594    CDp =  0.00723

 Side 1  free  transition at x/c =  0.9868   75
 Side 2  free  transition at x/c =  0.5771   61

   9   rms: 0.1862E-01   max: -.1909E+00   C at   61  2
       a = -3.500      CL = -0.4714
      Cm =  0.0080     CD =  0.01310   =>   CDf =  0.00612    CDp =  0.00698

 Side 1  free  transition at x/c =  0.9868   75
 Side 2  free  transition at x/c =  0.5898   62

  10   rms: 0.5971E-02   max: 0.8128E-01   C at   62  2
       a = -3.500      CL = -0.4715
      Cm =  0.0081     CD =  0.01313   =>   CDf =  0.00599    CDp =  0.00713

 Side 1  free  transition at x/c =  0.9868   75
 Side 2  free  transition at x/c =  0.5858   62

  11   rms: 0.3065E-03   max: -.4465E-02   C at   62  2
       a = -3.500      CL = -0.4715
      Cm =  0.0081     CD =  0.01313   =>   CDf =  0.00603    CDp =  0.00710

 Side 1  free  transition at x/c =  0.9868   75
 Side 2  free  transition at x/c =  0.5860   62

  12   rms: 0.2260E-05   max: 0.2375E-04   C at   62  2
       a = -3.500      CL = -0.4715
      Cm =  0.0081     CD =  0.01313   =>   CDf =  0.00603    CDp =  0.00710
 plradd ia,ip,cpol            2           0  8.23095441E-03

 Point added to stored polar  1
 Point written to save file  sc20012_Re150k.base.pol                         
 Dump file unspecified or not available
 Calculating wake trajectory ...
 Calculating source influence matrix ...

 Solving BL system ...

 Side 1  free  transition at x/c =  0.9868   75
 Side 2  free  transition at x/c =  0.5860   62

   1   rms: 0.4423E+00   max: -.6437E+01   C at   62  2   RLX: 0.078
       a = -3.000      CL = -0.4680
      Cm =  0.0085     CD =  0.01311   =>   CDf =  0.00602    CDp =  0.00709

 Side 1  free  transition at x/c =  0.9861   75
 Side 2  free  transition at x/c =  0.6119   63

   2   rms: 0.2051E+00   max: 0.1985E+01   C at   63  2   RLX: 0.734
       a = -3.000      CL = -0.4123
      Cm =  0.0034     CD =  0.01350   =>   CDf =  0.00597    CDp =  0.00753

 MRCHDU: Convergence failed at  67  side 2    Res =  0.2080E+01
 MRCHDU: Convergence failed at  68  side 2    Res =  0.2007E+01
 MRCHDU: Convergence failed at  69  side 2    Res =  0.2216E+01
 MRCHDU: Convergence failed at  70  side 2    Res =  0.6408E+01
 MRCHDU: Convergence failed at  71  side 2    Res =  0.3060E+02
 MRCHDU: Convergence failed at  72  side 2    Res =  0.8903E+01
 MRCHDU: Convergence failed at  73  side 2    Res =  0.8029E+01
 MRCHDU: Convergence failed at  74  side 2    Res =  0.1015E+02
 MRCHDU: Convergence failed at  75  side 2    Res =  0.1711E+02
 MRCHDU: Convergence failed at  76  side 2    Res =  0.7143E+02
 MRCHDU: Convergence failed at  77  side 2    Res =  0.3811E+02
 MRCHDU: Convergence failed at  78  side 2    Res =  0.1590E+02
 MRCHDU: Convergence failed at  79  side 2    Res =  0.1047E+02
 MRCHDU: Convergence failed at  80  side 2    Res =  0.8169E+01
 MRCHDU: Convergence failed at  81  side 2    Res =  0.6933E+01
 MRCHDU: Convergence failed at  82  side 2    Res =  0.6130E+01
 MRCHDU: Convergence failed at  83  side 2    Res =  0.5575E+01
 MRCHDU: Convergence failed at  84  side 2    Res =  0.5176E+01
 MRCHDU: Convergence failed at  85  side 2    Res =  0.4876E+01
 MRCHDU: Convergence failed at  86  side 2    Res =  0.4437E+01
 Side 1  free  transition at x/c =  0.9794   74
 Side 2 forced transition at x/c =  1.0000   86

   3   rms: 0.2231E+00   max: 0.9675E+00   D at   63  2
       a = -3.000      CL = -0.3586
      Cm =  0.0010     CD =  0.01095   =>   CDf =  0.00598    CDp =  0.00497

 MRCHDU: Convergence failed at  62  side 2    Res =  0.2085E+01
 MRCHDU: Convergence failed at  74  side 2    Res =  0.3385E+01
 MRCHDU: Convergence failed at  75  side 2    Res =  0.2168E+01
 MRCHDU: Convergence failed at  76  side 2    Res =  0.2052E+01
 MRCHDU: Convergence failed at  77  side 2    Res =  0.1885E+01
 MRCHDU: Convergence failed at  78  side 2    Res =  0.2003E+01
 MRCHDU: Convergence failed at  79  side 2    Res =  0.2151E+01
 MRCHDU: Convergence failed at  80  side 2    Res =  0.2261E+01
 MRCHDU: Convergence failed at  81  side 2    Res =  0.2452E+01
 MRCHDU: Convergence failed at  82  side 2    Res =  0.2676E+01
 MRCHDU: Convergence failed at  83  side 2    Res =  0.2927E+01
 MRCHDU: Convergence failed at  84  side 2    Res =  0.3158E+01
 MRCHDU: Convergence failed at  85  side 2    Res =  0.3518E+01
 MRCHDU: Convergence failed at  90  side 2    Res =  0.1264E+01
 MRCHDU: Convergence failed at  91  side 2    Res =  0.3276E+01
 MRCHDU: Convergence failed at  92  side 2    Res =  0.5147E+01
 Side 1 forced transition at x/c =  1.0000   77
 Side 2  free  transition at x/c =  0.8382   75
 idif Ue xi dudx           1  0.20027195      3.10933590E-03   64.409882    
 Uenew xinew           2  5.44234812E-02  8.44955444E-04

   4   rms: 0.2149E+00   max: 0.9555E+00   T at   77  2
       a = -3.000      CL = -0.4363
      Cm =  0.0130     CD =  0.01262   =>   CDf =  0.00541    CDp =  0.00720

 Side 1  free  transition at x/c =  0.9669   73
 Side 2  free  transition at x/c =  0.7135   70

   5   rms: 0.1229E+00   max: 0.7866E+00   D at   75  2   RLX: 0.829
       a = -3.000      CL = -0.3980
      Cm =  0.0060     CD =  0.01463   =>   CDf =  0.00597    CDp =  0.00866

 Side 1  free  transition at x/c =  0.9833   75
 Side 2  free  transition at x/c =  0.7348   71

   6   rms: 0.2462E-01   max: -.2093E+00   D at   95  2
       a = -3.000      CL = -0.4017
      Cm =  0.0063     CD =  0.01357   =>   CDf =  0.00586    CDp =  0.00771

 Side 1  free  transition at x/c =  0.9801   74
 Side 2  free  transition at x/c =  0.7383   71

   7   rms: 0.1177E-01   max: 0.7722E-01   T at   74  1
       a = -3.000      CL = -0.4097
      Cm =  0.0079     CD =  0.01356   =>   CDf =  0.00580    CDp =  0.00777

 Side 1  free  transition at x/c =  0.9768   74
 Side 2  free  transition at x/c =  0.7347   71

   8   rms: 0.2272E-02   max: -.1502E-01   D at   76  1
       a = -3.000      CL = -0.4085
      Cm =  0.0076     CD =  0.01356   =>   CDf =  0.00581    CDp =  0.00775

 Side 1  free  transition at x/c =  0.9773   74
 Side 2  free  transition at x/c =  0.7353   71

   9   rms: 0.3033E-04   max: -.2180E-03   D at   75  1
       a = -3.000      CL = -0.4084
      Cm =  0.0076     CD =  0.01356   =>   CDf =  0.00580    CDp =  0.00776
 plradd ia,ip,cpol            3           0  1.58499256E-02

 Point added to stored polar  1
 Point written to save file  sc20012_Re150k.base.pol                         
 Dump file unspecified or not available
 Calculating wake trajectory ...
 Calculating source influence matrix ...

 Solving BL system ...

 Side 1  free  transition at x/c =  0.9773   74
 Side 2  free  transition at x/c =  0.7353   71

   1   rms: 0.1159E+00   max: -.6392E+00   T at   71  2   RLX: 0.782
       a = -2.500      CL = -0.3630
      Cm =  0.0087     CD =  0.01398   =>   CDf =  0.00580    CDp =  0.00818

 Side 1  free  transition at x/c =  0.9698   75
 Side 2  free  transition at x/c =  0.7653   71

   2   rms: 0.4971E-01   max: -.4461E+00   T at   71  2
       a = -2.500      CL = -0.3401
      Cm =  0.0051     CD =  0.01414   =>   CDf =  0.00591    CDp =  0.00823

 MRCHDU: Convergence failed at  73  side 2    Res =  0.2506E+01
 MRCHDU: Convergence failed at  74  side 2    Res =  0.4573E+02
 MRCHDU: Convergence failed at  75  side 2    Res =  0.5338E+01
 MRCHDU: Convergence failed at  76  side 2    Res =  0.3662E+01
 MRCHDU: Convergence failed at  77  side 2    Res =  0.4717E+01
 MRCHDU: Convergence failed at  78  side 2    Res =  0.6827E+01
 MRCHDU: Convergence failed at  79  side 2    Res =  0.9391E+01
 MRCHDU: Convergence failed at  80  side 2    Res =  0.1201E+02
 MRCHDU: Convergence failed at  81  side 2    Res =  0.1407E+02
 MRCHDU: Convergence failed at  82  side 2    Res =  0.1475E+02
 MRCHDU: Convergence failed at  83  side 2    Res =  0.1457E+02
 MRCHDU: Convergence failed at  84  side 2    Res =  0.1382E+02
 MRCHDU: Convergence failed at  85  side 2    Res =  0.1276E+02
 Side 1  free  transition at x/c =  0.9690   75
 Side 2  free  transition at x/c =  0.8004   73

   3   rms: 0.2015E+00   max: 0.1006E+01   T at   85  2
       a = -2.500      CL = -0.3323
      Cm =  0.0067     CD =  0.01332   =>   CDf =  0.00540    CDp =  0.00792

 Side 1  free  transition at x/c =  0.9754   75
 Side 2  free  transition at x/c =  0.7794   72

   4   rms: 0.5468E-01   max: -.4811E+00   D at   75  2
       a = -2.500      CL = -0.3449
      Cm =  0.0069     CD =  0.01397   =>   CDf =  0.00583    CDp =  0.00814

 Side 1  free  transition at x/c =  0.9688   75
 Side 2  free  transition at x/c =  0.7916   73

   5   rms: 0.1112E-01   max: 0.1166E+00   D at   74  2
       a = -2.500      CL = -0.3426
      Cm =  0.0066     CD =  0.01405   =>   CDf =  0.00582    CDp =  0.00824

 Side 1  free  transition at x/c =  0.9694   75
 Side 2  free  transition at x/c =  0.7891   73

   6   rms: 0.5337E-03   max: 0.5234E-02   D at   74  2
       a = -2.500      CL = -0.3425
      Cm =  0.0066     CD =  0.01407   =>   CDf =  0.00582    CDp =  0.00825

 Side 1  free  transition at x/c =  0.9694   75
 Side 2  free  transition at x/c =  0.7889   73

   7   rms: 0.4180E-05   max: -.3896E-04   D at   76  2
       a = -2.500      CL = -0.3425
      Cm =  0.0066     CD =  0.01407   =>   CDf =  0.00582    CDp =  0.00825
 plradd ia,ip,cpol            4           0  1.89852659E-02

 Point added to stored polar  1
 Point written to save file  sc20012_Re150k.base.pol                         
 Dump file unspecified or not available
 Calculating wake trajectory ...
 Calculating source influence matrix ...

 Solving BL system ...

 Side 1  free  transition at x/c =  0.9694   75
 Side 2  free  transition at x/c =  0.7889   73

   1   rms: 0.1170E+00   max: -.6536E+00   T at   73  2   RLX: 0.765
       a = -2.000      CL = -0.2889
      Cm =  0.0064     CD =  0.01447   =>   CDf =  0.00582    CDp =  0.00865

 Side 1  free  transition at x/c =  0.9656   75
 Side 2  free  transition at x/c =  0.8104   73

   2   rms: 0.6548E-01   max: -.4455E+00   T at   74  2
       a = -2.000      CL = -0.3001
      Cm =  0.0103     CD =  0.01409   =>   CDf =  0.00589    CDp =  0.00820

 Side 1  free  transition at x/c =  0.9553   75
 Side 2  free  transition at x/c =  0.8250   73

   3   rms: 0.4440E-01   max: -.2940E+00   D at   75  2
       a = -2.000      CL = -0.2863
      Cm =  0.0073     CD =  0.01457   =>   CDf =  0.00583    CDp =  0.00875

 Side 1  free  transition at x/c =  0.9585   75
 Side 2  free  transition at x/c =  0.8316   74

   4   rms: 0.1716E-01   max: 0.2179E+00   D at   75  2
       a = -2.000      CL = -0.2865
      Cm =  0.0078     CD =  0.01452   =>   CDf =  0.00581    CDp =  0.00872

 Side 1  free  transition at x/c =  0.9589   75
 Side 2  free  transition at x/c =  0.8280   74

   5   rms: 0.1848E-02   max: 0.2320E-01   D at   75  2
       a = -2.000      CL = -0.2864
      Cm =  0.0078     CD =  0.01457   =>   CDf =  0.00582    CDp =  0.00876

 Side 1  free  transition at x/c =  0.9590   75
 Side 2  free  transition at x/c =  0.8275   74

   6   rms: 0.3167E-04   max: -.3284E-03   D at   78  2
       a = -2.000      CL = -0.2864
      Cm =  0.0078     CD =  0.01457   =>   CDf =  0.00582    CDp =  0.00875
 plradd ia,ip,cpol            5           0  2.24735960E-02

 Point added to stored polar  1
 Point written to save file  sc20012_Re150k.base.pol                         
 Dump file unspecified or not available
 Calculating wake trajectory ...
 Calculating source influence matrix ...

 Solving BL system ...

 Side 1  free  transition at x/c =  0.9590   75
 Side 2  free  transition at x/c =  0.8275   74

   1   rms: 0.1087E+00   max: -.6243E+00   T at   74  2   RLX: 0.801
       a = -1.500      CL = -0.2389
      Cm =  0.0096     CD =  0.01506   =>   CDf =  0.00582    CDp =  0.00925

 Side 1  free  transition at x/c =  0.9540   75
 Side 2  free  transition at x/c =  0.8465   75

   2   rms: 0.6868E-01   max: -.5133E+00   T at   75  2   RLX: 0.974
       a = -1.500      CL = -0.2264
      Cm =  0.0087     CD =  0.01474   =>   CDf =  0.00583    CDp =  0.00891

 Side 1  free  transition at x/c =  0.9532   74
 Side 2  free  transition at x/c =  0.8603   75

   3   rms: 0.4988E-01   max: -.3582E+00   D at   77  2
       a = -1.500      CL = -0.2276
      Cm =  0.0082     CD =  0.01502   =>   CDf =  0.00580    CDp =  0.00922

 Side 1  free  transition at x/c =  0.9518   74
 Side 2  free  transition at x/c =  0.8653   76

   4   rms: 0.1106E-01   max: 0.1414E+00   D at   77  2
       a = -1.500      CL = -0.2244
      Cm =  0.0080     CD =  0.01515   =>   CDf =  0.00583    CDp =  0.00932

 Side 1  free  transition at x/c =  0.9526   74
 Side 2  free  transition at x/c =  0.8631   75

   5   rms: 0.1755E-02   max: 0.2017E-01   D at   77  2
       a = -1.500      CL = -0.2236
      Cm =  0.0080     CD =  0.01517   =>   CDf =  0.00583    CDp =  0.00934

 Side 1  free  transition at x/c =  0.9528   74
 Side 2  free  transition at x/c =  0.8628   75

   6   rms: 0.3683E-04   max: -.2057E-03   T at   74  1
       a = -1.500      CL = -0.2235
      Cm =  0.0080     CD =  0.01517   =>   CDf =  0.00583    CDp =  0.00934
 plradd ia,ip,cpol            6           0  2.63715927E-02

 Point added to stored polar  1
 Point written to save file  sc20012_Re150k.base.pol                         
 Dump file unspecified or not available
 Calculating wake trajectory ...
 Calculating source influence matrix ...

 Solving BL system ...

 Side 1  free  transition at x/c =  0.9528   74
 Side 2  free  transition at x/c =  0.8628   75

   1   rms: 0.7889E-01   max: -.6229E+00   T at   75  2   RLX: 0.803
       a = -1.000      CL = -0.2238
      Cm =  0.0155     CD =  0.01519   =>   CDf =  0.00583    CDp =  0.00936

 MRCHDU: Convergence failed at  77  side 2    Res =  0.2841E+02
 MRCHDU: Convergence failed at  78  side 2    Res =  0.6018E+01
 MRCHDU: Convergence failed at  79  side 2    Res =  0.8578E+01
 MRCHDU: Convergence failed at  80  side 2    Res =  0.2387E+02
 MRCHDU: Convergence failed at  81  side 2    Res =  0.4856E+02
 MRCHDU: Convergence failed at  82  side 2    Res =  0.5521E+02
 MRCHDU: Convergence failed at  83  side 2    Res =  0.2619E+02
 Side 1  free  transition at x/c =  0.9337   74
 Side 2  free  transition at x/c =  0.8972   76

   2   rms: 0.3567E+00   max: -.1514E+01   T at   74  1   RLX: 0.330
       a = -1.000      CL = -0.1193
      Cm =  0.0078     CD =  0.01388   =>   CDf =  0.00578    CDp =  0.00811

 Side 1  free  transition at x/c =  0.9614   77
 Side 2  free  transition at x/c =  0.8917   75
 idif Ue xi dudx           1  0.14573285      2.12192535E-03   68.679535    
 Uenew xinew           2  5.51001169E-03  8.02278519E-05

   3   rms: 0.7658E-01   max: -.6659E+00   D at   82  2   RLX: 0.751
       a = -1.000      CL = -0.1252
      Cm =  0.0024     CD =  0.01660   =>   CDf =  0.00582    CDp =  0.01078

 Side 1  free  transition at x/c =  0.9542   76
 Side 2  free  transition at x/c =  0.8898   76

   4   rms: 0.7771E-01   max: -.6120E+00   D at   83  2   RLX: 0.817
       a = -1.000      CL = -0.1703
      Cm =  0.0103     CD =  0.01576   =>   CDf =  0.00581    CDp =  0.00995

 Side 1  free  transition at x/c =  0.9466   75
 Side 2  free  transition at x/c =  0.8947   76

   5   rms: 0.4462E-01   max: -.3003E+00   D at   83  2
       a = -1.000      CL = -0.1800
      Cm =  0.0121     CD =  0.01562   =>   CDf =  0.00583    CDp =  0.00980

 Side 1  free  transition at x/c =  0.9409   75
 Side 2  free  transition at x/c =  0.8919   76

   6   rms: 0.1271E-01   max: 0.6305E-01   D at   80  2
       a = -1.000      CL = -0.1668
      Cm =  0.0096     CD =  0.01578   =>   CDf =  0.00582    CDp =  0.00995

 Side 1  free  transition at x/c =  0.9427   75
 Side 2  free  transition at x/c =  0.8911   76

   7   rms: 0.4409E-03   max: -.3187E-02   D at   79  1
       a = -1.000      CL = -0.1666
      Cm =  0.0095     CD =  0.01579   =>   CDf =  0.00582    CDp =  0.00997

 Side 1  free  transition at x/c =  0.9427   75
 Side 2  free  transition at x/c =  0.8911   76

   8   rms: 0.4586E-05   max: 0.2790E-04   D at   79  2
       a = -1.000      CL = -0.1666
      Cm =  0.0095     CD =  0.01579   =>   CDf =  0.00582    CDp =  0.00997
 plradd ia,ip,cpol            7           0  2.63715927E-02

 Point added to stored polar  1
 Point written to save file  sc20012_Re150k.base.pol                         
 Dump file unspecified or not available
 Calculating wake trajectory ...
 Calculating source influence matrix ...

 Solving BL system ...

 Side 1  free  transition at x/c =  0.9427   75
 Side 2  free  transition at x/c =  0.8911   76

   1   rms: 0.1033E+00   max: -.5131E+00   T at   76  2   RLX: 0.975
       a = -0.500      CL = -0.0933
      Cm =  0.0077     CD =  0.01640   =>   CDf =  0.00584    CDp =  0.01057

 Side 1  free  transition at x/c =  0.9371   76
 Side 2  free  transition at x/c =  0.9107   76

   2   rms: 0.2035E-01   max: -.1854E+00   D at   76  2
       a = -0.500      CL = -0.0843
      Cm =  0.0054     CD =  0.01633   =>   CDf =  0.00584    CDp =  0.01048

 Side 1  free  transition at x/c =  0.9377   76
 Side 2  free  transition at x/c =  0.9156   76

   3   rms: 0.2636E-02   max: 0.1912E-01   D at   79  2
       a = -0.500      CL = -0.0826
      Cm =  0.0052     CD =  0.01631   =>   CDf =  0.00586    CDp =  0.01045

 Side 1  free  transition at x/c =  0.9379   76
 Side 2  free  transition at x/c =  0.9151   76

   4   rms: 0.6961E-04   max: -.5417E-03   D at   78  2
       a = -0.500      CL = -0.0826
      Cm =  0.0052     CD =  0.01631   =>   CDf =  0.00585    CDp =  0.01046
 plradd ia,ip,cpol            8           0  3.07529401E-02

 Point added to stored polar  1
 Point written to save file  sc20012_Re150k.base.pol                         
 Dump file unspecified or not available
 Calculating wake trajectory ...
 Calculating source influence matrix ...

 Solving BL system ...

 Side 1  free  transition at x/c =  0.9379   76
 Side 2  free  transition at x/c =  0.9151   76

   1   rms: 0.9491E-01   max: -.4567E+00   T at   76  2
       a =  0.000      CL = -0.0077
      Cm =  0.0014     CD =  0.01641   =>   CDf =  0.00587    CDp =  0.01054

 Side 1  free  transition at x/c =  0.9313   76
 Side 2  free  transition at x/c =  0.9343   76

   2   rms: 0.4520E-01   max: 0.3040E+00   D at   78  2
       a =  0.000      CL = -0.0045
      Cm =  0.0008     CD =  0.01650   =>   CDf =  0.00589    CDp =  0.01061

 Side 1  free  transition at x/c =  0.9284   76
 Side 2  free  transition at x/c =  0.9304   76

   3   rms: 0.5926E-02   max: 0.5401E-01   D at   78  2
       a =  0.000      CL =  0.0001
      Cm = -0.0000     CD =  0.01659   =>   CDf =  0.00586    CDp =  0.01073

 Side 1  free  transition at x/c =  0.9291   76
 Side 2  free  transition at x/c =  0.9290   76

   4   rms: 0.3514E-03   max: -.2571E-02   D at   78  2
       a =  0.000      CL = -0.0001
      Cm =  0.0000     CD =  0.01660   =>   CDf =  0.00586    CDp =  0.01074

 Side 1  free  transition at x/c =  0.9290   76
 Side 2  free  transition at x/c =  0.9290   76

   5   rms: 0.3481E-05   max: 0.2859E-04   D at   86  2
       a =  0.000      CL = -0.0001
      Cm =  0.0000     CD =  0.01660   =>   CDf =  0.00586    CDp =  0.01074
 plradd ia,ip,cpol            9           0  3.57063673E-02

 Point added to stored polar  1
 Point written to save file  sc20012_Re150k.base.pol                         
 Dump file unspecified or not available
 Calculating wake trajectory ...
 Calculating source influence matrix ...

 Solving BL system ...

 Side 1  free  transition at x/c =  0.9290   76
 Side 2  free  transition at x/c =  0.9290   76

   1   rms: 0.9671E-01   max: -.2379E+00   T at   76  2
       a =  0.500      CL =  0.0826
      Cm = -0.0054     CD =  0.01658   =>   CDf =  0.00587    CDp =  0.01072

 Side 1  free  transition at x/c =  0.9118   76
 Side 2  free  transition at x/c =  0.9362   75

   2   rms: 0.3139E+00   max: 0.1781E+01   T at   75  2   RLX: 0.415
       a =  0.500      CL =  0.2191
      Cm = -0.0302     CD =  0.01697   =>   CDf =  0.00584    CDp =  0.01113

 Side 1  free  transition at x/c =  0.9244   78
 Side 2  free  transition at x/c =  0.9133   73
 idif Ue xi dudx           1  0.20344126      3.02147865E-03   67.331688    
 Uenew xinew           2  6.24627098E-02  9.27686691E-04

   3   rms: 0.1620E+00   max: -.7029E+00   T at   73  2   RLX: 0.711
       a =  0.500      CL =  0.1071
      Cm = -0.0109     CD =  0.01769   =>   CDf =  0.00581    CDp =  0.01188

 Side 1  free  transition at x/c =  0.9183   76
 Side 2  free  transition at x/c =  0.9381   76

   4   rms: 0.2345E-01   max: 0.2231E+00   D at   76  2
       a =  0.500      CL =  0.0806
      Cm = -0.0048     CD =  0.01639   =>   CDf =  0.00586    CDp =  0.01053

 Side 1  free  transition at x/c =  0.9145   76
 Side 2  free  transition at x/c =  0.9381   76

   5   rms: 0.3377E-02   max: -.2615E-01   D at   79  1
       a =  0.500      CL =  0.0825
      Cm = -0.0052     CD =  0.01631   =>   CDf =  0.00585    CDp =  0.01046

 Side 1  free  transition at x/c =  0.9151   76
 Side 2  free  transition at x/c =  0.9379   76

   6   rms: 0.7628E-04   max: -.4821E-03   D at   78  1
       a =  0.500      CL =  0.0826
      Cm = -0.0052     CD =  0.01631   =>   CDf =  0.00585    CDp =  0.01046
 plradd ia,ip,cpol           10           0  3.07529978E-02

 Point added to stored polar  1
 Point written to save file  sc20012_Re150k.base.pol                         
 Dump file unspecified or not available
 Calculating wake trajectory ...
 Calculating source influence matrix ...

 Solving BL system ...

 Side 1  free  transition at x/c =  0.9151   76
 Side 2  free  transition at x/c =  0.9379   76

   1   rms: 0.9480E-01   max: -.1784E+00   T at   76  2
       a =  1.000      CL =  0.1574
      Cm = -0.0089     CD =  0.01622   =>   CDf =  0.00586    CDp =  0.01036

 Side 1  free  transition at x/c =  0.8828   76
 Side 2  free  transition at x/c =  0.9438   75

   2   rms: 0.5360E-01   max: -.3860E+00   D at   76  1
       a =  1.000      CL =  0.1655
      Cm = -0.0091     CD =  0.01573   =>   CDf =  0.00579    CDp =  0.00994

 Side 1  free  transition at x/c =  0.8925   76
 Side 2  free  transition at x/c =  0.9429   75

   3   rms: 0.4890E-02   max: 0.5168E-01   D at   79  1
       a =  1.000      CL =  0.1665
      Cm = -0.0095     CD =  0.01579   =>   CDf =  0.00583    CDp =  0.00997

 Side 1  free  transition at x/c =  0.8910   76
 Side 2  free  transition at x/c =  0.9428   75

   4   rms: 0.2729E-03   max: -.2433E-02   D at   77  1
       a =  1.000      CL =  0.1666
      Cm = -0.0095     CD =  0.01579   =>   CDf =  0.00582    CDp =  0.00997

 Side 1  free  transition at x/c =  0.8911   76
 Side 2  free  transition at x/c =  0.9428   75

   5   rms: 0.2777E-05   max: 0.1431E-04   D at   79  2
       a =  1.000      CL =  0.1666
      Cm = -0.0095     CD =  0.01579   =>   CDf =  0.00582    CDp =  0.00997
 plradd ia,ip,cpol           11           0  2.63716467E-02

 Point added to stored polar  1
 Point written to save file  sc20012_Re150k.base.pol                         
 Dump file unspecified or not available
 Calculating wake trajectory ...
 Calculating source influence matrix ...

 Solving BL system ...

 Side 1  free  transition at x/c =  0.8911   76
 Side 2  free  transition at x/c =  0.9428   75

   1   rms: 0.1033E+00   max: 0.5127E+00   T at   76  1
       a =  1.500      CL =  0.2419
      Cm = -0.0115     CD =  0.01508   =>   CDf =  0.00582    CDp =  0.00926

 Side 1  free  transition at x/c =  0.8597   75
 Side 2  free  transition at x/c =  0.9490   74

   2   rms: 0.2707E-01   max: -.3029E+00   D at   76  1
       a =  1.500      CL =  0.2263
      Cm = -0.0085     CD =  0.01523   =>   CDf =  0.00578    CDp =  0.00946

 Side 1  free  transition at x/c =  0.8623   75
 Side 2  free  transition at x/c =  0.9520   74

   3   rms: 0.2884E-02   max: -.1797E-01   D at   78  2
       a =  1.500      CL =  0.2237
      Cm = -0.0080     CD =  0.01517   =>   CDf =  0.00582    CDp =  0.00935

 Side 1  free  transition at x/c =  0.8627   75
 Side 2  free  transition at x/c =  0.9528   74

   4   rms: 0.3145E-03   max: -.1902E-02   D at   78  2
       a =  1.500      CL =  0.2235
      Cm = -0.0079     CD =  0.01517   =>   CDf =  0.00583    CDp =  0.00934

 Side 1  free  transition at x/c =  0.8627   75
 Side 2  free  transition at x/c =  0.9528   74

   5   rms: 0.6117E-05   max: 0.3883E-04   D at    4  1
       a =  1.500      CL =  0.2234
      Cm = -0.0079     CD =  0.01517   =>   CDf =  0.00583    CDp =  0.00934
 plradd ia,ip,cpol           12           0  2.63716467E-02

 Point added to stored polar  1
 Point written to save file  sc20012_Re150k.base.pol                         
 Dump file unspecified or not available
 Calculating wake trajectory ...
 Calculating source influence matrix ...

 Solving BL system ...

 Side 1  free  transition at x/c =  0.8627   75
 Side 2  free  transition at x/c =  0.9528   74

   1   rms: 0.7910E-01   max: 0.6265E+00   T at   75  1   RLX: 0.892
       a =  2.000      CL =  0.2230
      Cm =  0.0005     CD =  0.01528   =>   CDf =  0.00583    CDp =  0.00945

 MRCHDU: Convergence failed at  78  side 2    Res =  0.7269E+01
 Side 1  free  transition at x/c =  0.8282   74
 Side 2  free  transition at x/c =  0.9818   76

   2   rms: 0.1085E+00   max: 0.9998E+00   D at   77  2   RLX: 0.930
       a =  2.000      CL =  0.2833
      Cm = -0.0069     CD =  0.01380   =>   CDf =  0.00582    CDp =  0.00798

 Side 1  free  transition at x/c =  0.8292   74
 Side 2  free  transition at x/c =  0.9589   75

   3   rms: 0.1144E-01   max: -.1998E+00   D at   75  2
       a =  2.000      CL =  0.2857
      Cm = -0.0077     CD =  0.01458   =>   CDf =  0.00581    CDp =  0.00878

 Side 1  free  transition at x/c =  0.8275   74
 Side 2  free  transition at x/c =  0.9592   75

   4   rms: 0.1213E-02   max: -.1593E-01   D at   77  1
       a =  2.000      CL =  0.2863
      Cm = -0.0078     CD =  0.01457   =>   CDf =  0.00582    CDp =  0.00875

 Side 1  free  transition at x/c =  0.8275   74
 Side 2  free  transition at x/c =  0.9590   75

   5   rms: 0.8726E-05   max: -.1842E-03   D at   77  1
       a =  2.000      CL =  0.2863
      Cm = -0.0078     CD =  0.01457   =>   CDf =  0.00582    CDp =  0.00875
 plradd ia,ip,cpol           13           0  2.24735960E-02

 Point added to stored polar  1
 Point written to save file  sc20012_Re150k.base.pol                         
 Dump file unspecified or not available
 Calculating wake trajectory ...
 Calculating source influence matrix ...

 Solving BL system ...

 Side 1  free  transition at x/c =  0.8275   74
 Side 2  free  transition at x/c =  0.9590   75

   1   rms: 0.1086E+00   max: 0.6214E+00   T at   74  1
       a =  2.500      CL =  0.3461
      Cm = -0.0059     CD =  0.01379   =>   CDf =  0.00583    CDp =  0.00795

 MRCHDU: Convergence failed at  75  side 1    Res =  0.1858E+01
 MRCHDU: Convergence failed at  76  side 1    Res =  0.6485E+01
 MRCHDU: Convergence failed at  77  side 1    Res =  0.3095E+01
 MRCHDU: Convergence failed at  78  side 1    Res =  0.2656E+01
 MRCHDU: Convergence failed at  79  side 1    Res =  0.2465E+01
 MRCHDU: Convergence failed at  80  side 1    Res =  0.2805E+01
 MRCHDU: Convergence failed at  81  side 1    Res =  0.3179E+01
 MRCHDU: Convergence failed at  82  side 1    Res =  0.3759E+01
 MRCHDU: Convergence failed at  83  side 1    Res =  0.4845E+01
 MRCHDU: Convergence failed at  84  side 1    Res =  0.6255E+01
 MRCHDU: Convergence failed at  85  side 1    Res =  0.8760E+01
 Side 1  free  transition at x/c =  0.7966   73
 Side 2  free  transition at x/c =  0.9675   74
 idif Ue xi dudx           1  0.14825279      2.30729580E-03   64.253914    
 Uenew xinew           2  2.74981908E-03  4.27961349E-05

   2   rms: 0.1622E+00   max: -.6757E+00   T at   74  2   RLX: 0.740
       a =  2.500      CL =  0.2743
      Cm =  0.0005     CD =  0.01349   =>   CDf =  0.00546    CDp =  0.00803

 Side 1  free  transition at x/c =  0.7968   72
 Side 2  free  transition at x/c =  0.9964   78

   3   rms: 0.1213E+00   max: 0.1567E+01   C at   78  2   RLX: 0.957
       a =  2.500      CL =  0.3175
      Cm = -0.0019     CD =  0.01372   =>   CDf =  0.00595    CDp =  0.00777

 Side 1  free  transition at x/c =  0.7974   73
 Side 2  free  transition at x/c =  0.9819   75

   4   rms: 0.5290E-01   max: 0.3941E+00   T at   75  2
       a =  2.500      CL =  0.3561
      Cm = -0.0091     CD =  0.01376   =>   CDf =  0.00581    CDp =  0.00795

 Side 1  free  transition at x/c =  0.7855   72
 Side 2  free  transition at x/c =  0.9644   74

   5   rms: 0.2495E-01   max: -.1794E+00   D at   77  2
       a =  2.500      CL =  0.3409
      Cm = -0.0062     CD =  0.01407   =>   CDf =  0.00581    CDp =  0.00826

 Side 1  free  transition at x/c =  0.7899   73
 Side 2  free  transition at x/c =  0.9699   75

   6   rms: 0.4403E-02   max: 0.2938E-01   D at   77  2
       a =  2.500      CL =  0.3425
      Cm = -0.0066     CD =  0.01407   =>   CDf =  0.00583    CDp =  0.00824

 Side 1  free  transition at x/c =  0.7890   73
 Side 2  free  transition at x/c =  0.9694   75

   7   rms: 0.1307E-03   max: 0.1493E-02   D at   74  1
       a =  2.500      CL =  0.3425
      Cm = -0.0066     CD =  0.01407   =>   CDf =  0.00582    CDp =  0.00825

 Side 1  free  transition at x/c =  0.7890   73
 Side 2  free  transition at x/c =  0.9694   75

   8   rms: 0.1331E-05   max: -.5874E-05   D at   76  1
       a =  2.500      CL =  0.3425
      Cm = -0.0066     CD =  0.01407   =>   CDf =  0.00582    CDp =  0.00824
 plradd ia,ip,cpol           14           0  1.89853180E-02

 Point added to stored polar  1
 Point written to save file  sc20012_Re150k.base.pol                         
 Dump file unspecified or not available
 Calculating wake trajectory ...
 Calculating source influence matrix ...

 Solving BL system ...

 Side 1  free  transition at x/c =  0.7890   73
 Side 2  free  transition at x/c =  0.9694   75

   1   rms: 0.1171E+00   max: 0.6522E+00   T at   73  1   RLX: 0.916
       a =  3.000      CL =  0.4074
      Cm = -0.0073     CD =  0.01347   =>   CDf =  0.00584    CDp =  0.00763

 MRCHDU: Convergence failed at  74  side 1    Res =  0.2443E+01
 MRCHDU: Convergence failed at  75  side 1    Res =  0.2991E+01
 MRCHDU: Convergence failed at  76  side 1    Res =  0.1905E+01
 MRCHDU: Convergence failed at  77  side 1    Res =  0.2096E+01
 MRCHDU: Convergence failed at  78  side 1    Res =  0.1847E+01
 MRCHDU: Convergence failed at  79  side 1    Res =  0.1829E+01
 MRCHDU: Convergence failed at  80  side 1    Res =  0.2052E+01
 MRCHDU: Convergence failed at  81  side 1    Res =  0.2348E+01
 MRCHDU: Convergence failed at  82  side 1    Res =  0.2974E+01
 MRCHDU: Convergence failed at  83  side 1    Res =  0.3573E+01
 MRCHDU: Convergence failed at  84  side 1    Res =  0.4428E+01
 MRCHDU: Convergence failed at  85  side 1    Res =  0.5678E+01
 MRCHDU: Convergence failed at  86  side 1    Res =  0.7859E+01
 Side 1  free  transition at x/c =  0.7448   71
 Side 2  free  transition at x/c =  0.9737   74
 idif Ue xi dudx           1  0.16149218      2.60174274E-03   62.070774    
 Uenew xinew           2  1.51096014E-02  2.43425369E-04

   2   rms: 0.1173E+00   max: 0.6108E+00   D at   82  2
       a =  3.000      CL =  0.3581
      Cm =  0.0004     CD =  0.01376   =>   CDf =  0.00526    CDp =  0.00850

 Side 1  free  transition at x/c =  0.7470   70
 Side 2  free  transition at x/c =  0.9942   77

   3   rms: 0.5596E-01   max: -.3200E+00   D at   85  2
       a =  3.000      CL =  0.3976
      Cm = -0.0057     CD =  0.01333   =>   CDf =  0.00592    CDp =  0.00741

 Side 1  free  transition at x/c =  0.7394   71
 Side 2  free  transition at x/c =  0.9835   75

   4   rms: 0.1664E-01   max: 0.1511E+00   T at   75  2
       a =  3.000      CL =  0.4043
      Cm = -0.0068     CD =  0.01357   =>   CDf =  0.00581    CDp =  0.00776

 Side 1  free  transition at x/c =  0.7366   71
 Side 2  free  transition at x/c =  0.9785   74

   5   rms: 0.6488E-02   max: -.6260E-01   D at   74  2
       a =  3.000      CL =  0.4087
      Cm = -0.0077     CD =  0.01355   =>   CDf =  0.00580    CDp =  0.00775

 Side 1  free  transition at x/c =  0.7353   71
 Side 2  free  transition at x/c =  0.9772   74

   6   rms: 0.5709E-03   max: -.3875E-02   D at   76  2
       a =  3.000      CL =  0.4084
      Cm = -0.0076     CD =  0.01356   =>   CDf =  0.00581    CDp =  0.00776

 Side 1  free  transition at x/c =  0.7354   71
 Side 2  free  transition at x/c =  0.9773   74

   7   rms: 0.4262E-05   max: -.3610E-04   T at   74  2
       a =  3.000      CL =  0.4084
      Cm = -0.0076     CD =  0.01356   =>   CDf =  0.00580    CDp =  0.00776
 plradd ia,ip,cpol           15           0  1.58499777E-02

 Point added to stored polar  1
 Point written to save file  sc20012_Re150k.base.pol                         
 Dump file unspecified or not available
 Calculating wake trajectory ...
 Calculating source influence matrix ...

 Solving BL system ...

 Side 1  free  transition at x/c =  0.7354   71
 Side 2  free  transition at x/c =  0.9773   74

   1   rms: 0.1154E+00   max: 0.6383E+00   T at   71  1   RLX: 0.856
       a =  3.500      CL =  0.4585
      Cm = -0.0067     CD =  0.01307   =>   CDf =  0.00581    CDp =  0.00726

 Side 1  free  transition at x/c =  0.6599   66
 Side 2  free  transition at x/c =  0.9865   75

   2   rms: 0.5226E-01   max: -.4453E+00   C at   66  1
       a =  3.500      CL =  0.4744
      Cm = -0.0094     CD =  0.01313   =>   CDf =  0.00581    CDp =  0.00731

 Side 1  free  transition at x/c =  0.5772   61
 Side 2  free  transition at x/c =  0.9871   75

   3   rms: 0.1860E-01   max: -.2072E+00   C at   61  1
       a =  3.500      CL =  0.4714
      Cm = -0.0080     CD =  0.01310   =>   CDf =  0.00612    CDp =  0.00698

 Side 1  free  transition at x/c =  0.5895   62
 Side 2  free  transition at x/c =  0.9868   75

   4   rms: 0.4921E-02   max: 0.6768E-01   C at   62  1
       a =  3.500      CL =  0.4715
      Cm = -0.0081     CD =  0.01312   =>   CDf =  0.00600    CDp =  0.00713

 Side 1  free  transition at x/c =  0.5860   62
 Side 2  free  transition at x/c =  0.9868   75

   5   rms: 0.2377E-03   max: -.3375E-02   C at   62  1
       a =  3.500      CL =  0.4715
      Cm = -0.0081     CD =  0.01312   =>   CDf =  0.00603    CDp =  0.00710

 Side 1  free  transition at x/c =  0.5862   62
 Side 2  free  transition at x/c =  0.9868   75

   6   rms: 0.2995E-05   max: -.3841E-04   C at   62  1
       a =  3.500      CL =  0.4715
      Cm = -0.0081     CD =  0.01312   =>   CDf =  0.00603    CDp =  0.00710
 plradd ia,ip,cpol           16           0  8.23104568E-03

 Point added to stored polar  1
 Point written to save file  sc20012_Re150k.base.pol                         
 Dump file unspecified or not available
 Calculating wake trajectory ...
 Calculating source influence matrix ...

 Solving BL system ...

 Side 1  free  transition at x/c =  0.5862   62
 Side 2  free  transition at x/c =  0.9868   75

   1   rms: 0.4387E+00   max: 0.6382E+01   C at   62  1   RLX: 0.235
       a =  4.000      CL =  0.4822
      Cm = -0.0068     CD =  0.01316   =>   CDf =  0.00603    CDp =  0.00713

 Side 1  free  transition at x/c =  0.4351   53
 Side 2  free  transition at x/c =  0.9888   74

   2   rms: 0.3978E+00   max: 0.6690E+01   C at   53  1   RLX: 0.224
       a =  4.000      CL =  0.4893
      Cm = -0.0067     CD =  0.01440   =>   CDf =  0.00689    CDp =  0.00751

 Side 1  free  transition at x/c =  0.3373   47
 Side 2  free  transition at x/c =  0.9902   74

   3   rms: 0.2210E+00   max: 0.3773E+01   C at   47  1   RLX: 0.398
       a =  4.000      CL =  0.5011
      Cm = -0.0073     CD =  0.01519   =>   CDf =  0.00745    CDp =  0.00774

 Side 1  free  transition at x/c =  0.2471   42
 Side 2  free  transition at x/c =  0.9923   74

   4   rms: 0.1003E+00   max: 0.1334E+01   C at   42  1   RLX: 0.749
       a =  4.000      CL =  0.5136
      Cm = -0.0080     CD =  0.01633   =>   CDf =  0.00804    CDp =  0.00829

 Side 1  free  transition at x/c =  0.2000   39
 Side 2  free  transition at x/c =  0.9948   75

   5   rms: 0.3498E-01   max: -.4279E+00   D at   42  1
       a =  4.000      CL =  0.5216
      Cm = -0.0088     CD =  0.01626   =>   CDf =  0.00839    CDp =  0.00787

 Side 1  free  transition at x/c =  0.1852   38
 Side 2  free  transition at x/c =  0.9950   75

   6   rms: 0.1591E-01   max: -.2156E+00   D at   38  1
       a =  4.000      CL =  0.5217
      Cm = -0.0088     CD =  0.01623   =>   CDf =  0.00848    CDp =  0.00774

 Side 1  free  transition at x/c =  0.1863   38
 Side 2  free  transition at x/c =  0.9950   75

   7   rms: 0.2566E-02   max: 0.3347E-01   C at   38  1
       a =  4.000      CL =  0.5215
      Cm = -0.0088     CD =  0.01627   =>   CDf =  0.00846    CDp =  0.00782

 Side 1  free  transition at x/c =  0.1856   38
 Side 2  free  transition at x/c =  0.9950   75

   8   rms: 0.3642E-04   max: -.5461E-03   D at   39  1
       a =  4.000      CL =  0.5215
      Cm = -0.0088     CD =  0.01627   =>   CDf =  0.00847    CDp =  0.00780
 plradd ia,ip,cpol           17           0  8.23104568E-03

 Point added to stored polar  1
 Point written to save file  sc20012_Re150k.base.pol                         
 Dump file unspecified or not available
 Calculating wake trajectory ...
 Calculating source influence matrix ...

 Solving BL system ...

 Side 1  free  transition at x/c =  0.1856   38
 Side 2  free  transition at x/c =  0.9950   75

   1   rms: 0.1934E+00   max: 0.1853E+01   C at   38  1   RLX: 0.388
       a =  4.500      CL =  0.5470
      Cm = -0.0104     CD =  0.01720   =>   CDf =  0.00847    CDp =  0.00872

 Side 1  free  transition at x/c =  0.1614   36
 Side 2  free  transition at x/c =  0.9978   75

   2   rms: 0.9036E-01   max: 0.8052E+00   T at   36  1
       a =  4.500      CL =  0.5905
      Cm = -0.0126     CD =  0.01800   =>   CDf =  0.00868    CDp =  0.00932

 MRCHDU: Convergence failed at  37  side 1    Res =  0.8344E+01
 Side 1  free  transition at x/c =  0.1361   35
 Side 2 forced transition at x/c =  1.0000   74

   3   rms: 0.6964E-01   max: -.6825E+00   D at   37  1   RLX: 0.733
       a =  4.500      CL =  0.5776
      Cm = -0.0105     CD =  0.01878   =>   CDf =  0.00893    CDp =  0.00986

 Side 1  free  transition at x/c =  0.1411   36
 Side 2 forced transition at x/c =  1.0000   74

   4   rms: 0.1497E-01   max: -.1554E+00   D at   37  1
       a =  4.500      CL =  0.5766
      Cm = -0.0102     CD =  0.01768   =>   CDf =  0.00888    CDp =  0.00880

 Side 1  free  transition at x/c =  0.1409   36
 Side 2 forced transition at x/c =  1.0000   74

   5   rms: 0.1324E-02   max: 0.1137E-01   D at   36  1
       a =  4.500      CL =  0.5768
      Cm = -0.0102     CD =  0.01771   =>   CDf =  0.00883    CDp =  0.00889

 Side 1  free  transition at x/c =  0.1407   36
 Side 2 forced transition at x/c =  1.0000   74

   6   rms: 0.2079E-04   max: -.3247E-03   D at   37  1
       a =  4.500      CL =  0.5768
      Cm = -0.0102     CD =  0.01771   =>   CDf =  0.00884    CDp =  0.00888
 plradd ia,ip,cpol           18           0  6.25057099E-03

 Point added to stored polar  1
 Point written to save file  sc20012_Re150k.base.pol                         
 Dump file unspecified or not available
 Calculating wake trajectory ...
 Calculating source influence matrix ...

 Solving BL system ...

 Side 1  free  transition at x/c =  0.1407   36
 Side 2 forced transition at x/c =  1.0000   74

   1   rms: 0.9734E-01   max: 0.7415E+00   T at   36  1
       a =  5.000      CL =  0.6084
      Cm = -0.0071     CD =  0.01898   =>   CDf =  0.00884    CDp =  0.01015

 MRCHDU: Convergence failed at  36  side 1    Res =  0.2706E+01
 MRCHDU: Convergence failed at  37  side 1    Res =  0.2127E+02
 MRCHDU: Convergence failed at  38  side 1    Res =  0.7320E+01
 MRCHDU: Convergence failed at  39  side 1    Res =  0.3172E+01
 MRCHDU: Convergence failed at  40  side 1    Res =  0.2827E+01
 MRCHDU: Convergence failed at  41  side 1    Res =  0.2685E+01
 MRCHDU: Convergence failed at  42  side 1    Res =  0.3021E+01
 MRCHDU: Convergence failed at  43  side 1    Res =  0.3082E+01
 MRCHDU: Convergence failed at  44  side 1    Res =  0.3528E+01
 MRCHDU: Convergence failed at  45  side 1    Res =  0.3445E+01
 MRCHDU: Convergence failed at  46  side 1    Res =  0.3362E+01
 MRCHDU: Convergence failed at  47  side 1    Res =  0.3197E+01
 MRCHDU: Convergence failed at  48  side 1    Res =  0.3213E+01
 MRCHDU: Convergence failed at  49  side 1    Res =  0.3208E+01
 MRCHDU: Convergence failed at  50  side 1    Res =  0.3051E+01
 MRCHDU: Convergence failed at  51  side 1    Res =  0.3228E+01
 MRCHDU: Convergence failed at  52  side 1    Res =  0.6425E+01
 MRCHDU: Convergence failed at  53  side 1    Res =  0.7339E+01
 MRCHDU: Convergence failed at  54  side 1    Res =  0.7590E+01
 MRCHDU: Convergence failed at  55  side 1    Res =  0.8229E+01
 MRCHDU: Convergence failed at  56  side 1    Res =  0.8787E+01
 MRCHDU: Convergence failed at  57  side 1    Res =  0.9698E+01
 MRCHDU: Convergence failed at  58  side 1    Res =  0.1080E+02
 MRCHDU: Convergence failed at  59  side 1    Res =  0.1114E+02
 MRCHDU: Convergence failed at  60  side 1    Res =  0.1273E+02
 MRCHDU: Convergence failed at  61  side 1    Res =  0.1586E+02
 MRCHDU: Convergence failed at  62  side 1    Res =  0.1647E+02
 MRCHDU: Convergence failed at  63  side 1    Res =  0.2099E+02
 MRCHDU: Convergence failed at  64  side 1    Res =  0.2421E+02
 MRCHDU: Convergence failed at  65  side 1    Res =  0.4670E+02
 MRCHDU: Convergence failed at  66  side 1    Res =  0.1408E+03
 MRCHDU: Convergence failed at  67  side 1    Res =  0.2263E+03
 MRCHDU: Convergence failed at  68  side 1    Res =  0.5151E+02
 MRCHDU: Convergence failed at  69  side 1    Res =  0.3350E+02
 MRCHDU: Convergence failed at  70  side 1    Res =  0.2826E+02
 MRCHDU: Convergence failed at  71  side 1    Res =  0.1018E+02
 MRCHDU: Convergence failed at  72  side 1    Res =  0.1082E+02
 MRCHDU: Convergence failed at  73  side 1    Res =  0.1181E+02
 MRCHDU: Convergence failed at  74  side 1    Res =  0.1283E+02
 MRCHDU: Convergence failed at  75  side 1    Res =  0.1388E+02
 MRCHDU: Convergence failed at  76  side 1    Res =  0.1532E+02
 MRCHDU: Convergence failed at  77  side 1    Res =  0.1698E+02
 MRCHDU: Convergence failed at  78  side 1    Res =  0.1542E+02
 MRCHDU: Convergence failed at  79  side 1    Res =  0.1720E+02
 MRCHDU: Convergence failed at  80  side 1    Res =  0.2065E+02
 MRCHDU: Convergence failed at  81  side 1    Res =  0.2607E+02
 MRCHDU: Convergence failed at  82  side 1    Res =  0.2069E+02
 MRCHDU: Convergence failed at  83  side 1    Res =  0.2615E+02
 MRCHDU: Convergence failed at  84  side 1    Res =  0.1669E+02
 MRCHDU: Convergence failed at  85  side 1    Res =  0.2705E+02
 MRCHDU: Convergence failed at  86  side 1    Res =  0.3408E+02
 MRCHDU: Convergence failed at  87  side 1    Res =  0.7113E+02
 MRCHDU: Convergence failed at  88  side 1    Res =  0.8532E+02
 Side 1  free  transition at x/c =  0.1256   35
 Side 2 forced transition at x/c =  1.0000   74

   2   rms: 0.6377E+00   max: -.2762E+01   T at   35  1   RLX: 0.181
       a =  5.000      CL =  0.9882
      Cm = -0.1843     CD =  0.00981   =>   CDf =  0.00372    CDp =  0.00609

 Side 1  free  transition at x/c =  0.1354   35
 Side 2 forced transition at x/c =  1.0000   74

   3   rms: 0.2864E+00   max: 0.1405E+01   T at   35  1   RLX: 0.399
       a =  5.000      CL =  0.7888
      Cm = -0.0824     CD =  0.01998   =>   CDf =  0.00920    CDp =  0.01078

 Side 1  free  transition at x/c =  0.1250   35
 Side 2 forced transition at x/c =  1.0000   74

   4   rms: 0.2554E+00   max: -.1001E+01   D at   38  1   RLX: 0.499
       a =  5.000      CL =  0.7425
      Cm = -0.0486     CD =  0.02130   =>   CDf =  0.00854    CDp =  0.01276

 Side 1  free  transition at x/c =  0.1224   34
 Side 2 forced transition at x/c =  1.0000   74

   5   rms: 0.3440E+00   max: -.1557E+01   D at   74  1   RLX: 0.321
       a =  5.000      CL =  0.7479
      Cm = -0.0365     CD =  0.01820   =>   CDf =  0.00835    CDp =  0.00985

 Side 1  free  transition at x/c =  0.1161   35
 Side 2 forced transition at x/c =  1.0000   73

   6   rms: 0.1636E+00   max: -.8195E+00   D at   81  1   RLX: 0.610
       a =  5.000      CL =  0.7256
      Cm = -0.0280     CD =  0.01770   =>   CDf =  0.00884    CDp =  0.00886

 MRCHDU: Convergence failed at  86  side 1    Res =  0.2412E+00
 Side 1  free  transition at x/c =  0.1146   35
 Side 2 forced transition at x/c =  1.0000   73
 idif Ue xi dudx           1  0.17359436      3.81946564E-03   45.449905    
 Uenew xinew           2  5.03391102E-02  1.10757351E-03

   7   rms: 0.1842E+00   max: -.3814E+00   D at   73  2   RLX: 0.660
       a =  5.000      CL =  0.6068
      Cm = -0.0054     CD =  0.01888   =>   CDf =  0.00907    CDp =  0.00981

 Side 1  free  transition at x/c =  0.1238   35
 Side 2 forced transition at x/c =  1.0000   74

   8   rms: 0.9031E-01   max: -.3748E+00   D at   35  1
       a =  5.000      CL =  0.6002
      Cm = -0.0054     CD =  0.01799   =>   CDf =  0.00929    CDp =  0.00870

 Side 1  free  transition at x/c =  0.1273   35
 Side 2 forced transition at x/c =  1.0000   74

   9   rms: 0.1537E-01   max: 0.1429E+00   T at   35  1
       a =  5.000      CL =  0.6068
      Cm = -0.0066     CD =  0.01865   =>   CDf =  0.00888    CDp =  0.00977

 Side 1  free  transition at x/c =  0.1246   35
 Side 2 forced transition at x/c =  1.0000   74

  10   rms: 0.1566E-02   max: -.2635E-01   D at   36  1
       a =  5.000      CL =  0.6067
      Cm = -0.0066     CD =  0.01877   =>   CDf =  0.00900    CDp =  0.00977

 Side 1  free  transition at x/c =  0.1244   35
 Side 2 forced transition at x/c =  1.0000   74

  11   rms: 0.8594E-04   max: 0.6895E-03   D at   35  1
       a =  5.000      CL =  0.6067
      Cm = -0.0066     CD =  0.01877   =>   CDf =  0.00901    CDp =  0.00976
 plradd ia,ip,cpol           19           0  6.25057099E-03

 Point added to stored polar  1
 Point written to save file  sc20012_Re150k.base.pol                         
 Dump file unspecified or not available
 Calculating wake trajectory ...
 Calculating source influence matrix ...

 Solving BL system ...

 Side 1  free  transition at x/c =  0.1244   35
 Side 2 forced transition at x/c =  1.0000   74

   1   rms: 0.1094E+00   max: 0.6542E+00   T at   35  1
       a =  5.500      CL =  0.6330
      Cm = -0.0026     CD =  0.02105   =>   CDf =  0.00897    CDp =  0.01208

 MRCHDU: Convergence failed at  36  side 1    Res =  0.4386E+02
 MRCHDU: Convergence failed at  37  side 1    Res =  0.9322E+01
 MRCHDU: Convergence failed at  38  side 1    Res =  0.4363E+01
 MRCHDU: Convergence failed at  39  side 1    Res =  0.5352E+01
 MRCHDU: Convergence failed at  40  side 1    Res =  0.7289E+01
 MRCHDU: Convergence failed at  41  side 1    Res =  0.1046E+02
 MRCHDU: Convergence failed at  42  side 1    Res =  0.1306E+02
 MRCHDU: Convergence failed at  43  side 1    Res =  0.1233E+02
 MRCHDU: Convergence failed at  44  side 1    Res =  0.1170E+02
 MRCHDU: Convergence failed at  45  side 1    Res =  0.1129E+02
 MRCHDU: Convergence failed at  46  side 1    Res =  0.9361E+01
 MRCHDU: Convergence failed at  47  side 1    Res =  0.9314E+01
 MRCHDU: Convergence failed at  48  side 1    Res =  0.7889E+01
 MRCHDU: Convergence failed at  49  side 1    Res =  0.3682E+02
 MRCHDU: Convergence failed at  50  side 1    Res =  0.4712E+02
 MRCHDU: Convergence failed at  51  side 1    Res =  0.6872E+02
 MRCHDU: Convergence failed at  52  side 1    Res =  0.1186E+03
 MRCHDU: Convergence failed at  53  side 1    Res =  0.1446E+03
 MRCHDU: Convergence failed at  54  side 1    Res =  0.8127E+03
 MRCHDU: Convergence failed at  55  side 1    Res =  0.3870E+03
 MRCHDU: Convergence failed at  56  side 1    Res =  0.2834E+03
 MRCHDU: Convergence failed at  57  side 1    Res =  0.1443E+03
 MRCHDU: Convergence failed at  58  side 1    Res =  0.1063E+03
 MRCHDU: Convergence failed at  59  side 1    Res =  0.8272E+02
 MRCHDU: Convergence failed at  60  side 1    Res =  0.8252E+02
 MRCHDU: Convergence failed at  61  side 1    Res =  0.7527E+02
 MRCHDU: Convergence failed at  62  side 1    Res =  0.5308E+02
 MRCHDU: Convergence failed at  63  side 1    Res =  0.5524E+02
 MRCHDU: Convergence failed at  64  side 1    Res =  0.4395E+02
 MRCHDU: Convergence failed at  65  side 1    Res =  0.3928E+02
 MRCHDU: Convergence failed at  66  side 1    Res =  0.3379E+02
 MRCHDU: Convergence failed at  67  side 1    Res =  0.2765E+02
 MRCHDU: Convergence failed at  68  side 1    Res =  0.2414E+02
 MRCHDU: Convergence failed at  69  side 1    Res =  0.2121E+02
 MRCHDU: Convergence failed at  70  side 1    Res =  0.1896E+02
 MRCHDU: Convergence failed at  71  side 1    Res =  0.1712E+02
 MRCHDU: Convergence failed at  72  side 1    Res =  0.1836E+02
 MRCHDU: Convergence failed at  73  side 1    Res =  0.1753E+02
 MRCHDU: Convergence failed at  74  side 1    Res =  0.2421E+02
 MRCHDU: Convergence failed at  75  side 1    Res =  0.2457E+02
 MRCHDU: Convergence failed at  76  side 1    Res =  0.2522E+02
 MRCHDU: Convergence failed at  77  side 1    Res =  0.2621E+02
 MRCHDU: Convergence failed at  78  side 1    Res =  0.3414E+02
 MRCHDU: Convergence failed at  79  side 1    Res =  0.3834E+02
 MRCHDU: Convergence failed at  80  side 1    Res =  0.4000E+02
 MRCHDU: Convergence failed at  81  side 1    Res =  0.1865E+02
 MRCHDU: Convergence failed at  82  side 1    Res =  0.4218E+02
 MRCHDU: Convergence failed at  83  side 1    Res =  0.4937E+02
 MRCHDU: Convergence failed at  84  side 1    Res =  0.1932E+03
 MRCHDU: Convergence failed at  85  side 1    Res =  0.1958E+02
 MRCHDU: Convergence failed at  86  side 1    Res =  0.6343E+02
 MRCHDU: Convergence failed at  87  side 1    Res =  0.2505E+02
 MRCHDU: Convergence failed at  88  side 1    Res =  0.7668E+02
 MRCHDU: Convergence failed at  89  side 1    Res =  0.9127E+02
 Side 1  free  transition at x/c =  0.1140   35
 Side 2 forced transition at x/c =  1.0000   73
 idif Ue xi dudx           1  0.14725311      3.22616100E-03   45.643448    
 Uenew xinew           2  2.34730039E-02  5.14268875E-04

   2   rms: 0.9515E+00   max: -.6473E+01   T at    2  1   RLX: 0.077
       a =  5.500      CL =  1.2585
      Cm = -0.2616     CD =  0.00842   =>   CDf =  0.00378    CDp =  0.00464

 MRCHDU: Convergence failed at  41  side 1    Res =  0.6844E-01
 MRCHDU: Convergence failed at  55  side 1    Res =  0.4892E-01
 MRCHDU: Convergence failed at  86  side 1    Res =  0.1124E+00
 MRCHDU: Convergence failed at  87  side 1    Res =  0.8616E-01
 MRCHDU: Convergence failed at  88  side 1    Res =  0.2311E-02
 Side 1  free  transition at x/c =  0.1191   34
 Side 2 forced transition at x/c =  1.0000   74

   3   rms: 0.3620E+00   max: 0.1636E+01   C at   74  2   RLX: 0.448
       a =  5.500      CL =  0.8333
      Cm = -0.0892     CD =  0.02062   =>   CDf =  0.00541    CDp =  0.01521

 MRCHDU: Convergence failed at  42  side 1    Res =  0.1599E-01
 MRCHDU: Convergence failed at  56  side 1    Res =  0.1470E+00
 MRCHDU: Convergence failed at  57  side 1    Res =  0.4251E+00
 MRCHDU: Convergence failed at  60  side 1    Res =  0.2567E+00
 MRCHDU: Convergence failed at  65  side 1    Res =  0.2336E+02
 MRCHDU: Convergence failed at  88  side 1    Res =  0.1973E+00
 MRCHDU: Convergence failed at  89  side 1    Res =  0.1962E+00
 Side 1  free  transition at x/c =  0.1138   35
 Side 2 forced transition at x/c =  1.0000   73
 idif Ue xi dudx           1  0.12790406      2.81953812E-03   45.363480    
 Uenew xinew           2  4.88319667E-03  1.07645988E-04

   4   rms: 0.3957E+00   max: -.1913E+01   D at   58  1   RLX: 0.261
       a =  5.500      CL =  0.6542
      Cm = -0.0236     CD =  0.02840   =>   CDf =  0.00576    CDp =  0.02265

 Side 1  free  transition at x/c =  0.1203   34
 Side 2 forced transition at x/c =  1.0000   74

   5   rms: 0.4845E+00   max: -.2384E+01   T at   34  1   RLX: 0.210
       a =  5.500      CL =  0.6023
      Cm = -0.0120     CD =  0.02701   =>   CDf =  0.00624    CDp =  0.02077

 MRCHDU: Convergence failed at  36  side 1    Res =  0.2207E+01
 MRCHDU: Convergence failed at  37  side 1    Res =  0.8304E+01
 MRCHDU: Convergence failed at  38  side 1    Res =  0.9517E+01
 MRCHDU: Convergence failed at  39  side 1    Res =  0.1937E+02
 MRCHDU: Convergence failed at  40  side 1    Res =  0.5171E+02
 Side 1  free  transition at x/c =  0.1367   35
 Side 2 forced transition at x/c =  1.0000   74

   6   rms: 0.4496E+00   max: -.2450E+01   D at   47  1   RLX: 0.204
       a =  5.500      CL =  0.6605
      Cm = -0.0039     CD =  0.02126   =>   CDf =  0.00666    CDp =  0.01460

 Side 1  free  transition at x/c =  0.1268   35
 Side 2 forced transition at x/c =  1.0000   74

   7   rms: 0.3160E+00   max: 0.1547E+01   C at   74  2   RLX: 0.416
       a =  5.500      CL =  0.6707
      Cm = -0.0053     CD =  0.02062   =>   CDf =  0.00853    CDp =  0.01209

 Side 1  free  transition at x/c =  0.1204   35
 Side 2 forced transition at x/c =  1.0000   73

   8   rms: 0.1217E+00   max: -.7237E+00   D at   38  1   RLX: 0.691
       a =  5.500      CL =  0.6498
      Cm = -0.0023     CD =  0.01821   =>   CDf =  0.00915    CDp =  0.00907

 Side 1  free  transition at x/c =  0.1152   35
 Side 2 forced transition at x/c =  1.0000   73

   9   rms: 0.4456E-01   max: -.5018E+00   D at   38  1   RLX: 0.996
       a =  5.500      CL =  0.6343
      Cm = -0.0022     CD =  0.01946   =>   CDf =  0.00894    CDp =  0.01053

 Side 1  free  transition at x/c =  0.1137   35
 Side 2 forced transition at x/c =  1.0000   73

  10   rms: 0.9362E-02   max: -.1825E+00   D at   38  1
       a =  5.500      CL =  0.6332
      Cm = -0.0020     CD =  0.01963   =>   CDf =  0.00898    CDp =  0.01065

 Side 1  free  transition at x/c =  0.1135   35
 Side 2 forced transition at x/c =  1.0000   73

  11   rms: 0.1001E-02   max: -.1768E-01   D at   38  1
       a =  5.500      CL =  0.6332
      Cm = -0.0020     CD =  0.01963   =>   CDf =  0.00900    CDp =  0.01063

 Side 1  free  transition at x/c =  0.1134   35
 Side 2 forced transition at x/c =  1.0000   73

  12   rms: 0.9578E-05   max: -.1639E-03   D at   38  1
       a =  5.500      CL =  0.6332
      Cm = -0.0020     CD =  0.01963   =>   CDf =  0.00900    CDp =  0.01063
 plradd ia,ip,cpol           20           0  6.25057099E-03

 Point added to stored polar  1
 Point written to save file  sc20012_Re150k.base.pol                         
 Dump file unspecified or not available
 Calculating wake trajectory ...
 Calculating source influence matrix ...

 Solving BL system ...

 Side 1  free  transition at x/c =  0.1134   35
 Side 2 forced transition at x/c =  1.0000   73

   1   rms: 0.8456E-01   max: 0.5552E+00   T at   35  1
       a =  6.000      CL =  0.6594
      Cm =  0.0025     CD =  0.02076   =>   CDf =  0.00900    CDp =  0.01176

 MRCHDU: Convergence failed at  35  side 1    Res =  0.1555E+02
 MRCHDU: Convergence failed at  36  side 1    Res =  0.7818E+01
 MRCHDU: Convergence failed at  37  side 1    Res =  0.8570E+01
 MRCHDU: Convergence failed at  38  side 1    Res =  0.2054E+02
 MRCHDU: Convergence failed at  39  side 1    Res =  0.8053E+02
 MRCHDU: Convergence failed at  40  side 1    Res =  0.1109E+03
 MRCHDU: Convergence failed at  41  side 1    Res =  0.6496E+02
 MRCHDU: Convergence failed at  42  side 1    Res =  0.3878E+02
 MRCHDU: Convergence failed at  43  side 1    Res =  0.7073E+02
 MRCHDU: Convergence failed at  44  side 1    Res =  0.8486E+02
 MRCHDU: Convergence failed at  45  side 1    Res =  0.7671E+03
 MRCHDU: Convergence failed at  46  side 1    Res =  0.2031E+03
 MRCHDU: Convergence failed at  47  side 1    Res =  0.4275E+02
 MRCHDU: Convergence failed at  48  side 1    Res =  0.3614E+02
 MRCHDU: Convergence failed at  49  side 1    Res =  0.5437E+02
 MRCHDU: Convergence failed at  50  side 1    Res =  0.4776E+02
 MRCHDU: Convergence failed at  51  side 1    Res =  0.4418E+02
 MRCHDU: Convergence failed at  52  side 1    Res =  0.3839E+02
 MRCHDU: Convergence failed at  53  side 1    Res =  0.3872E+02
 MRCHDU: Convergence failed at  54  side 1    Res =  0.3410E+02
 MRCHDU: Convergence failed at  55  side 1    Res =  0.3352E+02
 MRCHDU: Convergence failed at  56  side 1    Res =  0.3203E+02
 MRCHDU: Convergence failed at  57  side 1    Res =  0.3110E+02
 MRCHDU: Convergence failed at  58  side 1    Res =  0.2888E+02
 MRCHDU: Convergence failed at  59  side 1    Res =  0.2695E+02
 MRCHDU: Convergence failed at  60  side 1    Res =  0.2709E+02
 MRCHDU: Convergence failed at  61  side 1    Res =  0.2613E+02
 MRCHDU: Convergence failed at  62  side 1    Res =  0.2390E+02
 MRCHDU: Convergence failed at  63  side 1    Res =  0.2401E+02
 MRCHDU: Convergence failed at  64  side 1    Res =  0.2236E+02
 MRCHDU: Convergence failed at  65  side 1    Res =  0.2178E+02
 MRCHDU: Convergence failed at  66  side 1    Res =  0.1983E+02
 MRCHDU: Convergence failed at  67  side 1    Res =  0.1826E+02
 MRCHDU: Convergence failed at  68  side 1    Res =  0.4541E+02
 MRCHDU: Convergence failed at  69  side 1    Res =  0.4180E+02
 MRCHDU: Convergence failed at  70  side 1    Res =  0.3939E+02
 MRCHDU: Convergence failed at  71  side 1    Res =  0.2116E+02
 MRCHDU: Convergence failed at  72  side 1    Res =  0.3939E+02
 MRCHDU: Convergence failed at  73  side 1    Res =  0.4115E+02
 MRCHDU: Convergence failed at  74  side 1    Res =  0.4505E+02
 MRCHDU: Convergence failed at  75  side 1    Res =  0.3100E+02
 MRCHDU: Convergence failed at  76  side 1    Res =  0.2488E+02
 MRCHDU: Convergence failed at  77  side 1    Res =  0.3550E+02
 MRCHDU: Convergence failed at  78  side 1    Res =  0.2820E+02
 MRCHDU: Convergence failed at  79  side 1    Res =  0.7696E+02
 MRCHDU: Convergence failed at  80  side 1    Res =  0.7584E+02
 MRCHDU: Convergence failed at  81  side 1    Res =  0.3629E+03
 MRCHDU: Convergence failed at  82  side 1    Res =  0.1494E+03
 MRCHDU: Convergence failed at  83  side 1    Res =  0.3456E+03
 MRCHDU: Convergence failed at  84  side 1    Res =  0.1847E+03
 MRCHDU: Convergence failed at  85  side 1    Res =  0.4950E+02
 MRCHDU: Convergence failed at  86  side 1    Res =  0.4048E+02
 MRCHDU: Convergence failed at  87  side 1    Res =  0.3434E+02
 MRCHDU: Convergence failed at  88  side 1    Res =  0.3347E+02
 MRCHDU: Convergence failed at  89  side 1    Res =  0.2875E+02
 Side 1  free  transition at x/c =  0.1061   34
 Side 2 forced transition at x/c =  1.0000   73

   2   rms: 0.9570E+00   max: -.5695E+01   C at   73  2   RLX: 0.088
       a =  6.000      CL =  1.4977
      Cm = -0.3235     CD =  0.00716   =>   CDf =  0.00370    CDp =  0.00346

 MRCHDU: Convergence failed at  41  side 1    Res =  0.2740E+00
 MRCHDU: Convergence failed at  42  side 1    Res =  0.2614E+00
 MRCHDU: Convergence failed at  43  side 1    Res =  0.2391E+00
 MRCHDU: Convergence failed at  44  side 1    Res =  0.2170E+00
 MRCHDU: Convergence failed at  45  side 1    Res =  0.1837E+00
 MRCHDU: Convergence failed at  46  side 1    Res =  0.1528E+00
 MRCHDU: Convergence failed at  47  side 1    Res =  0.2430E-01
 Side 1  free  transition at x/c =  0.1092   34
 Side 2 forced transition at x/c =  1.0000   73

   3   rms: 0.1973E+01   max: -.1673E+02   D at   47  1   RLX: 0.030
       a =  6.000      CL =  1.1169
      Cm = -0.2168     CD =  0.02987   =>   CDf =  0.00508    CDp =  0.02479

 MRCHDU: Convergence failed at  47  side 1    Res =  0.6020E+00
 MRCHDU: Convergence failed at  48  side 1    Res =  0.1029E+01
 MRCHDU: Convergence failed at  49  side 1    Res =  0.5756E+00
 MRCHDU: Convergence failed at  50  side 1    Res =  0.5215E+00
 MRCHDU: Convergence failed at  51  side 1    Res =  0.4476E+00
 MRCHDU: Convergence failed at  52  side 1    Res =  0.3635E+00
 MRCHDU: Convergence failed at  53  side 1    Res =  0.2644E+00
 MRCHDU: Convergence failed at  54  side 1    Res =  0.1186E+00
 MRCHDU: Convergence failed at  56  side 1    Res =  0.4794E-01
 Side 1  free  transition at x/c =  0.1203   35
 Side 2 forced transition at x/c =  1.0000   73

   4   rms: 0.4416E+00   max: -.2462E+01   D at   56  1   RLX: 0.203
       a =  6.000      CL =  0.8999
      Cm = -0.1372     CD =  0.02443   =>   CDf =  0.00524    CDp =  0.01919

 MRCHDU: Convergence failed at  56  side 1    Res =  0.4221E+00
 MRCHDU: Convergence failed at  57  side 1    Res =  0.5800E+00
 MRCHDU: Convergence failed at  58  side 1    Res =  0.2170E+00
 MRCHDU: Convergence failed at  59  side 1    Res =  0.1954E+00
 MRCHDU: Convergence failed at  60  side 1    Res =  0.1709E+00
 MRCHDU: Convergence failed at  61  side 1    Res =  0.1458E+00
 MRCHDU: Convergence failed at  62  side 1    Res =  0.1199E+00
 MRCHDU: Convergence failed at  63  side 1    Res =  0.9380E-01
 MRCHDU: Convergence failed at  76  side 1    Res =  0.6158E+00
 MRCHDU: Convergence failed at  77  side 1    Res =  0.1311E+01
 MRCHDU: Convergence failed at  78  side 1    Res =  0.6418E+00
 MRCHDU: Convergence failed at  79  side 1    Res =  0.6100E+00
 MRCHDU: Convergence failed at  80  side 1    Res =  0.5656E+00
 MRCHDU: Convergence failed at  81  side 1    Res =  0.5185E+00
 MRCHDU: Convergence failed at  82  side 1    Res =  0.4684E+00
 MRCHDU: Convergence failed at  83  side 1    Res =  0.4148E+00
 MRCHDU: Convergence failed at  84  side 1    Res =  0.3555E+00
 MRCHDU: Convergence failed at  85  side 1    Res =  0.2898E+00
 MRCHDU: Convergence failed at  86  side 1    Res =  0.2130E+00
 MRCHDU: Convergence failed at  87  side 1    Res =  0.1173E+00
 Side 1  free  transition at x/c =  0.1234   35
 Side 2 forced transition at x/c =  1.0000   73

   5   rms: 0.5274E+00   max: 0.2989E+01   C at   73  2   RLX: 0.210
       a =  6.000      CL =  0.7032
      Cm = -0.0391     CD =  0.01763   =>   CDf =  0.00458    CDp =  0.01305

 MRCHDU: Convergence failed at  63  side 1    Res =  0.3617E+00
 MRCHDU: Convergence failed at  88  side 1    Res =  0.5510E+00
 MRCHDU: Convergence failed at  89  side 1    Res =  0.8079E+00
 Side 1  free  transition at x/c =  0.1157   35
 Side 2 forced transition at x/c =  1.0000   73

   6   rms: 0.7496E+00   max: -.4922E+01   C at   73  2   RLX: 0.102
       a =  6.000      CL =  0.5419
      Cm =  0.0180     CD =  0.03112   =>   CDf =  0.00428    CDp =  0.02684

 MRCHDU: Convergence failed at  64  side 1    Res =  0.5451E-01
 Side 1  free  transition at x/c =  0.1227   35
 Side 2 forced transition at x/c =  1.0000   73

   7   rms: 0.5405E+00   max: 0.3305E+01   T at   35  1   RLX: 0.302
       a =  6.000      CL =  0.5316
      Cm =  0.0156     CD =  0.03694   =>   CDf =  0.00453    CDp =  0.03241

 Side 1  free  transition at x/c =  0.1084   34
 Side 2 forced transition at x/c =  1.0000   73

   8   rms: 0.3016E+01   max: 0.2124E+02   T at   34  1   RLX: 0.045
       a =  6.000      CL =  0.5429
      Cm =  0.0125     CD =  0.05193   =>   CDf =  0.00441    CDp =  0.04752

 Side 1  free  transition at x/c =  0.1000   34
 Side 2 forced transition at x/c =  1.0000   73
 idif Ue xi dudx           1  0.12533954      2.85315514E-03   43.930153    
 Uenew xinew           2  6.20570546E-03  1.41263008E-04

   9   rms: 0.4459E+00   max: -.2098E+01   D at   64  1   RLX: 0.238
       a =  6.000      CL =  0.5142
      Cm =  0.0194     CD =  0.04263   =>   CDf =  0.00421    CDp =  0.03843

 Side 1  free  transition at x/c =  0.1047   33
 Side 2 forced transition at x/c =  1.0000   74

  10   rms: 0.8741E+00   max: -.4530E+01   D at   63  1   RLX: 0.110
       a =  6.000      CL =  0.4878
      Cm =  0.0305     CD =  0.04038   =>   CDf =  0.00435    CDp =  0.03603

 Side 1  free  transition at x/c =  0.1099   34
 Side 2 forced transition at x/c =  1.0000   74

  11   rms: 0.4598E+00   max: -.1879E+01   D at   63  1   RLX: 0.266
       a =  6.000      CL =  0.4699
      Cm =  0.0362     CD =  0.03557   =>   CDf =  0.00465    CDp =  0.03092

 Side 1  free  transition at x/c =  0.1128   34
 Side 2 forced transition at x/c =  1.0000   74

  12   rms: 0.5669E+00   max: -.2327E+01   D at   54  1   RLX: 0.215
       a =  6.000      CL =  0.4634
      Cm =  0.0394     CD =  0.03404   =>   CDf =  0.00496    CDp =  0.02908

 Side 1  free  transition at x/c =  0.1190   34
 Side 2 forced transition at x/c =  1.0000   74

  13   rms: 0.7220E+00   max: -.3145E+01   D at   43  1   RLX: 0.159
       a =  6.000      CL =  0.4553
      Cm =  0.0406     CD =  0.03327   =>   CDf =  0.00550    CDp =  0.02777

 Side 1  free  transition at x/c =  0.1317   35
 Side 2 forced transition at x/c =  1.0000   74

  14   rms: 0.5336E+00   max: -.1789E+01   D at   67  1   RLX: 0.279
       a =  6.000      CL =  0.5180
      Cm =  0.0411     CD =  0.02225   =>   CDf =  0.00648    CDp =  0.01577

 Side 1  free  transition at x/c =  0.1212   35
 Side 2 forced transition at x/c =  1.0000   73

  15   rms: 0.8271E+00   max: 0.5691E+01   C at   73  2   RLX: 0.161
       a =  6.000      CL =  0.5978
      Cm =  0.0357     CD =  0.02191   =>   CDf =  0.00724    CDp =  0.01467

 Side 1  free  transition at x/c =  0.1087   34
 Side 2 forced transition at x/c =  1.0000   73

  16   rms: 0.1291E+01   max: 0.1169E+02   C at   73  2   RLX: 0.088
       a =  6.000      CL =  0.6873
      Cm =  0.0195     CD =  0.02983   =>   CDf =  0.00753    CDp =  0.02230

 Side 1  free  transition at x/c =  0.0968   35
 Side 2 forced transition at x/c =  1.0000   72

  17   rms: 0.5770E+00   max: 0.2017E+01   D at    2  1   RLX: 0.278
       a =  6.000      CL =  0.7724
      Cm = -0.0009     CD =  0.03083   =>   CDf =  0.00705    CDp =  0.02378

 Side 1  free  transition at x/c =  0.0952   34
 Side 2 forced transition at x/c =  1.0000   72

  18   rms: 0.2884E+00   max: -.1263E+01   D at   39  1   RLX: 0.396
       a =  6.000      CL =  0.7861
      Cm = -0.0086     CD =  0.02243   =>   CDf =  0.00775    CDp =  0.01468

 Side 1  free  transition at x/c =  0.0964   34
 Side 2 forced transition at x/c =  1.0000   72

  19   rms: 0.1332E+00   max: -.5119E+00   D at   89  1   RLX: 0.686
       a =  6.000      CL =  0.7546
      Cm = -0.0108     CD =  0.02168   =>   CDf =  0.00841    CDp =  0.01327

 Side 1  free  transition at x/c =  0.0980   35
 Side 2 forced transition at x/c =  1.0000   72
 idif Ue xi dudx           1  0.15525159      3.99649143E-03   38.846973    
 Uenew xinew           2  4.25257385E-02  1.09469891E-03

  20   rms: 0.1052E+00   max: -.3994E+00   D at   72  2
       a =  6.000      CL =  0.6684
[...]

  30   rms: 0.6491E-02   max: 0.2758E-01   T at   35  1
       a = 13.500      CL =  0.6795
      Cm = -0.0144     CD =  0.15475   =>   CDf =  0.00460    CDp =  0.15015

 Side 1  free  transition at x/c =  0.0838   34
 Side 2 forced transition at x/c =  1.0000   71

  31   rms: 0.3570E-02   max: 0.1425E-01   T at   34  1
       a = 13.500      CL =  0.6790
      Cm = -0.0147     CD =  0.15534   =>   CDf =  0.00460    CDp =  0.15074

 Side 1  free  transition at x/c =  0.0837   34
 Side 2 forced transition at x/c =  1.0000   71

  32   rms: 0.1767E-02   max: 0.8849E-02   T at   35  1
       a = 13.500      CL =  0.6792
      Cm = -0.0146     CD =  0.15508   =>   CDf =  0.00460    CDp =  0.15048

 Side 1  free  transition at x/c =  0.0838   34
 Side 2 forced transition at x/c =  1.0000   71

  33   rms: 0.3428E-03   max: 0.1445E-02   T at   34  1
       a = 13.500      CL =  0.6792
      Cm = -0.0146     CD =  0.15512   =>   CDf =  0.00460    CDp =  0.15052

 Side 1  free  transition at x/c =  0.0838   34
 Side 2 forced transition at x/c =  1.0000   71

  34   rms: 0.1580E-03   max: 0.7167E-03   T at   35  1
       a = 13.500      CL =  0.6792
      Cm = -0.0146     CD =  0.15509   =>   CDf =  0.00460    CDp =  0.15049

 Side 1  free  transition at x/c =  0.0838   34
 Side 2 forced transition at x/c =  1.0000   71

  35   rms: 0.5395E-04   max: -.2434E-03   T at   35  1
       a = 13.500      CL =  0.6792
      Cm = -0.0146     CD =  0.15510   =>   CDf =  0.00460    CDp =  0.15050
 plradd ia,ip,cpol           44           0  3.18580447E-03

 Point added to stored polar  1
 Point written to save file  sc20012_Re150k.base.pol                         
 Dump file unspecified or not available
 Calculating wake trajectory ...
 Calculating source influence matrix ...

 Solving BL system ...

 Side 1  free  transition at x/c =  0.0838   34
 Side 2 forced transition at x/c =  1.0000   71

   1   rms: 0.2494E+00   max: -.1003E+01   T at   35  1   RLX: 0.484
       a = 13.750      CL =  0.6482
      Cm = -0.0256     CD =  0.16576   =>   CDf =  0.00460    CDp =  0.16116

 Side 1  free  transition at x/c =  0.0799   34
 Side 2 forced transition at x/c =  1.0000   71

   2   rms: 0.6030E-01   max: -.2732E+00   D at   35  1
       a = 13.750      CL =  0.6365
      Cm = -0.0218     CD =  0.15307   =>   CDf =  0.00466    CDp =  0.14840

 Side 1  free  transition at x/c =  0.0810   34
 Side 2 forced transition at x/c =  1.0000   71

   3   rms: 0.3765E-01   max: 0.1495E+00   T at   34  1
       a = 13.750      CL =  0.6600
      Cm = -0.0216     CD =  0.15873   =>   CDf =  0.00469    CDp =  0.15404

 Side 1  free  transition at x/c =  0.0797   34
 Side 2 forced transition at x/c =  1.0000   71

   4   rms: 0.4732E-02   max: -.3568E-01   D at   91  2
       a = 13.750      CL =  0.6621
      Cm = -0.0216     CD =  0.16003   =>   CDf =  0.00465    CDp =  0.15538

 Side 1  free  transition at x/c =  0.0797   34
 Side 2 forced transition at x/c =  1.0000   71

   5   rms: 0.8500E-03   max: 0.5281E-02   T at   34  1
       a = 13.750      CL =  0.6626
      Cm = -0.0216     CD =  0.16038   =>   CDf =  0.00464    CDp =  0.15574

 Side 1  free  transition at x/c =  0.0796   34
 Side 2 forced transition at x/c =  1.0000   71

   6   rms: 0.3299E-04   max: -.2863E-03   D at   91  2
       a = 13.750      CL =  0.6626
      Cm = -0.0216     CD =  0.16043   =>   CDf =  0.00464    CDp =  0.15579
 plradd ia,ip,cpol           45           0  3.18580447E-03

 Point added to stored polar  1
 Point written to save file  sc20012_Re150k.base.pol                         
 Dump file unspecified or not available
 Calculating wake trajectory ...
 Calculating source influence matrix ...

 Solving BL system ...

 Side 1  free  transition at x/c =  0.0796   34
 Side 2 forced transition at x/c =  1.0000   71

   1   rms: 0.2151E-01   max: 0.3837E+00   T at   34  1   RLX: 0.494
       a = 14.000      CL =  0.6648
      Cm = -0.0227     CD =  0.16313   =>   CDf =  0.00464    CDp =  0.15849

 Side 1  free  transition at x/c =  0.0780   34
 Side 2 forced transition at x/c =  1.0000   71

   2   rms: 0.1012E-01   max: 0.1429E+00   T at   34  1
       a = 14.000      CL =  0.6682
      Cm = -0.0230     CD =  0.16413   =>   CDf =  0.00465    CDp =  0.15948

 Side 1  free  transition at x/c =  0.0769   34
 Side 2 forced transition at x/c =  1.0000   71

   3   rms: 0.2399E-02   max: -.1440E-01   D at   34  1
       a = 14.000      CL =  0.6684
      Cm = -0.0229     CD =  0.16350   =>   CDf =  0.00465    CDp =  0.15885

 Side 1  free  transition at x/c =  0.0770   34
 Side 2 forced transition at x/c =  1.0000   71

   4   rms: 0.8534E-03   max: 0.3821E-02   T at   34  1
       a = 14.000      CL =  0.6689
      Cm = -0.0229     CD =  0.16373   =>   CDf =  0.00465    CDp =  0.15909

 Side 1  free  transition at x/c =  0.0770   34
 Side 2 forced transition at x/c =  1.0000   71

   5   rms: 0.4043E-04   max: -.4432E-03   D at   91  2
       a = 14.000      CL =  0.6689
      Cm = -0.0229     CD =  0.16380   =>   CDf =  0.00465    CDp =  0.15915
 plradd ia,ip,cpol           46           0  3.18580447E-03

 Point added to stored polar  1
 Point written to save file  sc20012_Re150k.base.pol                         
 Dump file unspecified or not available
 Calculating wake trajectory ...
 Calculating source influence matrix ...

 Solving BL system ...

 Side 1  free  transition at x/c =  0.0770   34
 Side 2 forced transition at x/c =  1.0000   71

   1   rms: 0.2576E-01   max: 0.3237E+00   T at   34  1   RLX: 0.486
       a = 14.250      CL =  0.6735
      Cm = -0.0233     CD =  0.16570   =>   CDf =  0.00465    CDp =  0.16105

 Side 1  free  transition at x/c =  0.0759   34
 Side 2 forced transition at x/c =  1.0000   71

   2   rms: 0.1682E-01   max: 0.1488E+00   T at   34  1
       a = 14.250      CL =  0.6796
      Cm = -0.0231     CD =  0.16666   =>   CDf =  0.00452    CDp =  0.16213

 Side 1  free  transition at x/c =  0.0752   35
 Side 2 forced transition at x/c =  1.0000   70

   3   rms: 0.3410E-02   max: -.1756E-01   D at    4  2
       a = 14.250      CL =  0.6801
      Cm = -0.0230     CD =  0.16634   =>   CDf =  0.00464    CDp =  0.16171

 Side 1  free  transition at x/c =  0.0752   35
 Side 2 forced transition at x/c =  1.0000   70

   4   rms: 0.1328E-02   max: -.1025E-01   D at    4  1
       a = 14.250      CL =  0.6808
      Cm = -0.0230     CD =  0.16667   =>   CDf =  0.00464    CDp =  0.16203

 Side 1  free  transition at x/c =  0.0752   35
 Side 2 forced transition at x/c =  1.0000   70

   5   rms: 0.4532E-04   max: -.4900E-03   D at   90  2
       a = 14.250      CL =  0.6808
      Cm = -0.0230     CD =  0.16673   =>   CDf =  0.00463    CDp =  0.16210
 plradd ia,ip,cpol           47           0  3.18580447E-03

 Point added to stored polar  1
 Point written to save file  sc20012_Re150k.base.pol                         
 Dump file unspecified or not available
 Calculating wake trajectory ...
 Calculating source influence matrix ...

 Solving BL system ...

 Side 1  free  transition at x/c =  0.0752   35
 Side 2 forced transition at x/c =  1.0000   70

   1   rms: 0.3780E-01   max: 0.3035E+00   T at   35  1   RLX: 0.479
       a = 14.500      CL =  0.6873
      Cm = -0.0227     CD =  0.16823   =>   CDf =  0.00463    CDp =  0.16360

 Side 1  free  transition at x/c =  0.0746   35
 Side 2 forced transition at x/c =  1.0000   70

   2   rms: 0.2349E-01   max: 0.1539E+00   T at   35  1
       a = 14.500      CL =  0.6961
      Cm = -0.0220     CD =  0.16932   =>   CDf =  0.00463    CDp =  0.16469

 Side 1  free  transition at x/c =  0.0741   35
 Side 2 forced transition at x/c =  1.0000   70

   3   rms: 0.7842E-02   max: -.3728E-01   D at   35  1
       a = 14.500      CL =  0.6961
      Cm = -0.0218     CD =  0.16885   =>   CDf =  0.00462    CDp =  0.16423

 Side 1  free  transition at x/c =  0.0742   35
 Side 2 forced transition at x/c =  1.0000   70

   4   rms: 0.2867E-02   max: -.1030E-01   D at   90  2
       a = 14.500      CL =  0.6977
      Cm = -0.0217     CD =  0.16959   =>   CDf =  0.00462    CDp =  0.16497

 Side 1  free  transition at x/c =  0.0741   35
 Side 2 forced transition at x/c =  1.0000   70

   5   rms: 0.1723E-03   max: -.1427E-02   D at   90  2
       a = 14.500      CL =  0.6978
      Cm = -0.0217     CD =  0.16977   =>   CDf =  0.00462    CDp =  0.16515

 Side 1  free  transition at x/c =  0.0741   35
 Side 2 forced transition at x/c =  1.0000   70

   6   rms: 0.5740E-05   max: -.6019E-04   D at   91  2
       a = 14.500      CL =  0.6978
      Cm = -0.0217     CD =  0.16978   =>   CDf =  0.00462    CDp =  0.16516
 plradd ia,ip,cpol           48           0  3.18580447E-03

 Point added to stored polar  1
 Point written to save file  sc20012_Re150k.base.pol                         
 Dump file unspecified or not available
 Calculating wake trajectory ...
 Calculating source influence matrix ...

 Solving BL system ...

 Side 1  free  transition at x/c =  0.0741   35
 Side 2 forced transition at x/c =  1.0000   70

   1   rms: 0.5724E-01   max: 0.3349E+00   T at   35  1   RLX: 0.476
       a = 14.750      CL =  0.7066
      Cm = -0.0206     CD =  0.17102   =>   CDf =  0.00462    CDp =  0.16641

 Side 1  free  transition at x/c =  0.0737   35
 Side 2 forced transition at x/c =  1.0000   70

   2   rms: 0.4160E-01   max: 0.1900E+00   T at   35  1
       a = 14.750      CL =  0.7201
      Cm = -0.0182     CD =  0.17176   =>   CDf =  0.00461    CDp =  0.16715

 Side 1  free  transition at x/c =  0.0734   34
 Side 2 forced transition at x/c =  1.0000   70

   3   rms: 0.1710E-01   max: 0.4548E-01   D at   41  1
       a = 14.750      CL =  0.7173
      Cm = -0.0200     CD =  0.17627   =>   CDf =  0.00460    CDp =  0.17167

 Side 1  free  transition at x/c =  0.0733   34
 Side 2 forced transition at x/c =  1.0000   70

   4   rms: 0.6368E-02   max: 0.2346E-01   D at   90  2
       a = 14.750      CL =  0.7161
      Cm = -0.0198     CD =  0.17515   =>   CDf =  0.00460    CDp =  0.17055

 Side 1  free  transition at x/c =  0.0734   34
 Side 2 forced transition at x/c =  1.0000   70

   5   rms: 0.7808E-03   max: 0.4281E-02   D at   90  2
       a = 14.750      CL =  0.7159
      Cm = -0.0197     CD =  0.17448   =>   CDf =  0.00461    CDp =  0.16987

 Side 1  free  transition at x/c =  0.0734   34
 Side 2 forced transition at x/c =  1.0000   70

   6   rms: 0.8852E-04   max: 0.3192E-03   T at   34  1
       a = 14.750      CL =  0.7160
      Cm = -0.0197     CD =  0.17448   =>   CDf =  0.00461    CDp =  0.16987
 plradd ia,ip,cpol           49           0  3.18580447E-03

 Point added to stored polar  1
 Point written to save file  sc20012_Re150k.base.pol                         
 Dump file unspecified or not available
 Calculating wake trajectory ...
 Calculating source influence matrix ...

 Solving BL system ...

 Side 1  free  transition at x/c =  0.0734   34
 Side 2 forced transition at x/c =  1.0000   70

   1   rms: 0.5583E-01   max: -.1753E+00   T at   37  1   RLX: 0.459
       a = 15.000      CL =  0.7115
      Cm = -0.0227     CD =  0.17878   =>   CDf =  0.00461    CDp =  0.17417

 Side 1  free  transition at x/c =  0.0730   34
 Side 2 forced transition at x/c =  1.0000   70

   2   rms: 0.5562E-01   max: 0.1365E+00   D at   36  1
       a = 15.000      CL =  0.7030
      Cm = -0.0283     CD =  0.18621   =>   CDf =  0.00462    CDp =  0.18159

 Side 1  free  transition at x/c =  0.0716   34
 Side 2 forced transition at x/c =  1.0000   70

   3   rms: 0.3904E-01   max: 0.1722E+00   D at   35  1
       a = 15.000      CL =  0.6948
      Cm = -0.0302     CD =  0.18512   =>   CDf =  0.00464    CDp =  0.18048

 Side 1  free  transition at x/c =  0.0715   34
 Side 2 forced transition at x/c =  1.0000   70

   4   rms: 0.9669E-02   max: -.5970E-01   T at   34  1
       a = 15.000      CL =  0.6906
      Cm = -0.0295     CD =  0.18034   =>   CDf =  0.00466    CDp =  0.17568

 Side 1  free  transition at x/c =  0.0719   34
 Side 2 forced transition at x/c =  1.0000   70

   5   rms: 0.3176E-02   max: -.2091E-01   T at   34  1
       a = 15.000      CL =  0.6911
      Cm = -0.0292     CD =  0.17896   =>   CDf =  0.00467    CDp =  0.17429

 Side 1  free  transition at x/c =  0.0720   34
 Side 2 forced transition at x/c =  1.0000   70

   6   rms: 0.8208E-03   max: 0.6736E-02   T at   34  1
       a = 15.000      CL =  0.6913
      Cm = -0.0293     CD =  0.17919   =>   CDf =  0.00467    CDp =  0.17452

 Side 1  free  transition at x/c =  0.0719   34
 Side 2 forced transition at x/c =  1.0000   70

   7   rms: 0.6559E-04   max: -.5360E-03   T at   34  1
       a = 15.000      CL =  0.6913
      Cm = -0.0293     CD =  0.17921   =>   CDf =  0.00467    CDp =  0.17454
 plradd ia,ip,cpol           50           0  2.07471359E-03

 Point added to stored polar  1
 Point written to save file  sc20012_Re150k.base.pol                         
 Dump file unspecified or not available
 Calculating wake trajectory ...
 Calculating source influence matrix ...

 Solving BL system ...

 Side 1  free  transition at x/c =  0.0719   34
 Side 2 forced transition at x/c =  1.0000   70

   1   rms: 0.1032E+00   max: 0.8157E+00   T at   34  1   RLX: 0.435
       a = 15.250      CL =  0.6847
      Cm = -0.0330     CD =  0.18321   =>   CDf =  0.00467    CDp =  0.17854

 Side 1  free  transition at x/c =  0.0699   34
 Side 2 forced transition at x/c =  1.0000   70

   2   rms: 0.2293E-01   max: -.1314E+00   D at   35  1
       a = 15.250      CL =  0.6859
      Cm = -0.0324     CD =  0.17962   =>   CDf =  0.00469    CDp =  0.17493

 Side 1  free  transition at x/c =  0.0695   34
 Side 2 forced transition at x/c =  1.0000   70

   3   rms: 0.8885E-02   max: -.3643E-01   D at   90  2
       a = 15.250      CL =  0.6918
      Cm = -0.0326     CD =  0.18221   =>   CDf =  0.00469    CDp =  0.17752

 Side 1  free  transition at x/c =  0.0692   34
 Side 2 forced transition at x/c =  1.0000   70

   4   rms: 0.4840E-03   max: -.5688E-02   D at   90  2
       a = 15.250      CL =  0.6919
      Cm = -0.0326     CD =  0.18292   =>   CDf =  0.00468    CDp =  0.17824

 Side 1  free  transition at x/c =  0.0692   34
 Side 2 forced transition at x/c =  1.0000   70

   5   rms: 0.8471E-05   max: -.1020E-03   D at   91  2
       a = 15.250      CL =  0.6919
      Cm = -0.0326     CD =  0.18293   =>   CDf =  0.00468    CDp =  0.17825
 plradd ia,ip,cpol           51           0  2.07471359E-03

 Point added to stored polar  1
 Point written to save file  sc20012_Re150k.base.pol                         
 Dump file unspecified or not available
 Calculating wake trajectory ...
 Calculating source influence matrix ...

 Solving BL system ...

 Side 1  free  transition at x/c =  0.0692   34
 Side 2 forced transition at x/c =  1.0000   70

   1   rms: 0.1845E-01   max: 0.2930E+00   T at   34  1   RLX: 0.433
       a = 15.500      CL =  0.6946
      Cm = -0.0335     CD =  0.18530   =>   CDf =  0.00468    CDp =  0.18061

 Side 1  free  transition at x/c =  0.0683   34
 Side 2 forced transition at x/c =  1.0000   70

   2   rms: 0.9749E-02   max: 0.1367E+00   T at   34  1
       a = 15.500      CL =  0.6989
      Cm = -0.0344     CD =  0.18721   =>   CDf =  0.00468    CDp =  0.18253

 Side 1  free  transition at x/c =  0.0673   34
 Side 2 forced transition at x/c =  1.0000   70

   3   rms: 0.1820E-02   max: -.1215E-01   D at   35  1
       a = 15.500      CL =  0.6983
      Cm = -0.0343     CD =  0.18614   =>   CDf =  0.00468    CDp =  0.18145

 Side 1  free  transition at x/c =  0.0674   34
 Side 2 forced transition at x/c =  1.0000   70

   4   rms: 0.5983E-03   max: -.2361E-02   D at   90  2
       a = 15.500      CL =  0.6987
      Cm = -0.0343     CD =  0.18627   =>   CDf =  0.00468    CDp =  0.18159

 Side 1  free  transition at x/c =  0.0674   34
 Side 2 forced transition at x/c =  1.0000   70

   5   rms: 0.3472E-04   max: -.3902E-03   D at   91  2
       a = 15.500      CL =  0.6987
      Cm = -0.0343     CD =  0.18634   =>   CDf =  0.00468    CDp =  0.18165
 plradd ia,ip,cpol           52           0  2.07471359E-03

 Point added to stored polar  1
 Point written to save file  sc20012_Re150k.base.pol                         
 Dump file unspecified or not available
 Calculating wake trajectory ...
 Calculating source influence matrix ...

 Solving BL system ...

 Side 1  free  transition at x/c =  0.0674   34
 Side 2 forced transition at x/c =  1.0000   70

   1   rms: 0.1974E-01   max: 0.2506E+00   T at   34  1   RLX: 0.425
       a = 15.750      CL =  0.7021
      Cm = -0.0350     CD =  0.18833   =>   CDf =  0.00468    CDp =  0.18364

 Side 1  free  transition at x/c =  0.0667   34
 Side 2 forced transition at x/c =  1.0000   70

   2   rms: 0.1203E-01   max: 0.1366E+00   T at   34  1
       a = 15.750      CL =  0.7076
      Cm = -0.0356     CD =  0.19014   =>   CDf =  0.00468    CDp =  0.18546

 Side 1  free  transition at x/c =  0.0659   34
 Side 2 forced transition at x/c =  1.0000   70

   3   rms: 0.2732E-02   max: -.1901E-01   D at   34  1
       a = 15.750      CL =  0.7070
      Cm = -0.0355     CD =  0.18917   =>   CDf =  0.00468    CDp =  0.18449

 Side 1  free  transition at x/c =  0.0660   34
 Side 2 forced transition at x/c =  1.0000   70

   4   rms: 0.9435E-03   max: -.3732E-02   D at   90  2
       a = 15.750      CL =  0.7076
      Cm = -0.0355     CD =  0.18944   =>   CDf =  0.00468    CDp =  0.18476

 Side 1  free  transition at x/c =  0.0659   34
 Side 2 forced transition at x/c =  1.0000   70

   5   rms: 0.5315E-04   max: -.5620E-03   D at   91  2
       a = 15.750      CL =  0.7076
      Cm = -0.0355     CD =  0.18954   =>   CDf =  0.00468    CDp =  0.18486
 plradd ia,ip,cpol           53           0  2.07471359E-03

 Point added to stored polar  1
 Point written to save file  sc20012_Re150k.base.pol                         
 Dump file unspecified or not available
 Calculating wake trajectory ...
 Calculating source influence matrix ...

 Solving BL system ...

 Side 1  free  transition at x/c =  0.0659   34
 Side 2 forced transition at x/c =  1.0000   70

   1   rms: 0.2587E-01   max: 0.2569E+00   T at   34  1   RLX: 0.418
       a = 16.000      CL =  0.7117
      Cm = -0.0358     CD =  0.19129   =>   CDf =  0.00468    CDp =  0.18660

 Side 1  free  transition at x/c =  0.0654   34
 Side 2 forced transition at x/c =  1.0000   70

   2   rms: 0.1701E-01   max: 0.1478E+00   T at   34  1
       a = 16.000      CL =  0.7187
      Cm = -0.0360     CD =  0.19289   =>   CDf =  0.00453    CDp =  0.18835

 Side 1  free  transition at x/c =  0.0648   35
 Side 2 forced transition at x/c =  1.0000   69

   3   rms: 0.5368E-02   max: -.3032E-01   D at   35  1
       a = 16.000      CL =  0.7185
      Cm = -0.0358     CD =  0.19190   =>   CDf =  0.00467    CDp =  0.18723

 Side 1  free  transition at x/c =  0.0649   35
 Side 2 forced transition at x/c =  1.0000   69

   4   rms: 0.2021E-02   max: -.1047E-01   D at    4  1
       a = 16.000      CL =  0.7196
      Cm = -0.0358     CD =  0.19262   =>   CDf =  0.00467    CDp =  0.18795

 Side 1  free  transition at x/c =  0.0649   35
 Side 2 forced transition at x/c =  1.0000   69

   5   rms: 0.1187E-03   max: -.1235E-02   D at   90  2
       a = 16.000      CL =  0.7196
      Cm = -0.0358     CD =  0.19280   =>   CDf =  0.00466    CDp =  0.18814

 Side 1  free  transition at x/c =  0.0649   35
 Side 2 forced transition at x/c =  1.0000   69

   6   rms: 0.4822E-05   max: 0.3690E-04   D at    4  1
       a = 16.000      CL =  0.7196
      Cm = -0.0358     CD =  0.19281   =>   CDf =  0.00466    CDp =  0.18814
 plradd ia,ip,cpol           54           0  2.07471359E-03

 Point added to stored polar  1
 Point written to save file  sc20012_Re150k.base.pol                         
 Dump file unspecified or not available

.OPERva   c>  
 Polar accumulation disabled

.OPERv   c>  
 XFOIL   c>  
 XFOIL   c>  