
 ===================================================
  XFOIL Version 6.99
  Copyright (C) 2000   Mark Drela, Harold Youngren

  This software comes with ABSOLUTELY NO WARRANTY,
    subject to the GNU General Public License.

  Caveat computor
 ===================================================

 File  xfoil.def  not found

   QUIT    Exit program

  .OPER    Direct operating point(s)
  .MDES    Complex mapping design routine
  .QDES    Surface speed design routine
  .GDES    Geometry design routine

   SAVE f  Write airfoil to labeled coordinate file
   PSAV f  Write airfoil to plain coordinate file
   ISAV f  Write airfoil to ISES coordinate file
   MSAV f  Write airfoil to MSES coordinate file
   REVE    Reverse written-airfoil node ordering

   LOAD f  Read buffer airfoil from coordinate file
   NACA i  Set NACA 4,5-digit airfoil and buffer airfoil
   INTE    Set buffer airfoil by interpolating two airfoils
   NORM    Buffer airfoil normalization toggle
   XYCM rr Change CM reference location, currently  0.25000 0.00000

   BEND    Display structural properties of current airfoil

   PCOP    Set current-airfoil panel nodes directly from buffer airfoil points
   PANE    Set current-airfoil panel nodes ( 160 ) based on curvature
  .PPAR    Show/change paneling

  .PLOP    Plotting options

   WDEF f  Write  current-settings file
   RDEF f  Reread current-settings file
   NAME s  Specify new airfoil name
   NINC    Increment name version number

   Z       Zoom    | (available in all menus)
   U       Unzoom  | 

 XFOIL   c>  
 Labeled airfoil file.  Name:  NASA SC(2)-0410 AIRFOIL                         

 Number of input coordinate points: 205
 Counterclockwise ordering
 Max thickness =     0.099700  at x =   0.380
 Max camber    =     0.011115  at x =   0.850

  LE  x,y  =   0.00000  -0.00001  |   Chord =   1.00000
  TE  x,y  =   1.00000   0.00075  |

 Current airfoil nodes set from buffer airfoil nodes ( 205 )

 XFOIL   c>  
 XFOIL   c>  
 Blunt trailing edge.  Gap =  0.00490

 Paneling parameters used...
   Number of panel nodes       160
   Panel bunching parameter    1.000
   TE/LE panel density ratio   0.150
   Refined-area/LE panel density ratio    0.200
   Top    side refined area x/c limits  1.000 1.000
   Bottom side refined area x/c limits  1.000 1.000

 XFOIL   c>  
.OPERi   c>  
 Xtr/c     =  1.0000    top    side
 Xtr/c     =  1.0000    bottom side
 Ncrit     =    9.00   ( 0.070 % turb. level )
 Vacc      =  0.0100

 Klag  =  5.6000     Uxwt  =    1.00
 A     =  6.7000     B     =  0.7500       KCt = 0.01485
 CtiniK=  1.8000     CtiniX=  3.3000

..VPAR   c>  
..VPAR   c>  
.OPERi   c>  
 M  =    0.0000
 Re =    500000

.OPERv   c>  
.OPERv   c>  
.OPERv   c>  
 Polar  1 newly created for accumulation
 Airfoil archived with polar: NASA SC(2)-0410 AIRFOIL                         

Enter  polar save filename  OR  <return> for no file   s>  
 New polar save file available

Enter  polar dump filename  OR  <return> for no file   s>  
 Polar dump file will NOT be written

 Polar accumulation enabled

.OPERva   c>   Calculating unit vorticity distributions ...
 Calculating wake trajectory ...
 Calculating source influence matrix ...

 Solving BL system ...

 Initializing BL ...
    side            1  ...
 MRCHUE: Inverse mode at  69     Hk =   3.800
 MRCHUE: Inverse mode at  71     Hk =   3.800
 MRCHUE: Inverse mode at  72     Hk =   4.252
 MRCHUE: Inverse mode at  73     Hk =   4.676
 MRCHUE: Inverse mode at  74     Hk =   5.059
 MRCHUE: Inverse mode at  75     Hk =   5.386
 MRCHUE: Inverse mode at  76     Hk =   5.570
    side            2  ...
 MRCHUE: Inverse mode at  22     Hk =   4.659
 MRCHUE: Inverse mode at  23     Hk =   6.053
 MRCHUE: Inverse mode at  24     Hk =   7.515
 MRCHUE: Inverse mode at  25     Hk =   9.042
 MRCHUE: Inverse mode at  26     Hk =   2.500
 MRCHUE: Inverse mode at  74     Hk =   2.500
 MRCHUE: Inverse mode at  75     Hk =   2.500
 MRCHUE: Inverse mode at  76     Hk =   2.500
 MRCHUE: Inverse mode at  77     Hk =   2.500
 MRCHUE: Inverse mode at  78     Hk =   2.500
 MRCHUE: Inverse mode at  79     Hk =   2.500
 MRCHUE: Inverse mode at  80     Hk =   2.500
 MRCHUE: Inverse mode at  81     Hk =   2.500
 MRCHUE: Inverse mode at  82     Hk =   2.500
 MRCHUE: Inverse mode at  83     Hk =   2.500
 MRCHUE: Inverse mode at  88     Hk =   2.196

 Side 1 forced transition at x/c =  1.0000   76
 Side 2  free  transition at x/c =  0.0877   26

   1   rms: 0.1568E+00   max: -.7530E+00   D at   83  2   RLX: 0.664
       a = -4.000      CL = -0.2564
      Cm = -0.0610     CD =  0.00869   =>   CDf =  0.00625    CDp =  0.00244

 Side 1 forced transition at x/c =  1.0000   76
 Side 2  free  transition at x/c =  0.1141   27

   2   rms: 0.1050E+00   max: 0.1381E+01   C at   27  2
       a = -4.000      CL = -0.3258
      Cm = -0.0441     CD =  0.00992   =>   CDf =  0.00619    CDp =  0.00373

 Side 1 forced transition at x/c =  1.0000   76
 Side 2  free  transition at x/c =  0.1097   27

   3   rms: 0.4210E-01   max: 0.6492E+00   C at   27  2
       a = -4.000      CL = -0.3405
      Cm = -0.0409     CD =  0.01025   =>   CDf =  0.00625    CDp =  0.00400

 Side 1 forced transition at x/c =  1.0000   76
 Side 2  free  transition at x/c =  0.0979   26

   4   rms: 0.5982E-02   max: -.8209E-01   D at   26  2
       a = -4.000      CL = -0.3406
      Cm = -0.0409     CD =  0.01026   =>   CDf =  0.00632    CDp =  0.00394

 Side 1 forced transition at x/c =  1.0000   76
 Side 2  free  transition at x/c =  0.0974   26

   5   rms: 0.3211E-03   max: 0.5541E-02   C at   26  2
       a = -4.000      CL = -0.3407
      Cm = -0.0409     CD =  0.01027   =>   CDf =  0.00632    CDp =  0.00394

 Side 1 forced transition at x/c =  1.0000   76
 Side 2  free  transition at x/c =  0.0973   26

   6   rms: 0.2707E-05   max: -.1879E-04   C at   26  2
       a = -4.000      CL = -0.3407
      Cm = -0.0409     CD =  0.01027   =>   CDf =  0.00632    CDp =  0.00394
 plradd ia,ip,cpol            1           0  7.10707065E-03

 Point added to stored polar  1
 Point written to save file  sc20410_Re500k.base.pol                         
 Dump file unspecified or not available
 Calculating wake trajectory ...
 Calculating source influence matrix ...

 Solving BL system ...

 Side 1 forced transition at x/c =  1.0000   76
 Side 2  free  transition at x/c =  0.0973   26

   1   rms: 0.1090E+00   max: -.8223E+00   C at   26  2   RLX: 0.608
       a = -3.500      CL = -0.3058
      Cm = -0.0416     CD =  0.00995   =>   CDf =  0.00632    CDp =  0.00362

 Side 1 forced transition at x/c =  1.0000   76
 Side 2  free  transition at x/c =  0.1264   28

   2   rms: 0.1349E+00   max: -.2878E+01   C at   28  2   RLX: 0.174
       a = -3.500      CL = -0.3011
      Cm = -0.0420     CD =  0.00982   =>   CDf =  0.00618    CDp =  0.00364

 Side 1 forced transition at x/c =  1.0000   76
 Side 2  free  transition at x/c =  0.1298   28

   3   rms: 0.4165E-01   max: -.3762E+00   T at   28  2
       a = -3.500      CL = -0.2815
      Cm = -0.0424     CD =  0.00975   =>   CDf =  0.00619    CDp =  0.00356

 Side 1 forced transition at x/c =  1.0000   76
 Side 2  free  transition at x/c =  0.2006   33

   4   rms: 0.1382E+00   max: -.2833E+01   C at   33  2   RLX: 0.176
       a = -3.500      CL = -0.2852
      Cm = -0.0436     CD =  0.00931   =>   CDf =  0.00589    CDp =  0.00342

 Side 1 forced transition at x/c =  1.0000   76
 Side 2  free  transition at x/c =  0.2077   33

   5   rms: 0.6602E-01   max: -.1377E+01   C at   33  2   RLX: 0.363
       a = -3.500      CL = -0.2803
      Cm = -0.0440     CD =  0.00928   =>   CDf =  0.00585    CDp =  0.00342

 Side 1 forced transition at x/c =  1.0000   76
 Side 2  free  transition at x/c =  0.2310   35

   6   rms: 0.1020E+00   max: -.2160E+01   C at   35  2   RLX: 0.231
       a = -3.500      CL = -0.2778
      Cm = -0.0446     CD =  0.00907   =>   CDf =  0.00571    CDp =  0.00337

 Side 1 forced transition at x/c =  1.0000   76
 Side 2  free  transition at x/c =  0.2398   36

   7   rms: 0.5799E-01   max: -.1137E+01   C at   36  2   RLX: 0.440
       a = -3.500      CL = -0.2739
      Cm = -0.0452     CD =  0.00897   =>   CDf =  0.00565    CDp =  0.00332

 Side 1 forced transition at x/c =  1.0000   76
 Side 2  free  transition at x/c =  0.2545   36

   8   rms: 0.2484E-01   max: -.5194E+00   C at   36  2   RLX: 0.963
       a = -3.500      CL = -0.2709
      Cm = -0.0455     CD =  0.00892   =>   CDf =  0.00558    CDp =  0.00335

 Side 1 forced transition at x/c =  1.0000   76
 Side 2  free  transition at x/c =  0.2561   37

   9   rms: 0.2246E-02   max: -.2900E-01   D at   36  2
       a = -3.500      CL = -0.2717
      Cm = -0.0453     CD =  0.00899   =>   CDf =  0.00557    CDp =  0.00343

 Side 1 forced transition at x/c =  1.0000   76
 Side 2  free  transition at x/c =  0.2544   36

  10   rms: 0.1016E-03   max: 0.1977E-02   C at   36  2
       a = -3.500      CL = -0.2717
      Cm = -0.0453     CD =  0.00900   =>   CDf =  0.00557    CDp =  0.00342

 Side 1 forced transition at x/c =  1.0000   76
 Side 2  free  transition at x/c =  0.2543   36

  11   rms: 0.1951E-05   max: 0.3925E-04   C at   36  2
       a = -3.500      CL = -0.2717
      Cm = -0.0453     CD =  0.00900   =>   CDf =  0.00557    CDp =  0.00342
 plradd ia,ip,cpol            2           0  7.10707065E-03

 Point added to stored polar  1
 Point written to save file  sc20410_Re500k.base.pol                         
 Dump file unspecified or not available
 Calculating wake trajectory ...
 Calculating source influence matrix ...

 Solving BL system ...

 Side 1 forced transition at x/c =  1.0000   76
 Side 2  free  transition at x/c =  0.2543   36

   1   rms: 0.5821E+00   max: -.1240E+02   C at   36  2   RLX: 0.040
       a = -3.000      CL = -0.2686
      Cm = -0.0456     CD =  0.00892   =>   CDf =  0.00557    CDp =  0.00335

 Side 1 forced transition at x/c =  1.0000   76
 Side 2  free  transition at x/c =  0.2680   37

   2   rms: 0.4690E+00   max: -.9912E+01   C at   37  2   RLX: 0.050
       a = -3.000      CL = -0.2649
      Cm = -0.0459     CD =  0.00884   =>   CDf =  0.00552    CDp =  0.00332

 Side 1 forced transition at x/c =  1.0000   76
 Side 2  free  transition at x/c =  0.2857   38

   3   rms: 0.4459E+00   max: -.9319E+01   C at   38  2   RLX: 0.054
       a = -3.000      CL = -0.2613
      Cm = -0.0462     CD =  0.00873   =>   CDf =  0.00544    CDp =  0.00329

 Side 1 forced transition at x/c =  1.0000   76
 Side 2  free  transition at x/c =  0.3042   40

   4   rms: 0.5067E+00   max: -.1012E+02   C at   40  2   RLX: 0.049
       a = -3.000      CL = -0.2576
      Cm = -0.0466     CD =  0.00858   =>   CDf =  0.00537    CDp =  0.00321

 Side 1 forced transition at x/c =  1.0000   76
 Side 2  free  transition at x/c =  0.3167   40

   5   rms: 0.3387E+00   max: -.6911E+01   C at   40  2   RLX: 0.072
       a = -3.000      CL = -0.2526
      Cm = -0.0470     CD =  0.00854   =>   CDf =  0.00532    CDp =  0.00322

 Side 1 forced transition at x/c =  1.0000   76
 Side 2  free  transition at x/c =  0.3348   42

   6   rms: 0.4403E+00   max: -.8440E+01   C at   42  2   RLX: 0.059
       a = -3.000      CL = -0.2483
      Cm = -0.0476     CD =  0.00838   =>   CDf =  0.00525    CDp =  0.00313

 Side 1 forced transition at x/c =  1.0000   76
 Side 2  free  transition at x/c =  0.3481   42

   7   rms: 0.5199E+00   max: -.1055E+02   C at   42  2   RLX: 0.047
       a = -3.000      CL = -0.2448
      Cm = -0.0480     CD =  0.00833   =>   CDf =  0.00518    CDp =  0.00314

 Side 1 forced transition at x/c =  1.0000   76
 Side 2  free  transition at x/c =  0.3575   43

   8   rms: 0.3883E+00   max: -.7889E+01   C at   43  2   RLX: 0.063
       a = -3.000      CL = -0.2407
      Cm = -0.0484     CD =  0.00826   =>   CDf =  0.00515    CDp =  0.00311

 Side 1 forced transition at x/c =  1.0000   76
 Side 2  free  transition at x/c =  0.3721   44

   9   rms: 0.5166E+00   max: -.1050E+02   C at   44  2   RLX: 0.048
       a = -3.000      CL = -0.2374
      Cm = -0.0488     CD =  0.00816   =>   CDf =  0.00507    CDp =  0.00309

 Side 1 forced transition at x/c =  1.0000   77
 Side 2  free  transition at x/c =  0.3841   44

  10   rms: 0.4900E+00   max: -.9712E+01   C at   44  2   RLX: 0.051
       a = -3.000      CL = -0.2338
      Cm = -0.0493     CD =  0.00807   =>   CDf =  0.00504    CDp =  0.00303

 Side 1 forced transition at x/c =  1.0000   77
 Side 2  free  transition at x/c =  0.3977   45

  11   rms: 0.5008E+00   max: -.9847E+01   C at   45  2   RLX: 0.051
       a = -3.000      CL = -0.2301
      Cm = -0.0499     CD =  0.00798   =>   CDf =  0.00499    CDp =  0.00300

 Side 1 forced transition at x/c =  1.0000   77
 Side 2  free  transition at x/c =  0.4111   45

  12   rms: 0.5903E+00   max: -.1163E+02   C at   45  2   RLX: 0.043
       a = -3.000      CL = -0.2274
      Cm = -0.0503     CD =  0.00793   =>   CDf =  0.00492    CDp =  0.00300

 Side 1 forced transition at x/c =  1.0000   77
 Side 2  free  transition at x/c =  0.4226   46

  13   rms: 0.4781E+00   max: -.9460E+01   C at   46  2   RLX: 0.053
       a = -3.000      CL = -0.2243
      Cm = -0.0507     CD =  0.00785   =>   CDf =  0.00488    CDp =  0.00297

 Side 1 forced transition at x/c =  1.0000   77
 Side 2  free  transition at x/c =  0.4387   47

  14   rms: 0.5920E+00   max: -.1160E+02   C at   47  2   RLX: 0.043
       a = -3.000      CL = -0.2218
      Cm = -0.0510     CD =  0.00775   =>   CDf =  0.00481    CDp =  0.00294

 Side 1 forced transition at x/c =  1.0000   77
 Side 2  free  transition at x/c =  0.4533   48

  15   rms: 0.5919E+00   max: -.1158E+02   C at   48  2   RLX: 0.043
       a = -3.000      CL = -0.2192
      Cm = -0.0514     CD =  0.00766   =>   CDf =  0.00475    CDp =  0.00292

 Side 1 forced transition at x/c =  1.0000   77
 Side 2  free  transition at x/c =  0.4684   49

  16   rms: 0.3665E+00   max: -.7163E+01   C at   49  2   RLX: 0.070
       a = -3.000      CL = -0.2160
      Cm = -0.0518     CD =  0.00759   =>   CDf =  0.00469    CDp =  0.00289

 Side 1 forced transition at x/c =  1.0000   77
 Side 2  free  transition at x/c =  0.4912   51

  17   rms: 0.5381E+00   max: -.1055E+02   C at   51  2   RLX: 0.047
       a = -3.000      CL = -0.2136
      Cm = -0.0522     CD =  0.00746   =>   CDf =  0.00459    CDp =  0.00286

 Side 1 forced transition at x/c =  1.0000   77
 Side 2  free  transition at x/c =  0.5051   51

  18   rms: 0.4287E+00   max: -.8149E+01   C at   51  2   RLX: 0.061
       a = -3.000      CL = -0.2108
      Cm = -0.0525     CD =  0.00741   =>   CDf =  0.00453    CDp =  0.00288

 Side 1 forced transition at x/c =  1.0000   77
 Side 2  free  transition at x/c =  0.5218   53

  19   rms: 0.3762E+00   max: -.7334E+01   C at   53  2   RLX: 0.068
       a = -3.000      CL = -0.2082
      Cm = -0.0528     CD =  0.00733   =>   CDf =  0.00446    CDp =  0.00287

 Side 1 forced transition at x/c =  1.0000   77
 Side 2  free  transition at x/c =  0.5358   53

  20   rms: 0.2489E+00   max: -.4715E+01   C at   53  2   RLX: 0.106
       a = -3.000      CL = -0.2051
      Cm = -0.0531     CD =  0.00731   =>   CDf =  0.00440    CDp =  0.00291

 Side 1 forced transition at x/c =  1.0000   77
 Side 2  free  transition at x/c =  0.5564   55

  21   rms: 0.1593E+00   max: -.2991E+01   C at   55  2   RLX: 0.167
       a = -3.000      CL = -0.2020
      Cm = -0.0531     CD =  0.00727   =>   CDf =  0.00431    CDp =  0.00296

 Side 1 forced transition at x/c =  1.0000   77
 Side 2  free  transition at x/c =  0.5702   56

  22   rms: 0.7230E-01   max: -.1238E+01   C at   56  2   RLX: 0.404
       a = -3.000      CL = -0.1956
      Cm = -0.0533     CD =  0.00725   =>   CDf =  0.00427    CDp =  0.00298

 Side 1 forced transition at x/c =  1.0000   77
 Side 2  free  transition at x/c =  0.5827   57

  23   rms: 0.4067E-01   max: -.6316E+00   C at   57  2   RLX: 0.792
       a = -3.000      CL = -0.1891
      Cm = -0.0533     CD =  0.00722   =>   CDf =  0.00429    CDp =  0.00293

 Side 1 forced transition at x/c =  1.0000   77
 Side 2  free  transition at x/c =  0.5971   57

  24   rms: 0.1343E-01   max: -.1732E+00   C at   57  2
       a = -3.000      CL = -0.1890
      Cm = -0.0529     CD =  0.00731   =>   CDf =  0.00430    CDp =  0.00301

 Side 1 forced transition at x/c =  1.0000   77
 Side 2  free  transition at x/c =  0.6202   59

  25   rms: 0.2446E-01   max: 0.3781E+00   C at   59  2
       a = -3.000      CL = -0.1886
      Cm = -0.0529     CD =  0.00726   =>   CDf =  0.00410    CDp =  0.00317

 Side 1 forced transition at x/c =  1.0000   77
 Side 2  free  transition at x/c =  0.6088   58

  26   rms: 0.1943E-02   max: -.2185E-01   D at   62  2
       a = -3.000      CL = -0.1891
      Cm = -0.0528     CD =  0.00731   =>   CDf =  0.00418    CDp =  0.00312

 Side 1 forced transition at x/c =  1.0000   77
 Side 2  free  transition at x/c =  0.6081   58

  27   rms: 0.3425E-04   max: -.4338E-03   C at   58  2
       a = -3.000      CL = -0.1891
      Cm = -0.0528     CD =  0.00731   =>   CDf =  0.00418    CDp =  0.00313
 plradd ia,ip,cpol            3           0  7.10707065E-03

 Point added to stored polar  1
 Point written to save file  sc20410_Re500k.base.pol                         
 Dump file unspecified or not available
 Calculating wake trajectory ...
 Calculating source influence matrix ...

 Solving BL system ...

 Side 1 forced transition at x/c =  1.0000   77
 Side 2  free  transition at x/c =  0.6081   58

   1   rms: 0.1019E+00   max: 0.4641E+00   D at   59  2
       a = -2.500      CL = -0.1330
      Cm = -0.0530     CD =  0.00750   =>   CDf =  0.00416    CDp =  0.00335

 MRCHDU: Convergence failed at  61  side 2    Res =  0.1761E+01
 Side 1 forced transition at x/c =  1.0000   78
 Side 2  free  transition at x/c =  0.6685   61

   2   rms: 0.3080E-01   max: -.3828E+00   C at   61  2
       a = -2.500      CL = -0.1359
      Cm = -0.0523     CD =  0.00752   =>   CDf =  0.00413    CDp =  0.00339

 Side 1  free  transition at x/c =  0.9980   78
 Side 2  free  transition at x/c =  0.6538   60

   3   rms: 0.1177E-01   max: 0.8902E-01   D at   63  2
       a = -2.500      CL = -0.1325
      Cm = -0.0531     CD =  0.00756   =>   CDf =  0.00416    CDp =  0.00339

 Side 1  free  transition at x/c =  0.9995   78
 Side 2  free  transition at x/c =  0.6553   60

   4   rms: 0.5291E-03   max: -.5671E-02   D at   63  2
       a = -2.500      CL = -0.1326
      Cm = -0.0531     CD =  0.00756   =>   CDf =  0.00414    CDp =  0.00342

 Side 1  free  transition at x/c =  0.9994   78
 Side 2  free  transition at x/c =  0.6551   60

   5   rms: 0.3026E-05   max: -.3029E-04   D at   88  2
       a = -2.500      CL = -0.1326
      Cm = -0.0531     CD =  0.00756   =>   CDf =  0.00414    CDp =  0.00342
 plradd ia,ip,cpol            4           0  1.90637931E-02

 Point added to stored polar  1
 Point written to save file  sc20410_Re500k.base.pol                         
 Dump file unspecified or not available
 Calculating wake trajectory ...
 Calculating source influence matrix ...

 Solving BL system ...

 Side 1  free  transition at x/c =  0.9994   78
 Side 2  free  transition at x/c =  0.6551   60

   1   rms: 0.1096E+00   max: 0.5158E+00   C at   60  2
       a = -2.000      CL = -0.0566
      Cm = -0.0575     CD =  0.00768   =>   CDf =  0.00414    CDp =  0.00353

 MRCHDU: Convergence failed at  63  side 2    Res =  0.3433E+01
 MRCHDU: Convergence failed at  64  side 2    Res =  0.6204E+01
 MRCHDU: Convergence failed at  65  side 2    Res =  0.4015E+01
 MRCHDU: Convergence failed at  66  side 2    Res =  0.3798E+01
 MRCHDU: Convergence failed at  67  side 2    Res =  0.4714E+01
 MRCHDU: Convergence failed at  68  side 2    Res =  0.6124E+01
 MRCHDU: Convergence failed at  69  side 2    Res =  0.7850E+01
 MRCHDU: Convergence failed at  70  side 2    Res =  0.9883E+01
 MRCHDU: Convergence failed at  71  side 2    Res =  0.1232E+02
 MRCHDU: Convergence failed at  72  side 2    Res =  0.1755E+02
 MRCHDU: Convergence failed at  73  side 2    Res =  0.2512E+02
 MRCHDU: Convergence failed at  74  side 2    Res =  0.4743E+02
 MRCHDU: Convergence failed at  75  side 2    Res =  0.1082E+03
 MRCHDU: Convergence failed at  76  side 2    Res =  0.3397E+03
 MRCHDU: Convergence failed at  77  side 2    Res =  0.1516E+03
 MRCHDU: Convergence failed at  78  side 2    Res =  0.1938E+03
 MRCHDU: Convergence failed at  79  side 2    Res =  0.1505E+04
 MRCHDU: Convergence failed at  80  side 2    Res =  0.1090E+03
 MRCHDU: Convergence failed at  81  side 2    Res =  0.4634E+02
 MRCHDU: Convergence failed at  82  side 2    Res =  0.1906E+02
 MRCHDU: Convergence failed at  83  side 2    Res =  0.1074E+02
 MRCHDU: Convergence failed at  84  side 2    Res =  0.1618E+02
 Side 1  free  transition at x/c =  0.9915   77
 Side 2  free  transition at x/c =  0.6860   62

   2   rms: 0.2383E+00   max: -.1647E+01   C at   62  2   RLX: 0.304
       a = -2.000      CL = -0.1660
      Cm = -0.0013     CD =  0.00685   =>   CDf =  0.00333    CDp =  0.00352

 MRCHDU: Convergence failed at  70  side 2    Res =  0.1388E+02
 Side 1  free  transition at x/c =  0.9882   77
 Side 2  free  transition at x/c =  0.6676   61

   3   rms: 0.1805E+00   max: -.6405E+00   D at   81  2   RLX: 0.593
       a = -2.000      CL = -0.0727
      Cm = -0.0466     CD =  0.00881   =>   CDf =  0.00430    CDp =  0.00451

 Side 1  free  transition at x/c =  0.9915   77
 Side 2  free  transition at x/c =  0.6828   62

   4   rms: 0.1836E+00   max: -.1458E+01   D at   78  2   RLX: 0.343
       a = -2.000      CL = -0.0525
      Cm = -0.0536     CD =  0.00762   =>   CDf =  0.00402    CDp =  0.00360

 MRCHDU: Convergence failed at  75  side 2    Res =  0.3898E+02
 MRCHDU: Convergence failed at  76  side 2    Res =  0.3837E+00
 MRCHDU: Convergence failed at  77  side 2    Res =  0.6903E+00
 MRCHDU: Convergence failed at  78  side 2    Res =  0.2088E+01
 MRCHDU: Convergence failed at  79  side 2    Res =  0.6769E+00
 Side 1  free  transition at x/c =  0.9954   79
 Side 2  free  transition at x/c =  0.6860   61
 idif Ue xi dudx           1  0.18756516      1.99508667E-03   94.013542    
 Uenew xinew           2  9.72792599E-03  1.03473663E-04

   5   rms: 0.1104E+00   max: -.1636E+00   C at   83  2   RLX: 0.712
       a = -2.000      CL = -0.0616
      Cm = -0.0512     CD =  0.00750   =>   CDf =  0.00451    CDp =  0.00299

 Side 1  free  transition at x/c =  0.9948   78
 Side 2  free  transition at x/c =  0.6848   62

   6   rms: 0.4663E-01   max: -.4632E+00   D at   73  2
       a = -2.000      CL = -0.0565
      Cm = -0.0573     CD =  0.00765   =>   CDf =  0.00419    CDp =  0.00346

 Side 1  free  transition at x/c =  0.9941   78
 Side 2  free  transition at x/c =  0.6816   62

   7   rms: 0.7852E-02   max: -.1139E+00   D at   73  2
       a = -2.000      CL = -0.0572
      Cm = -0.0570     CD =  0.00768   =>   CDf =  0.00411    CDp =  0.00357

 Side 1  free  transition at x/c =  0.9940   78
 Side 2  free  transition at x/c =  0.6812   62

   8   rms: 0.2899E-03   max: -.5008E-02   D at   73  2
       a = -2.000      CL = -0.0572
      Cm = -0.0570     CD =  0.00768   =>   CDf =  0.00412    CDp =  0.00357

 Side 1  free  transition at x/c =  0.9940   78
 Side 2  free  transition at x/c =  0.6811   62

   9   rms: 0.9478E-06   max: -.8201E-05   D at   73  2
       a = -2.000      CL = -0.0572
      Cm = -0.0570     CD =  0.00768   =>   CDf =  0.00412    CDp =  0.00357
 plradd ia,ip,cpol            5           0  1.90637931E-02

 Point added to stored polar  1
 Point written to save file  sc20410_Re500k.base.pol                         
 Dump file unspecified or not available
 Calculating wake trajectory ...
 Calculating source influence matrix ...

 Solving BL system ...

 Side 1  free  transition at x/c =  0.9940   78
 Side 2  free  transition at x/c =  0.6811   62

   1   rms: 0.1083E+00   max: -.4227E+00   T at   62  2
       a = -1.500      CL =  0.0218
      Cm = -0.0617     CD =  0.00782   =>   CDf =  0.00407    CDp =  0.00375

 Side 1  free  transition at x/c =  0.9867   78
 Side 2  free  transition at x/c =  0.6989   62

   2   rms: 0.1617E-01   max: -.1712E+00   D at   78  1
       a = -1.500      CL =  0.0186
      Cm = -0.0610     CD =  0.00770   =>   CDf =  0.00408    CDp =  0.00362

 Side 1  free  transition at x/c =  0.9854   78
 Side 2  free  transition at x/c =  0.6997   62

   3   rms: 0.1807E-02   max: -.1318E-01   D at   79  1
       a = -1.500      CL =  0.0189
      Cm = -0.0610     CD =  0.00770   =>   CDf =  0.00409    CDp =  0.00361

 Side 1  free  transition at x/c =  0.9857   78
 Side 2  free  transition at x/c =  0.6996   62

   4   rms: 0.2066E-04   max: -.1926E-03   D at   78  1
       a = -1.500      CL =  0.0189
      Cm = -0.0610     CD =  0.00770   =>   CDf =  0.00408    CDp =  0.00362
 plradd ia,ip,cpol            6           0  2.33222805E-02

 Point added to stored polar  1
 Point written to save file  sc20410_Re500k.base.pol                         
 Dump file unspecified or not available
 Calculating wake trajectory ...
 Calculating source influence matrix ...

 Solving BL system ...

 Side 1  free  transition at x/c =  0.9857   78
 Side 2  free  transition at x/c =  0.6996   62

   1   rms: 0.1217E+00   max: -.5974E+00   T at   62  2   RLX: 0.837
       a = -1.000      CL =  0.0880
      Cm = -0.0653     CD =  0.00783   =>   CDf =  0.00404    CDp =  0.00379

 Side 1  free  transition at x/c =  0.9756   78
 Side 2  free  transition at x/c =  0.7166   62

   2   rms: 0.3298E-01   max: 0.3045E+00   D at   63  2
       a = -1.000      CL =  0.0988
      Cm = -0.0653     CD =  0.00767   =>   CDf =  0.00400    CDp =  0.00367

 Side 1  free  transition at x/c =  0.9759   78
 Side 2  free  transition at x/c =  0.7189   62

   3   rms: 0.1909E-02   max: 0.1362E-01   D at   80  1
       a = -1.000      CL =  0.0987
      Cm = -0.0653     CD =  0.00771   =>   CDf =  0.00402    CDp =  0.00369

 Side 1  free  transition at x/c =  0.9756   78
 Side 2  free  transition at x/c =  0.7191   62

   4   rms: 0.2159E-04   max: 0.1669E-03   D at   63  2
       a = -1.000      CL =  0.0987
      Cm = -0.0653     CD =  0.00771   =>   CDf =  0.00401    CDp =  0.00369
 plradd ia,ip,cpol            7           0  2.33222805E-02

 Point added to stored polar  1
 Point written to save file  sc20410_Re500k.base.pol                         
 Dump file unspecified or not available
 Calculating wake trajectory ...
 Calculating source influence matrix ...

 Solving BL system ...

 Side 1  free  transition at x/c =  0.9756   78
 Side 2  free  transition at x/c =  0.7191   62

   1   rms: 0.1166E+00   max: -.4578E+00   T at   62  2
       a = -0.500      CL =  0.1866
      Cm = -0.0717     CD =  0.00756   =>   CDf =  0.00396    CDp =  0.00360

 Side 1  free  transition at x/c =  0.9679   78
 Side 2  free  transition at x/c =  0.7296   62

   2   rms: 0.3659E-01   max: 0.2476E+00   D at   62  2
       a = -0.500      CL =  0.1719
      Cm = -0.0683     CD =  0.00751   =>   CDf =  0.00395    CDp =  0.00356

 Side 1  free  transition at x/c =  0.9579   78
 Side 2  free  transition at x/c =  0.7283   62

   3   rms: 0.1110E-01   max: -.9403E-01   D at   79  1
       a = -0.500      CL =  0.1747
      Cm = -0.0689     CD =  0.00750   =>   CDf =  0.00395    CDp =  0.00355

 Side 1  free  transition at x/c =  0.9609   78
 Side 2  free  transition at x/c =  0.7281   62

   4   rms: 0.1181E-02   max: -.8646E-02   D at   84  2
       a = -0.500      CL =  0.1739
      Cm = -0.0687     CD =  0.00751   =>   CDf =  0.00395    CDp =  0.00357

 Side 1  free  transition at x/c =  0.9605   78
 Side 2  free  transition at x/c =  0.7281   62

   5   rms: 0.3683E-04   max: -.3261E-03   C at   78  1
       a = -0.500      CL =  0.1739
      Cm = -0.0687     CD =  0.00751   =>   CDf =  0.00395    CDp =  0.00357
 plradd ia,ip,cpol            8           0  2.60244422E-02

 Point added to stored polar  1
 Point written to save file  sc20410_Re500k.base.pol                         
 Dump file unspecified or not available
 Calculating wake trajectory ...
 Calculating source influence matrix ...

 Solving BL system ...

 Side 1  free  transition at x/c =  0.9605   78
 Side 2  free  transition at x/c =  0.7281   62

   1   rms: 0.1056E+00   max: -.3048E+00   T at   62  2
       a =  0.000      CL =  0.2459
      Cm = -0.0712     CD =  0.00743   =>   CDf =  0.00389    CDp =  0.00354

 Side 1  free  transition at x/c =  0.9253   76
 Side 2  free  transition at x/c =  0.7351   61

   2   rms: 0.3806E-01   max: 0.3479E+00   D at   78  1
       a =  0.000      CL =  0.2364
      Cm = -0.0691     CD =  0.00756   =>   CDf =  0.00395    CDp =  0.00362

 Side 1  free  transition at x/c =  0.9285   76
 Side 2  free  transition at x/c =  0.7381   61

   3   rms: 0.3324E-02   max: 0.3422E-01   D at   77  1
       a =  0.000      CL =  0.2378
      Cm = -0.0695     CD =  0.00747   =>   CDf =  0.00398    CDp =  0.00349

 Side 1  free  transition at x/c =  0.9282   76
 Side 2  free  transition at x/c =  0.7378   61

   4   rms: 0.4097E-04   max: 0.5106E-03   D at   77  1
       a =  0.000      CL =  0.2378
      Cm = -0.0695     CD =  0.00748   =>   CDf =  0.00397    CDp =  0.00350
 plradd ia,ip,cpol            9           0  2.13572867E-02

 Point added to stored polar  1
 Point written to save file  sc20410_Re500k.base.pol                         
 Dump file unspecified or not available
 Calculating wake trajectory ...
 Calculating source influence matrix ...

 Solving BL system ...

 Side 1  free  transition at x/c =  0.9282   76
 Side 2  free  transition at x/c =  0.7378   61

   1   rms: 0.9146E-01   max: -.3448E+00   T at   61  2
       a =  0.500      CL =  0.2921
      Cm = -0.0686     CD =  0.00754   =>   CDf =  0.00398    CDp =  0.00356

 Side 1  free  transition at x/c =  0.8715   73
 Side 2  free  transition at x/c =  0.7454   62

   2   rms: 0.4548E-01   max: 0.4107E+00   D at   62  2
       a =  0.500      CL =  0.2917
      Cm = -0.0681     CD =  0.00750   =>   CDf =  0.00411    CDp =  0.00339

 Side 1  free  transition at x/c =  0.8846   74
 Side 2  free  transition at x/c =  0.7433   62

   3   rms: 0.3685E-02   max: 0.3667E-01   D at   63  2
       a =  0.500      CL =  0.2920
      Cm = -0.0682     CD =  0.00747   =>   CDf =  0.00402    CDp =  0.00345

 Side 1  free  transition at x/c =  0.8834   74
 Side 2  free  transition at x/c =  0.7429   62

   4   rms: 0.1649E-03   max: 0.2522E-02   C at   74  1
       a =  0.500      CL =  0.2920
      Cm = -0.0682     CD =  0.00747   =>   CDf =  0.00402    CDp =  0.00345

 Side 1  free  transition at x/c =  0.8834   74
 Side 2  free  transition at x/c =  0.7429   62

   5   rms: 0.1403E-05   max: -.9881E-05   D at   76  1
       a =  0.500      CL =  0.2920
      Cm = -0.0682     CD =  0.00747   =>   CDf =  0.00402    CDp =  0.00345
 plradd ia,ip,cpol           10           0  2.13572867E-02

 Point added to stored polar  1
 Point written to save file  sc20410_Re500k.base.pol                         
 Dump file unspecified or not available
 Calculating wake trajectory ...
 Calculating source influence matrix ...

 Solving BL system ...

 Side 1  free  transition at x/c =  0.8834   74
 Side 2  free  transition at x/c =  0.7429   62

   1   rms: 0.9930E-01   max: 0.7478E+00   C at   74  1
       a =  1.000      CL =  0.3463
      Cm = -0.0669     CD =  0.00757   =>   CDf =  0.00398    CDp =  0.00359

 Side 1  free  transition at x/c =  0.8074   70
 Side 2  free  transition at x/c =  0.7464   61

   2   rms: 0.3074E-01   max: -.2640E+00   D at   71  1
       a =  1.000      CL =  0.3454
      Cm = -0.0668     CD =  0.00761   =>   CDf =  0.00426    CDp =  0.00335

 Side 1  free  transition at x/c =  0.8210   71
 Side 2  free  transition at x/c =  0.7471   61

   3   rms: 0.7454E-02   max: 0.1237E+00   C at   71  1
       a =  1.000      CL =  0.3456
      Cm = -0.0669     CD =  0.00762   =>   CDf =  0.00417    CDp =  0.00345

 Side 1  free  transition at x/c =  0.8180   71
 Side 2  free  transition at x/c =  0.7471   61

   4   rms: 0.2586E-03   max: -.4399E-02   D at   73  1
       a =  1.000      CL =  0.3456
      Cm = -0.0669     CD =  0.00762   =>   CDf =  0.00420    CDp =  0.00342

 Side 1  free  transition at x/c =  0.8180   71
 Side 2  free  transition at x/c =  0.7471   61

   5   rms: 0.1191E-05   max: -.1323E-04   D at   73  1
       a =  1.000      CL =  0.3456
      Cm = -0.0669     CD =  0.00762   =>   CDf =  0.00420    CDp =  0.00342
 plradd ia,ip,cpol           11           0  1.73800141E-02

 Point added to stored polar  1
 Point written to save file  sc20410_Re500k.base.pol                         
 Dump file unspecified or not available
 Calculating wake trajectory ...
 Calculating source influence matrix ...

 Solving BL system ...

 Side 1  free  transition at x/c =  0.8180   71
 Side 2  free  transition at x/c =  0.7471   61

   1   rms: 0.1231E+00   max: 0.1463E+01   C at   71  1   RLX: 0.674
       a =  1.500      CL =  0.3809
      Cm = -0.0658     CD =  0.00789   =>   CDf =  0.00420    CDp =  0.00369

 Side 1  free  transition at x/c =  0.7450   66
 Side 2  free  transition at x/c =  0.7499   61

   2   rms: 0.4088E-01   max: 0.3907E+00   C at   66  1
       a =  1.500      CL =  0.3994
      Cm = -0.0659     CD =  0.00799   =>   CDf =  0.00447    CDp =  0.00352

 Side 1  free  transition at x/c =  0.6939   63
 Side 2  free  transition at x/c =  0.7515   61

   3   rms: 0.1320E-01   max: -.2264E+00   C at   63  1
       a =  1.500      CL =  0.3988
      Cm = -0.0658     CD =  0.00804   =>   CDf =  0.00467    CDp =  0.00336

 Side 1  free  transition at x/c =  0.7017   63
 Side 2  free  transition at x/c =  0.7515   61

   4   rms: 0.8254E-03   max: -.1700E-01   D at   65  1
       a =  1.500      CL =  0.3988
      Cm = -0.0658     CD =  0.00804   =>   CDf =  0.00463    CDp =  0.00342

 Side 1  free  transition at x/c =  0.7016   63
 Side 2  free  transition at x/c =  0.7515   61

   5   rms: 0.1086E-04   max: -.1748E-03   D at   65  1
       a =  1.500      CL =  0.3988
      Cm = -0.0658     CD =  0.00804   =>   CDf =  0.00463    CDp =  0.00342
 plradd ia,ip,cpol           12           0  8.37654807E-03

 Point added to stored polar  1
 Point written to save file  sc20410_Re500k.base.pol                         
 Dump file unspecified or not available
 Calculating wake trajectory ...
 Calculating source influence matrix ...

 Solving BL system ...

 Side 1  free  transition at x/c =  0.7015   63
 Side 2  free  transition at x/c =  0.7515   61

   1   rms: 0.2086E+00   max: 0.3660E+01   C at   63  1   RLX: 0.410
       a =  2.000      CL =  0.4202
      Cm = -0.0654     CD =  0.00832   =>   CDf =  0.00458    CDp =  0.00373

 Side 1  free  transition at x/c =  0.5660   56
 Side 2  free  transition at x/c =  0.7530   60

   2   rms: 0.2416E+00   max: 0.4682E+01   C at   56  1   RLX: 0.320
       a =  2.000      CL =  0.4274
      Cm = -0.0646     CD =  0.00908   =>   CDf =  0.00522    CDp =  0.00386

 Side 1  free  transition at x/c =  0.4923   51
 Side 2  free  transition at x/c =  0.7537   60

   3   rms: 0.1758E+00   max: 0.3484E+01   C at   51  1   RLX: 0.431
       a =  2.000      CL =  0.4351
      Cm = -0.0645     CD =  0.00939   =>   CDf =  0.00553    CDp =  0.00386

 Side 1  free  transition at x/c =  0.4262   47
 Side 2  free  transition at x/c =  0.7543   60

   4   rms: 0.8874E-01   max: 0.1780E+01   C at   47  1   RLX: 0.843
       a =  2.000      CL =  0.4443
      Cm = -0.0645     CD =  0.00976   =>   CDf =  0.00582    CDp =  0.00394

 Side 1  free  transition at x/c =  0.3708   43
 Side 2  free  transition at x/c =  0.7550   60

   5   rms: 0.7580E-02   max: 0.8393E-01   D at   46  1
       a =  2.000      CL =  0.4463
      Cm = -0.0646     CD =  0.00980   =>   CDf =  0.00607    CDp =  0.00373

 Side 1  free  transition at x/c =  0.3659   43
 Side 2  free  transition at x/c =  0.7551   60

   6   rms: 0.7932E-03   max: -.1615E-01   C at   43  1
       a =  2.000      CL =  0.4463
      Cm = -0.0646     CD =  0.00981   =>   CDf =  0.00609    CDp =  0.00372

 Side 1  free  transition at x/c =  0.3663   43
 Side 2  free  transition at x/c =  0.7551   60

   7   rms: 0.4671E-05   max: 0.7951E-04   C at   43  1
       a =  2.000      CL =  0.4463
      Cm = -0.0646     CD =  0.00981   =>   CDf =  0.00608    CDp =  0.00372
 plradd ia,ip,cpol           13           0  6.18560938E-03

 Point added to stored polar  1
 Point written to save file  sc20410_Re500k.base.pol                         
 Dump file unspecified or not available
 Calculating wake trajectory ...
 Calculating source influence matrix ...

 Solving BL system ...

 Side 1  free  transition at x/c =  0.3663   43
 Side 2  free  transition at x/c =  0.7551   60

   1   rms: 0.4488E+00   max: 0.9228E+01   C at   43  1   RLX: 0.163
       a =  2.500      CL =  0.4546
      Cm = -0.0646     CD =  0.01007   =>   CDf =  0.00608    CDp =  0.00399

 Side 1  free  transition at x/c =  0.3213   40
 Side 2  free  transition at x/c =  0.7557   61

   2   rms: 0.2865E+00   max: 0.5905E+01   C at   40  1   RLX: 0.254
       a =  2.500      CL =  0.4653
      Cm = -0.0645     CD =  0.01031   =>   CDf =  0.00628    CDp =  0.00403

 Side 1  free  transition at x/c =  0.2690   37
 Side 2  free  transition at x/c =  0.7565   61

   3   rms: 0.1709E+00   max: 0.3499E+01   C at   37  1   RLX: 0.429
       a =  2.500      CL =  0.4789
      Cm = -0.0643     CD =  0.01065   =>   CDf =  0.00649    CDp =  0.00415

 Side 1  free  transition at x/c =  0.2103   33
 Side 2  free  transition at x/c =  0.7574   61

   4   rms: 0.8353E-01   max: 0.1720E+01   C at   33  1   RLX: 0.872
       a =  2.500      CL =  0.4952
      Cm = -0.0643     CD =  0.01102   =>   CDf =  0.00668    CDp =  0.00434

 Side 1  free  transition at x/c =  0.1663   31
 Side 2  free  transition at x/c =  0.7583   60

   5   rms: 0.8636E-02   max: 0.9600E-01   D at   33  1
       a =  2.500      CL =  0.4974
      Cm = -0.0642     CD =  0.01110   =>   CDf =  0.00693    CDp =  0.00417

 Side 1  free  transition at x/c =  0.1603   31
 Side 2  free  transition at x/c =  0.7584   60

   6   rms: 0.5365E-03   max: 0.7752E-02   D at   32  1
       a =  2.500      CL =  0.4974
      Cm = -0.0642     CD =  0.01112   =>   CDf =  0.00695    CDp =  0.00417

 Side 1  free  transition at x/c =  0.1603   31
 Side 2  free  transition at x/c =  0.7584   60

   7   rms: 0.4146E-05   max: 0.8698E-04   C at   31  1
       a =  2.500      CL =  0.4974
      Cm = -0.0642     CD =  0.01112   =>   CDf =  0.00695    CDp =  0.00417
 plradd ia,ip,cpol           14           0  6.18560938E-03

 Point added to stored polar  1
 Point written to save file  sc20410_Re500k.base.pol                         
 Dump file unspecified or not available
 Calculating wake trajectory ...
 Calculating source influence matrix ...

 Solving BL system ...

 Side 1  free  transition at x/c =  0.1603   31
 Side 2  free  transition at x/c =  0.7584   60

   1   rms: 0.2391E+00   max: 0.4825E+01   C at   31  1   RLX: 0.311
       a =  3.000      CL =  0.5138
      Cm = -0.0642     CD =  0.01144   =>   CDf =  0.00695    CDp =  0.00450

 Side 1  free  transition at x/c =  0.1293   29
 Side 2  free  transition at x/c =  0.7594   60

   2   rms: 0.1253E+00   max: 0.1944E+01   C at   29  1   RLX: 0.507
       a =  3.000      CL =  0.5324
      Cm = -0.0641     CD =  0.01177   =>   CDf =  0.00709    CDp =  0.00468

 Side 1  free  transition at x/c =  0.1073   27
 Side 2  free  transition at x/c =  0.7605   60

   3   rms: 0.4049E-01   max: -.2978E+00   D at   27  1
       a =  3.000      CL =  0.5521
      Cm = -0.0641     CD =  0.01183   =>   CDf =  0.00721    CDp =  0.00462

 Side 1  free  transition at x/c =  0.0911   26
 Side 2  free  transition at x/c =  0.7619   60

   4   rms: 0.9695E-02   max: -.1366E+00   D at   26  1
       a =  3.000      CL =  0.5516
      Cm = -0.0641     CD =  0.01193   =>   CDf =  0.00728    CDp =  0.00465

 Side 1  free  transition at x/c =  0.0909   26
 Side 2  free  transition at x/c =  0.7619   60

   5   rms: 0.9676E-03   max: 0.1801E-01   C at   26  1
       a =  3.000      CL =  0.5516
      Cm = -0.0641     CD =  0.01194   =>   CDf =  0.00728    CDp =  0.00466

 Side 1  free  transition at x/c =  0.0907   26
 Side 2  free  transition at x/c =  0.7619   60

   6   rms: 0.4646E-05   max: -.6864E-04   D at   26  1
       a =  3.000      CL =  0.5516
      Cm = -0.0641     CD =  0.01194   =>   CDf =  0.00728    CDp =  0.00466
 plradd ia,ip,cpol           15           0  6.18560938E-03

 Point added to stored polar  1
 Point written to save file  sc20410_Re500k.base.pol                         
 Dump file unspecified or not available
 Calculating wake trajectory ...
 Calculating source influence matrix ...

 Solving BL system ...

 Side 1  free  transition at x/c =  0.0907   26
 Side 2  free  transition at x/c =  0.7619   60

   1   rms: 0.1001E+00   max: 0.5440E+00   T at   26  1   RLX: 0.996
       a =  3.500      CL =  0.6072
      Cm = -0.0640     CD =  0.01249   =>   CDf =  0.00721    CDp =  0.00529

 Side 1  free  transition at x/c =  0.0712   26
 Side 2  free  transition at x/c =  0.7656   59

   2   rms: 0.7058E-01   max: -.6640E+00   D at   26  1   RLX: 0.753
       a =  3.500      CL =  0.6077
      Cm = -0.0643     CD =  0.01255   =>   CDf =  0.00729    CDp =  0.00526

 Side 1  free  transition at x/c =  0.0723   26
 Side 2  free  transition at x/c =  0.7659   59

   3   rms: 0.1352E-01   max: -.2281E+00   D at   26  1
       a =  3.500      CL =  0.6074
      Cm = -0.0641     CD =  0.01252   =>   CDf =  0.00733    CDp =  0.00519

 Side 1  free  transition at x/c =  0.0709   26
 Side 2  free  transition at x/c =  0.7660   59

   4   rms: 0.1568E-02   max: 0.1627E-01   T at   26  1
       a =  3.500      CL =  0.6072
      Cm = -0.0641     CD =  0.01257   =>   CDf =  0.00737    CDp =  0.00520

 Side 1  free  transition at x/c =  0.0706   26
 Side 2  free  transition at x/c =  0.7660   59

   5   rms: 0.1969E-04   max: 0.1822E-03   T at   26  1
       a =  3.500      CL =  0.6072
      Cm = -0.0641     CD =  0.01257   =>   CDf =  0.00737    CDp =  0.00519
 plradd ia,ip,cpol           16           0  6.18560938E-03

 Point added to stored polar  1
 Point written to save file  sc20410_Re500k.base.pol                         
 Dump file unspecified or not available
 Calculating wake trajectory ...
 Calculating source influence matrix ...

 Solving BL system ...

 Side 1  free  transition at x/c =  0.0706   26
 Side 2  free  transition at x/c =  0.7660   59

   1   rms: 0.1078E+00   max: -.7078E+00   D at   26  1   RLX: 0.706
       a =  4.000      CL =  0.6459
      Cm = -0.0640     CD =  0.01319   =>   CDf =  0.00737    CDp =  0.00581

 MRCHDU: Convergence failed at  26  side 1    Res =  0.1189E+01
 Side 1  free  transition at x/c =  0.0627   25
 Side 2  free  transition at x/c =  0.7688   59

   2   rms: 0.5355E-01   max: -.5568E+00   D at   26  1   RLX: 0.898
       a =  4.000      CL =  0.6626
      Cm = -0.0642     CD =  0.01307   =>   CDf =  0.00724    CDp =  0.00583

 Side 1  free  transition at x/c =  0.0601   25
 Side 2  free  transition at x/c =  0.7700   59

   3   rms: 0.6128E-02   max: -.9543E-01   D at   25  1
       a =  4.000      CL =  0.6634
      Cm = -0.0642     CD =  0.01316   =>   CDf =  0.00740    CDp =  0.00576

 Side 1  free  transition at x/c =  0.0598   25
 Side 2  free  transition at x/c =  0.7701   59

   4   rms: 0.3541E-03   max: 0.3829E-02   D at   25  1
       a =  4.000      CL =  0.6634
      Cm = -0.0642     CD =  0.01316   =>   CDf =  0.00741    CDp =  0.00575

 Side 1  free  transition at x/c =  0.0598   25
 Side 2  free  transition at x/c =  0.7701   59

   5   rms: 0.1851E-05   max: 0.8581E-05   D at    4  2
       a =  4.000      CL =  0.6634
      Cm = -0.0642     CD =  0.01316   =>   CDf =  0.00741    CDp =  0.00575
 plradd ia,ip,cpol           17           0  6.18560938E-03

 Point added to stored polar  1
 Point written to save file  sc20410_Re500k.base.pol                         
 Dump file unspecified or not available
 Calculating wake trajectory ...
 Calculating source influence matrix ...

 Solving BL system ...

 Side 1  free  transition at x/c =  0.0598   25
 Side 2  free  transition at x/c =  0.7701   59

   1   rms: 0.9593E-01   max: 0.4870E+00   T at   25  1
       a =  4.500      CL =  0.7192
      Cm = -0.0644     CD =  0.01392   =>   CDf =  0.00729    CDp =  0.00663

 MRCHDU: Convergence failed at  26  side 1    Res =  0.1946E+01
 MRCHDU: Convergence failed at  27  side 1    Res =  0.1551E+01
 MRCHDU: Convergence failed at  28  side 1    Res =  0.2793E+01
 MRCHDU: Convergence failed at  29  side 1    Res =  0.2882E+01
 MRCHDU: Convergence failed at  30  side 1    Res =  0.3099E+01
 MRCHDU: Convergence failed at  31  side 1    Res =  0.3397E+01
 MRCHDU: Convergence failed at  32  side 1    Res =  0.4033E+01
 MRCHDU: Convergence failed at  33  side 1    Res =  0.4868E+01
 MRCHDU: Convergence failed at  34  side 1    Res =  0.5427E+01
 MRCHDU: Convergence failed at  35  side 1    Res =  0.6117E+01
 MRCHDU: Convergence failed at  36  side 1    Res =  0.6971E+01
 MRCHDU: Convergence failed at  37  side 1    Res =  0.8232E+01
 MRCHDU: Convergence failed at  38  side 1    Res =  0.9805E+01
 MRCHDU: Convergence failed at  39  side 1    Res =  0.1078E+02
 MRCHDU: Convergence failed at  40  side 1    Res =  0.1860E+02
 MRCHDU: Convergence failed at  41  side 1    Res =  0.2181E+02
 MRCHDU: Convergence failed at  42  side 1    Res =  0.3397E+02
 MRCHDU: Convergence failed at  43  side 1    Res =  0.4043E+02
 MRCHDU: Convergence failed at  44  side 1    Res =  0.2358E+03
 MRCHDU: Convergence failed at  45  side 1    Res =  0.4118E+02
 MRCHDU: Convergence failed at  46  side 1    Res =  0.3338E+02
 MRCHDU: Convergence failed at  47  side 1    Res =  0.2343E+02
 MRCHDU: Convergence failed at  48  side 1    Res =  0.2213E+02
 MRCHDU: Convergence failed at  49  side 1    Res =  0.2008E+02
 MRCHDU: Convergence failed at  50  side 1    Res =  0.1638E+02
 MRCHDU: Convergence failed at  51  side 1    Res =  0.6914E+01
 MRCHDU: Convergence failed at  52  side 1    Res =  0.6783E+01
 MRCHDU: Convergence failed at  53  side 1    Res =  0.6680E+02
 MRCHDU: Convergence failed at  54  side 1    Res =  0.5710E+02
 MRCHDU: Convergence failed at  55  side 1    Res =  0.4564E+02
 MRCHDU: Convergence failed at  56  side 1    Res =  0.3746E+02
 MRCHDU: Convergence failed at  57  side 1    Res =  0.3723E+02
 MRCHDU: Convergence failed at  58  side 1    Res =  0.3101E+02
 MRCHDU: Convergence failed at  59  side 1    Res =  0.3030E+02
 MRCHDU: Convergence failed at  60  side 1    Res =  0.2687E+02
 MRCHDU: Convergence failed at  61  side 1    Res =  0.2607E+02
 MRCHDU: Convergence failed at  62  side 1    Res =  0.2355E+02
 MRCHDU: Convergence failed at  63  side 1    Res =  0.2300E+02
 MRCHDU: Convergence failed at  64  side 1    Res =  0.2140E+02
 MRCHDU: Convergence failed at  65  side 1    Res =  0.2075E+02
 MRCHDU: Convergence failed at  66  side 1    Res =  0.2032E+02
 MRCHDU: Convergence failed at  67  side 1    Res =  0.2137E+02
 MRCHDU: Convergence failed at  68  side 1    Res =  0.1890E+02
 MRCHDU: Convergence failed at  69  side 1    Res =  0.3464E+02
 MRCHDU: Convergence failed at  70  side 1    Res =  0.1667E+03
 MRCHDU: Convergence failed at  71  side 1    Res =  0.8592E+03
 MRCHDU: Convergence failed at  72  side 1    Res =  0.7608E+02
 MRCHDU: Convergence failed at  73  side 1    Res =  0.8791E+02
 MRCHDU: Convergence failed at  74  side 1    Res =  0.3399E+02
 MRCHDU: Convergence failed at  75  side 1    Res =  0.2713E+02
 MRCHDU: Convergence failed at  76  side 1    Res =  0.2767E+02
 MRCHDU: Convergence failed at  77  side 1    Res =  0.3698E+02
 MRCHDU: Convergence failed at  78  side 1    Res =  0.1506E+02
 MRCHDU: Convergence failed at  79  side 1    Res =  0.1632E+02
 MRCHDU: Convergence failed at  80  side 1    Res =  0.4325E+02
 MRCHDU: Convergence failed at  81  side 1    Res =  0.4676E+02
 MRCHDU: Convergence failed at  82  side 1    Res =  0.5397E+02
 MRCHDU: Convergence failed at  83  side 1    Res =  0.4968E+02
 MRCHDU: Convergence failed at  84  side 1    Res =  0.6069E+02
 MRCHDU: Convergence failed at  85  side 1    Res =  0.3568E+02
 MRCHDU: Convergence failed at  86  side 1    Res =  0.6202E+03
 MRCHDU: Convergence failed at  87  side 1    Res =  0.1316E+03
 Side 1  free  transition at x/c =  0.0526   25
 Side 2  free  transition at x/c =  0.7749   59

   2   rms: 0.8658E+00   max: 0.3226E+01   D at   78  2   RLX: 0.465
       a =  4.500      CL =  1.2629
      Cm = -0.2604     CD =  0.00867   =>   CDf =  0.00223    CDp =  0.00644

 MRCHDU: Convergence failed at  34  side 1    Res =  0.6171E-01
 MRCHDU: Convergence failed at  80  side 2    Res =  0.1607E+01
 MRCHDU: Convergence failed at  81  side 2    Res =  0.6654E+01
 MRCHDU: Convergence failed at  82  side 2    Res =  0.2560E+01
 MRCHDU: Convergence failed at  83  side 2    Res =  0.1689E+01
 MRCHDU: Convergence failed at  84  side 2    Res =  0.1290E+01
 Side 1  free  transition at x/c =  0.0493   25
 Side 2  free  transition at x/c =  0.7753   59

   3   rms: 0.3857E+00   max: -.1618E+01   D at   34  1   RLX: 0.309
       a =  4.500      CL =  0.8418
      Cm = -0.1278     CD =  0.04464   =>   CDf =  0.00340    CDp =  0.04124

 MRCHDU: Convergence failed at  34  side 1    Res =  0.1166E+00
 MRCHDU: Convergence failed at  35  side 1    Res =  0.2264E+00
 Side 1  free  transition at x/c =  0.0527   25
 Side 2  free  transition at x/c =  0.7770   59

   4   rms: 0.6277E+00   max: -.3993E+01   D at   36  1   RLX: 0.125
       a =  4.500      CL =  0.7416
      Cm = -0.0947     CD =  0.04310   =>   CDf =  0.00364    CDp =  0.03946

 MRCHDU: Convergence failed at  36  side 1    Res =  0.4790E-02
 MRCHDU: Convergence failed at  48  side 1    Res =  0.1173E-01
 Side 1  free  transition at x/c =  0.0539   25
 Side 2  free  transition at x/c =  0.7770   59

   5   rms: 0.3876E+01   max: 0.3212E+02   D at   36  1   RLX: 0.047
       a =  4.500      CL =  0.7200
      Cm = -0.0894     CD =  0.04541   =>   CDf =  0.00406    CDp =  0.04134

 MRCHDU: Convergence failed at  48  side 1    Res =  0.1375E-01
 Side 1  free  transition at x/c =  0.0516   25
 Side 2  free  transition at x/c =  0.7768   59

   6   rms: 0.5422E+00   max: -.2608E+01   D at   48  1   RLX: 0.192
       a =  4.500      CL =  0.7040
      Cm = -0.0809     CD =  0.03803   =>   CDf =  0.00350    CDp =  0.03453

 MRCHDU: Convergence failed at  48  side 1    Res =  0.9349E-01
 Side 1  free  transition at x/c =  0.0531   25
 Side 2  free  transition at x/c =  0.7768   59

   7   rms: 0.6639E+00   max: -.3170E+01   D at   36  1   RLX: 0.158
       a =  4.500      CL =  0.7111
      Cm = -0.0745     CD =  0.03472   =>   CDf =  0.00386    CDp =  0.03086

 MRCHDU: Convergence failed at  40  side 1    Res =  0.6283E+00
 MRCHDU: Convergence failed at  41  side 1    Res =  0.2089E+00
 MRCHDU: Convergence failed at  42  side 1    Res =  0.9465E+00
 MRCHDU: Convergence failed at  43  side 1    Res =  0.4972E+00
 MRCHDU: Convergence failed at  44  side 1    Res =  0.4523E+01
 MRCHDU: Convergence failed at  45  side 1    Res =  0.8794E+00
 MRCHDU: Convergence failed at  46  side 1    Res =  0.8075E+00
 MRCHDU: Convergence failed at  47  side 1    Res =  0.2055E+01
 Side 1  free  transition at x/c =  0.0535   25
 Side 2  free  transition at x/c =  0.7766   59

   8   rms: 0.1708E+01   max: 0.8323E+01   D at   31  1   RLX: 0.115
       a =  4.500      CL =  0.8804
      Cm = -0.0749     CD =  0.02460   =>   CDf =  0.00555    CDp =  0.01905

 Side 1  free  transition at x/c =  0.0489   25
 Side 2  free  transition at x/c =  0.7762   59

   9   rms: 0.2059E+01   max: -.7547E+01   D at   68  1   RLX: 0.066
       a =  4.500      CL =  0.8748
      Cm = -0.0697     CD =  0.01763   =>   CDf =  0.00545    CDp =  0.01218

 Side 1  free  transition at x/c =  0.0486   25
 Side 2  free  transition at x/c =  0.7760   59

  10   rms: 0.1131E+01   max: -.3900E+01   D at   77  2   RLX: 0.128
       a =  4.500      CL =  0.8736
      Cm = -0.0660     CD =  0.01475   =>   CDf =  0.00584    CDp =  0.00890

 Side 1  free  transition at x/c =  0.0487   25
 Side 2  free  transition at x/c =  0.7754   59

  11   rms: 0.7352E+02   max: 0.4637E+03   D at   36  1   RLX: 0.001
       a =  4.500      CL =  0.8763
      Cm = -0.0686     CD =  0.01672   =>   CDf =  0.00637    CDp =  0.01035

 Side 1  free  transition at x/c =  0.0485   25
 Side 2  free  transition at x/c =  0.7753   59

  12   rms: 0.5460E+00   max: -.2464E+01   D at   36  1   RLX: 0.203
       a =  4.500      CL =  0.8461
      Cm = -0.0644     CD =  0.01430   =>   CDf =  0.00642    CDp =  0.00788

 Side 1  free  transition at x/c =  0.0493   25
 Side 2  free  transition at x/c =  0.7749   59

  13   rms: 0.3354E+00   max: -.1326E+01   D at   34  1   RLX: 0.377
       a =  4.500      CL =  0.7996
      Cm = -0.0628     CD =  0.01294   =>   CDf =  0.00671    CDp =  0.00622

 Side 1  free  transition at x/c =  0.0500   25
 Side 2  free  transition at x/c =  0.7742   59

  14   rms: 0.2370E+00   max: -.1737E+01   D at   33  1   RLX: 0.288
       a =  4.500      CL =  0.7823
      Cm = -0.0641     CD =  0.01283   =>   CDf =  0.00695    CDp =  0.00588

 Side 1  free  transition at x/c =  0.0503   25
 Side 2  free  transition at x/c =  0.7739   59

  15   rms: 0.1651E+00   max: -.1386E+01   D at   32  1   RLX: 0.361
       a =  4.500      CL =  0.7654
      Cm = -0.0648     CD =  0.01304   =>   CDf =  0.00714    CDp =  0.00590

 Side 1  free  transition at x/c =  0.0505   25
 Side 2  free  transition at x/c =  0.7737   59

  16   rms: 0.1105E+00   max: -.1086E+01   D at   32  1   RLX: 0.460
       a =  4.500      CL =  0.7485
      Cm = -0.0653     CD =  0.01333   =>   CDf =  0.00725    CDp =  0.00608

 Side 1  free  transition at x/c =  0.0508   25
 Side 2  free  transition at x/c =  0.7736   59

  17   rms: 0.6573E-01   max: -.7052E+00   D at   32  1   RLX: 0.709
       a =  4.500      CL =  0.7300
      Cm = -0.0650     CD =  0.01362   =>   CDf =  0.00732    CDp =  0.00630

 Side 1  free  transition at x/c =  0.0512   25
 Side 2  free  transition at x/c =  0.7736   59

  18   rms: 0.2386E-01   max: -.2741E+00   D at   32  1
       a =  4.500      CL =  0.7187
      Cm = -0.0642     CD =  0.01379   =>   CDf =  0.00737    CDp =  0.00642

 Side 1  free  transition at x/c =  0.0516   25
 Side 2  free  transition at x/c =  0.7736   59

  19   rms: 0.1164E-02   max: 0.4124E-02   U at   32  1
       a =  4.500      CL =  0.7182
      Cm = -0.0641     CD =  0.01380   =>   CDf =  0.00737    CDp =  0.00642

 Side 1  free  transition at x/c =  0.0516   25
 Side 2  free  transition at x/c =  0.7736   59

  20   rms: 0.3696E-05   max: 0.1240E-04   U at   32  1
       a =  4.500      CL =  0.7182
      Cm = -0.0641     CD =  0.01380   =>   CDf =  0.00737    CDp =  0.00642
 plradd ia,ip,cpol           18           0  4.36984887E-03

 Point added to stored polar  1
 Point written to save file  sc20410_Re500k.base.pol                         
 Dump file unspecified or not available
 Calculating wake trajectory ...
 Calculating source influence matrix ...

 Solving BL system ...

 Side 1  free  transition at x/c =  0.0516   25
 Side 2  free  transition at x/c =  0.7736   59

   1   rms: 0.8763E-01   max: 0.5135E+00   T at   25  1
       a =  5.000      CL =  0.7729
      Cm = -0.0638     CD =  0.01426   =>   CDf =  0.00724    CDp =  0.00702

 MRCHDU: Convergence failed at  26  side 1    Res =  0.2712E+01
 MRCHDU: Convergence failed at  27  side 1    Res =  0.2758E+01
 MRCHDU: Convergence failed at  28  side 1    Res =  0.1421E+01
 MRCHDU: Convergence failed at  29  side 1    Res =  0.2281E+01
 MRCHDU: Convergence failed at  30  side 1    Res =  0.3257E+01
 MRCHDU: Convergence failed at  31  side 1    Res =  0.4219E+01
 MRCHDU: Convergence failed at  32  side 1    Res =  0.4562E+01
 MRCHDU: Convergence failed at  33  side 1    Res =  0.4976E+01
 MRCHDU: Convergence failed at  34  side 1    Res =  0.5049E+01
 MRCHDU: Convergence failed at  35  side 1    Res =  0.5129E+01
 MRCHDU: Convergence failed at  36  side 1    Res =  0.5355E+01
 MRCHDU: Convergence failed at  37  side 1    Res =  0.4635E+01
 MRCHDU: Convergence failed at  38  side 1    Res =  0.5217E+01
 MRCHDU: Convergence failed at  39  side 1    Res =  0.5914E+01
 MRCHDU: Convergence failed at  40  side 1    Res =  0.6196E+01
 MRCHDU: Convergence failed at  41  side 1    Res =  0.7168E+01
 MRCHDU: Convergence failed at  42  side 1    Res =  0.7712E+01
 MRCHDU: Convergence failed at  43  side 1    Res =  0.8935E+01
 MRCHDU: Convergence failed at  44  side 1    Res =  0.9523E+01
 MRCHDU: Convergence failed at  45  side 1    Res =  0.1767E+02
 MRCHDU: Convergence failed at  46  side 1    Res =  0.3647E+02
 MRCHDU: Convergence failed at  47  side 1    Res =  0.3239E+02
 MRCHDU: Convergence failed at  48  side 1    Res =  0.3055E+02
 MRCHDU: Convergence failed at  49  side 1    Res =  0.2857E+02
 MRCHDU: Convergence failed at  50  side 1    Res =  0.3040E+02
 MRCHDU: Convergence failed at  51  side 1    Res =  0.3306E+02
 MRCHDU: Convergence failed at  52  side 1    Res =  0.3011E+02
 MRCHDU: Convergence failed at  53  side 1    Res =  0.3889E+02
 MRCHDU: Convergence failed at  54  side 1    Res =  0.3589E+02
 MRCHDU: Convergence failed at  55  side 1    Res =  0.7265E+02
 MRCHDU: Convergence failed at  56  side 1    Res =  0.2178E+02
 MRCHDU: Convergence failed at  57  side 1    Res =  0.8311E+02
 MRCHDU: Convergence failed at  58  side 1    Res =  0.2436E+02
 MRCHDU: Convergence failed at  59  side 1    Res =  0.2592E+02
 MRCHDU: Convergence failed at  60  side 1    Res =  0.4903E+02
 MRCHDU: Convergence failed at  61  side 1    Res =  0.2505E+02
 MRCHDU: Convergence failed at  62  side 1    Res =  0.3029E+02
 MRCHDU: Convergence failed at  63  side 1    Res =  0.6581E+02
 MRCHDU: Convergence failed at  64  side 1    Res =  0.2452E+02
 MRCHDU: Convergence failed at  65  side 1    Res =  0.6007E+02
 MRCHDU: Convergence failed at  66  side 1    Res =  0.5194E+02
 MRCHDU: Convergence failed at  67  side 1    Res =  0.2164E+03
 MRCHDU: Convergence failed at  68  side 1    Res =  0.4743E+02
 MRCHDU: Convergence failed at  69  side 1    Res =  0.9706E+02
 MRCHDU: Convergence failed at  70  side 1    Res =  0.1416E+03
 MRCHDU: Convergence failed at  71  side 1    Res =  0.5332E+02
 MRCHDU: Convergence failed at  72  side 1    Res =  0.1697E+03
 MRCHDU: Convergence failed at  73  side 1    Res =  0.6524E+02
 MRCHDU: Convergence failed at  74  side 1    Res =  0.5425E+02
 MRCHDU: Convergence failed at  75  side 1    Res =  0.1875E+02
 MRCHDU: Convergence failed at  76  side 1    Res =  0.2145E+02
 MRCHDU: Convergence failed at  77  side 1    Res =  0.2211E+02
 MRCHDU: Convergence failed at  78  side 1    Res =  0.8445E+02
 MRCHDU: Convergence failed at  79  side 1    Res =  0.5999E+02
 MRCHDU: Convergence failed at  80  side 1    Res =  0.6042E+02
 MRCHDU: Convergence failed at  81  side 1    Res =  0.5584E+02
 MRCHDU: Convergence failed at  82  side 1    Res =  0.6776E+02
 MRCHDU: Convergence failed at  83  side 1    Res =  0.1064E+03
 MRCHDU: Convergence failed at  84  side 1    Res =  0.2533E+03
 MRCHDU: Convergence failed at  85  side 1    Res =  0.9947E+02
 MRCHDU: Convergence failed at  86  side 1    Res =  0.6229E+02
 MRCHDU: Convergence failed at  87  side 1    Res =  0.9987E+02
 MRCHDU: Convergence failed at  88  side 1    Res =  0.5887E+02
 Side 1  free  transition at x/c =  0.0455   25
 Side 2  free  transition at x/c =  0.7772   58

   2   rms: 0.1340E+01   max: 0.4142E+01   D at   77  2   RLX: 0.362
       a =  5.000      CL =  1.6769
      Cm = -0.3695     CD =  0.00757   =>   CDf =  0.00204    CDp =  0.00553

 MRCHDU: Convergence failed at  31  side 1    Res =  0.3155E+00
 MRCHDU: Convergence failed at  33  side 1    Res =  0.3037E+00
 MRCHDU: Convergence failed at  35  side 1    Res =  0.3334E+00
 MRCHDU: Convergence failed at  37  side 1    Res =  0.4027E+00
 MRCHDU: Convergence failed at  38  side 1    Res =  0.3730E+00
 MRCHDU: Convergence failed at  39  side 1    Res =  0.3322E+00
 MRCHDU: Convergence failed at  40  side 1    Res =  0.2860E+00
 MRCHDU: Convergence failed at  78  side 2    Res =  0.1628E+01
 MRCHDU: Convergence failed at  79  side 2    Res =  0.1132E+02
 MRCHDU: Convergence failed at  80  side 2    Res =  0.5751E+01
 MRCHDU: Convergence failed at  81  side 2    Res =  0.1907E+01
 MRCHDU: Convergence failed at  82  side 2    Res =  0.7026E+01
 MRCHDU: Convergence failed at  83  side 2    Res =  0.1777E+02
 Side 1  free  transition at x/c =  0.0408   25
 Side 2  free  transition at x/c =  0.7780   58
 idif Ue xi dudx           1  0.14974844      3.22425365E-03   46.444374    
 Uenew xinew           2  1.48048708E-02  3.18765640E-04

   3   rms: 0.4262E+00   max: -.1298E+01   T at   25  1   RLX: 0.385
       a =  5.000      CL =  0.9905
      Cm = -0.1626     CD =  0.04828   =>   CDf =  0.00287    CDp =  0.04541

 MRCHDU: Convergence failed at  40  side 1    Res =  0.2248E+00
 MRCHDU: Convergence failed at  41  side 1    Res =  0.5837E+00
 MRCHDU: Convergence failed at  42  side 1    Res =  0.2773E+00
 MRCHDU: Convergence failed at  43  side 1    Res =  0.2445E+00
 MRCHDU: Convergence failed at  44  side 1    Res =  0.2096E+00
 MRCHDU: Convergence failed at  45  side 1    Res =  0.1723E+00
 MRCHDU: Convergence failed at  46  side 1    Res =  0.1353E+00
 MRCHDU: Convergence failed at  47  side 1    Res =  0.9794E-01
 MRCHDU: Convergence failed at  48  side 1    Res =  0.3989E+01
 MRCHDU: Convergence failed at  49  side 1    Res =  0.2754E+01
 MRCHDU: Convergence failed at  50  side 1    Res =  0.1587E+01
 Side 1  free  transition at x/c =  0.0448   24
 Side 2  free  transition at x/c =  0.7830   59

   4   rms: 0.4354E+00   max: 0.2999E+01   T at   24  1   RLX: 0.210
       a =  5.000      CL =  0.7509
      Cm = -0.0907     CD =  0.05564   =>   CDf =  0.00311    CDp =  0.05253

 MRCHDU: Convergence failed at  47  side 1    Res =  0.4644E-01
 Side 1  free  transition at x/c =  0.0408   24
 Side 2  free  transition at x/c =  0.7837   59

   5   rms: 0.4424E+00   max: -.1916E+01   D at   47  1   RLX: 0.261
       a =  5.000      CL =  0.7107
      Cm = -0.0762     CD =  0.05017   =>   CDf =  0.00304    CDp =  0.04713

 MRCHDU: Convergence failed at  47  side 1    Res =  0.1042E+00
 MRCHDU: Convergence failed at  48  side 1    Res =  0.3740E-01
 Side 1  free  transition at x/c =  0.0441   24
 Side 2  free  transition at x/c =  0.7850   59

   6   rms: 0.2646E+01   max: 0.2362E+02   T at   24  1   RLX: 0.043
       a =  5.000      CL =  0.7143
      Cm = -0.0691     CD =  0.05840   =>   CDf =  0.00297    CDp =  0.05543

 Side 1  free  transition at x/c =  0.0384   24
 Side 2  free  transition at x/c =  0.7842   59

   7   rms: 0.3911E+00   max: -.1711E+01   T at   24  1   RLX: 0.292
       a =  5.000      CL =  0.6952
      Cm = -0.0666     CD =  0.05164   =>   CDf =  0.00269    CDp =  0.04895

 Side 1  free  transition at x/c =  0.0390   24
 Side 2  free  transition at x/c =  0.7848   59

   8   rms: 0.4985E+00   max: -.1816E+01   D at   48  1   RLX: 0.275
       a =  5.000      CL =  0.6708
      Cm = -0.0516     CD =  0.04490   =>   CDf =  0.00275    CDp =  0.04215

 Side 1  free  transition at x/c =  0.0402   24
 Side 2  free  transition at x/c =  0.7850   59

   9   rms: 0.6496E+00   max: -.1982E+01   D at   38  1   RLX: 0.252
       a =  5.000      CL =  0.6721
      Cm = -0.0368     CD =  0.03703   =>   CDf =  0.00309    CDp =  0.03394

 Side 1  free  transition at x/c =  0.0416   24
 Side 2  free  transition at x/c =  0.7851   59

  10   rms: 0.8425E+00   max: -.2566E+01   D at   71  1   RLX: 0.195
       a =  5.000      CL =  0.7050
      Cm = -0.0299     CD =  0.03071   =>   CDf =  0.00355    CDp =  0.02716

 Side 1  free  transition at x/c =  0.0417   25
 Side 2  free  transition at x/c =  0.7845   58

  11   rms: 0.8358E+00   max: -.2676E+01   D at   72  1   RLX: 0.187
       a =  5.000      CL =  0.7408
      Cm = -0.0306     CD =  0.02614   =>   CDf =  0.00435    CDp =  0.02180

 Side 1  free  transition at x/c =  0.0417   25
 Side 2  free  transition at x/c =  0.7833   58

  12   rms: 0.5431E+00   max: -.1681E+01   D at   79  1   RLX: 0.297
       a =  5.000      CL =  0.7578
      Cm = -0.0370     CD =  0.02118   =>   CDf =  0.00517    CDp =  0.01601

 Side 1  free  transition at x/c =  0.0434   25
 Side 2  free  transition at x/c =  0.7814   58

  13   rms: 0.4078E+00   max: -.1447E+01   D at   29  1   RLX: 0.345
       a =  5.000      CL =  0.7637
      Cm = -0.0443     CD =  0.01799   =>   CDf =  0.00583    CDp =  0.01217

 Side 1  free  transition at x/c =  0.0459   25
 Side 2  free  transition at x/c =  0.7799   58

  14   rms: 0.3131E+00   max: -.9773E+00   T at   26  1   RLX: 0.512
       a =  5.000      CL =  0.7658
      Cm = -0.0525     CD =  0.01588   =>   CDf =  0.00658    CDp =  0.00930

 Side 1  free  transition at x/c =  0.0448   25
 Side 2  free  transition at x/c =  0.7784   58

  15   rms: 0.2177E+00   max: -.1188E+01   D at   28  1   RLX: 0.421
       a =  5.000      CL =  0.7663
      Cm = -0.0568     CD =  0.01621   =>   CDf =  0.00681    CDp =  0.00940

 Side 1  free  transition at x/c =  0.0468   26
 Side 2  free  transition at x/c =  0.7780   58

  16   rms: 0.1399E+00   max: -.8877E+00   D at   27  1   RLX: 0.563
       a =  5.000      CL =  0.7718
      Cm = -0.0609     CD =  0.01447   =>   CDf =  0.00707    CDp =  0.00739

 Side 1  free  transition at x/c =  0.0467   26
 Side 2  free  transition at x/c =  0.7776   58

  17   rms: 0.4754E-01   max: -.5506E+00   D at   26  1   RLX: 0.908
       a =  5.000      CL =  0.7719
      Cm = -0.0635     CD =  0.01462   =>   CDf =  0.00724    CDp =  0.00738

 MRCHDU: Convergence failed at  26  side 1    Res =  0.2545E+01
 MRCHDU: Convergence failed at  27  side 1    Res =  0.1549E+01
 MRCHDU: Convergence failed at  28  side 1    Res =  0.1487E+01
 MRCHDU: Convergence failed at  29  side 1    Res =  0.1537E+01
 MRCHDU: Convergence failed at  30  side 1    Res =  0.1750E+01
 MRCHDU: Convergence failed at  31  side 1    Res =  0.2055E+01
 MRCHDU: Convergence failed at  32  side 1    Res =  0.2448E+01
 MRCHDU: Convergence failed at  33  side 1    Res =  0.2885E+01
 MRCHDU: Convergence failed at  34  side 1    Res =  0.3365E+01
 MRCHDU: Convergence failed at  35  side 1    Res =  0.3765E+01
 MRCHDU: Convergence failed at  36  side 1    Res =  0.4238E+01
 MRCHDU: Convergence failed at  37  side 1    Res =  0.4730E+01
 MRCHDU: Convergence failed at  38  side 1    Res =  0.5448E+01
 MRCHDU: Convergence failed at  39  side 1    Res =  0.6303E+01
 MRCHDU: Convergence failed at  40  side 1    Res =  0.6605E+01
 MRCHDU: Convergence failed at  41  side 1    Res =  0.7785E+01
 MRCHDU: Convergence failed at  42  side 1    Res =  0.8476E+01
 MRCHDU: Convergence failed at  43  side 1    Res =  0.1003E+02
 MRCHDU: Convergence failed at  44  side 1    Res =  0.1069E+02
 MRCHDU: Convergence failed at  45  side 1    Res =  0.1351E+02
 MRCHDU: Convergence failed at  46  side 1    Res =  0.1955E+02
 MRCHDU: Convergence failed at  47  side 1    Res =  0.7411E+02
 MRCHDU: Convergence failed at  48  side 1    Res =  0.4540E+02
 MRCHDU: Convergence failed at  49  side 1    Res =  0.3417E+02
 MRCHDU: Convergence failed at  50  side 1    Res =  0.3305E+02
 MRCHDU: Convergence failed at  51  side 1    Res =  0.3117E+02
 MRCHDU: Convergence failed at  52  side 1    Res =  0.2700E+02
 MRCHDU: Convergence failed at  53  side 1    Res =  0.2963E+02
 MRCHDU: Convergence failed at  54  side 1    Res =  0.5004E+05
 MRCHDU: Convergence failed at  55  side 1    Res =  0.2311E+02
 MRCHDU: Convergence failed at  56  side 1    Res =  0.3185E+02
 MRCHDU: Convergence failed at  57  side 1    Res =  0.3051E+02
 MRCHDU: Convergence failed at  58  side 1    Res =  0.6560E+02
 MRCHDU: Convergence failed at  59  side 1    Res =  0.3362E+03
 MRCHDU: Convergence failed at  60  side 1    Res =  0.2004E+03
 MRCHDU: Convergence failed at  61  side 1    Res =  0.2594E+03
 MRCHDU: Convergence failed at  62  side 1    Res =  0.2138E+02
 MRCHDU: Convergence failed at  63  side 1    Res =  0.7391E+02
 MRCHDU: Convergence failed at  64  side 1    Res =  0.6244E+03
 MRCHDU: Convergence failed at  65  side 1    Res =  0.7618E+02
 MRCHDU: Convergence failed at  66  side 1    Res =  0.6938E+02
 MRCHDU: Convergence failed at  67  side 1    Res =  0.8120E+02
 MRCHDU: Convergence failed at  68  side 1    Res =  0.1425E+03
 MRCHDU: Convergence failed at  69  side 1    Res =  0.4144E+02
 MRCHDU: Convergence failed at  70  side 1    Res =  0.2473E+02
 MRCHDU: Convergence failed at  71  side 1    Res =  0.4465E+02
 MRCHDU: Convergence failed at  72  side 1    Res =  0.3134E+02
 MRCHDU: Convergence failed at  73  side 1    Res =  0.1860E+02
 MRCHDU: Convergence failed at  74  side 1    Res =  0.1665E+02
 MRCHDU: Convergence failed at  75  side 1    Res =  0.1915E+02
 MRCHDU: Convergence failed at  76  side 1    Res =  0.2239E+02
 MRCHDU: Convergence failed at  77  side 1    Res =  0.2315E+02
 MRCHDU: Convergence failed at  78  side 1    Res =  0.5944E+02
 MRCHDU: Convergence failed at  79  side 1    Res =  0.5754E+02
 MRCHDU: Convergence failed at  80  side 1    Res =  0.4396E+02
 MRCHDU: Convergence failed at  81  side 1    Res =  0.5657E+02
 MRCHDU: Convergence failed at  82  side 1    Res =  0.7055E+02
 MRCHDU: Convergence failed at  83  side 1    Res =  0.1193E+03
 MRCHDU: Convergence failed at  84  side 1    Res =  0.5055E+03
 MRCHDU: Convergence failed at  85  side 1    Res =  0.8206E+02
 MRCHDU: Convergence failed at  86  side 1    Res =  0.5441E+02
 MRCHDU: Convergence failed at  87  side 1    Res =  0.7428E+02
 MRCHDU: Convergence failed at  88  side 1    Res =  0.4947E+02
 Side 1  free  transition at x/c =  0.0454   25
 Side 2  free  transition at x/c =  0.7773   58

  18   rms: 0.1257E+01   max: 0.3811E+01   D at   77  2   RLX: 0.394
       a =  5.000      CL =  1.6143
      Cm = -0.3487     CD =  0.00753   =>   CDf =  0.00204    CDp =  0.00550

 MRCHDU: Convergence failed at  29  side 1    Res =  0.1329E+00
 MRCHDU: Convergence failed at  50  side 1    Res =  0.3086E+00
 MRCHDU: Convergence failed at  51  side 1    Res =  0.2773E+00
 MRCHDU: Convergence failed at  52  side 1    Res =  0.2394E+00
 MRCHDU: Convergence failed at  53  side 1    Res =  0.2024E+00
 MRCHDU: Convergence failed at  54  side 1    Res =  0.1275E+00
 MRCHDU: Convergence failed at  78  side 2    Res =  0.1657E+01
 MRCHDU: Convergence failed at  79  side 2    Res =  0.1750E+01
 MRCHDU: Convergence failed at  80  side 2    Res =  0.1875E+01
 MRCHDU: Convergence failed at  81  side 2    Res =  0.2601E+01
 MRCHDU: Convergence failed at  82  side 2    Res =  0.1775E+01
 MRCHDU: Convergence failed at  83  side 2    Res =  0.3775E+01
 Side 1  free  transition at x/c =  0.0407   25
 Side 2  free  transition at x/c =  0.7781   58
 idif Ue xi dudx           1  0.16364545      3.53085995E-03   46.347191    
 Uenew xinew           2  2.89842319E-02  6.25371933E-04

  19   rms: 0.4496E+00   max: -.1547E+01   T at   25  1   RLX: 0.323
       a =  5.000      CL =  1.0123
      Cm = -0.1852     CD =  0.04487   =>   CDf =  0.00323    CDp =  0.04163

 MRCHDU: Convergence failed at  54  side 1    Res =  0.1940E+00
 MRCHDU: Convergence failed at  55  side 1    Res =  0.7209E+00
 MRCHDU: Convergence failed at  56  side 1    Res =  0.2097E+00
 MRCHDU: Convergence failed at  57  side 1    Res =  0.1812E+00
 MRCHDU: Convergence failed at  58  side 1    Res =  0.1437E+00
 MRCHDU: Convergence failed at  59  side 1    Res =  0.1059E+00
 MRCHDU: Convergence failed at  60  side 1    Res =  0.5998E-01
 MRCHDU: Convergence failed at  61  side 1    Res =  0.1961E+02
 MRCHDU: Convergence failed at  62  side 1    Res =  0.3626E+02
 MRCHDU: Convergence failed at  63  side 1    Res =  0.1810E+02
 MRCHDU: Convergence failed at  64  side 1    Res =  0.5985E+01
 MRCHDU: Convergence failed at  65  side 1    Res =  0.1660E+01
 Side 1  free  transition at x/c =  0.0449   24
 Side 2  free  transition at x/c =  0.7816   59

  20   rms: 0.1176E+02   max: 0.1174E+03   T at   24  1   RLX: 0.005
       a =  5.000      CL =  0.8412
      Cm = -0.1127     CD =  0.05797   =>   CDf =  0.00375    CDp =  0.05422

 MRCHDU: Convergence failed at  60  side 1    Res =  0.8411E-01
 Side 1  free  transition at x/c =  0.0412   24
 Side 2  free  transition at x/c =  0.7816   59

  21   rms: 0.5732E+00   max: -.3208E+01   D at   60  1   RLX: 0.156
       a =  5.000      CL =  0.8357
      Cm = -0.1055     CD =  0.04951   =>   CDf =  0.00346    CDp =  0.04605

 MRCHDU: Convergence failed at  60  side 1    Res =  0.2606E+00
 MRCHDU: Convergence failed at  61  side 1    Res =  0.1989E+00
 MRCHDU: Convergence failed at  62  side 1    Res =  0.1704E+00
 MRCHDU: Convergence failed at  63  side 1    Res =  0.1609E+00
 MRCHDU: Convergence failed at  64  side 1    Res =  0.1603E+00
 MRCHDU: Convergence failed at  65  side 1    Res =  0.1764E+00
 Side 1  free  transition at x/c =  0.0428   24
 Side 2  free  transition at x/c =  0.7828   59

  22   rms: 0.1265E+01   max: -.3580E+01   D at   39  1   RLX: 0.140
       a =  5.000      CL =  0.7729
      Cm = -0.0434     CD =  0.04318   =>   CDf =  0.00261    CDp =  0.04056

 Side 1  free  transition at x/c =  0.0413   25
 Side 2  free  transition at x/c =  0.7853   58

  23   rms: 0.9248E+00   max: -.3179E+01   D at   37  1   RLX: 0.157
       a =  5.000      CL =  0.7291
      Cm = -0.0295     CD =  0.03139   =>   CDf =  0.00382    CDp =  0.02758

 Side 1  free  transition at x/c =  0.0428   25
 Side 2  free  transition at x/c =  0.7863   58

  24   rms: 0.1257E+01   max: 0.5720E+01   D at   35  1   RLX: 0.111
       a =  5.000      CL =  0.7189
      Cm = -0.0335     CD =  0.03954   =>   CDf =  0.00449    CDp =  0.03505

 MRCHDU: Convergence failed at  34  side 1    Res =  0.7274E-03
 Side 1  free  transition at x/c =  0.0431   25
 Side 2  free  transition at x/c =  0.7850   58
 idif Ue xi dudx           1  0.14734329      3.13866138E-03   46.944630    
 Uenew xinew           2  1.09462375E-02  2.33173370E-04

  25   rms: 0.2814E+00   max: -.1032E+01   D at   28  1   RLX: 0.485
       a =  5.000      CL =  0.6869
      Cm = -0.0336     CD =  0.02584   =>   CDf =  0.00638    CDp =  0.01946

 Side 1  free  transition at x/c =  0.0487   25
 Side 2  free  transition at x/c =  0.7833   59

  26   rms: 0.3449E+00   max: -.1295E+01   D at   72  1   RLX: 0.386
       a =  5.000      CL =  0.7116
      Cm = -0.0358     CD =  0.01867   =>   CDf =  0.00593    CDp =  0.01274

 Side 1  free  transition at x/c =  0.0486   26
 Side 2  free  transition at x/c =  0.7812   58

  27   rms: 0.6323E+00   max: -.2924E+01   D at   77  1   RLX: 0.171
       a =  5.000      CL =  0.7246
      Cm = -0.0322     CD =  0.01566   =>   CDf =  0.00630    CDp =  0.00935

 Side 1  free  transition at x/c =  0.0477   26
 Side 2  free  transition at x/c =  0.7799   58

  28   rms: 0.3357E+00   max: -.1536E+01   D at   82  1   RLX: 0.326
       a =  5.000      CL =  0.7569
      Cm = -0.0431     CD =  0.01449   =>   CDf =  0.00662    CDp =  0.00787

 Side 1  free  transition at x/c =  0.0466   26
 Side 2  free  transition at x/c =  0.7786   58

  29   rms: 0.1630E+00   max: -.9190E+00   D at   82  1   RLX: 0.544
       a =  5.000      CL =  0.7760
      Cm = -0.0547     CD =  0.01428   =>   CDf =  0.00688    CDp =  0.00740

 MRCHDU: Convergence failed at  26  side 1    Res =  0.3363E+02
 MRCHDU: Convergence failed at  27  side 1    Res =  0.3892E+02
 MRCHDU: Convergence failed at  28  side 1    Res =  0.3376E+01
 MRCHDU: Convergence failed at  29  side 1    Res =  0.2477E+01
 MRCHDU: Convergence failed at  30  side 1    Res =  0.2306E+01
 MRCHDU: Convergence failed at  31  side 1    Res =  0.2511E+01
 MRCHDU: Convergence failed at  32  side 1    Res =  0.2718E+01
 MRCHDU: Convergence failed at  33  side 1    Res =  0.3343E+01
 MRCHDU: Convergence failed at  34  side 1    Res =  0.4154E+01
 MRCHDU: Convergence failed at  35  side 1    Res =  0.4582E+01
 MRCHDU: Convergence failed at  36  side 1    Res =  0.5290E+01
 MRCHDU: Convergence failed at  37  side 1    Res =  0.6069E+01
 MRCHDU: Convergence failed at  38  side 1    Res =  0.7074E+01
 MRCHDU: Convergence failed at  39  side 1    Res =  0.8215E+01
 MRCHDU: Convergence failed at  40  side 1    Res =  0.8725E+01
 MRCHDU: Convergence failed at  41  side 1    Res =  0.1056E+02
 MRCHDU: Convergence failed at  42  side 1    Res =  0.1182E+02
 MRCHDU: Convergence failed at  43  side 1    Res =  0.1934E+02
 MRCHDU: Convergence failed at  44  side 1    Res =  0.2199E+02
 MRCHDU: Convergence failed at  45  side 1    Res =  0.3225E+02
 MRCHDU: Convergence failed at  46  side 1    Res =  0.1707E+02
 MRCHDU: Convergence failed at  47  side 1    Res =  0.1780E+02
 MRCHDU: Convergence failed at  48  side 1    Res =  0.1870E+02
 MRCHDU: Convergence failed at  49  side 1    Res =  0.1950E+02
 MRCHDU: Convergence failed at  50  side 1    Res =  0.2177E+02
 MRCHDU: Convergence failed at  51  side 1    Res =  0.3186E+02
 MRCHDU: Convergence failed at  52  side 1    Res =  0.3401E+02
 MRCHDU: Convergence failed at  53  side 1    Res =  0.3641E+02
 MRCHDU: Convergence failed at  54  side 1    Res =  0.3707E+02
 MRCHDU: Convergence failed at  55  side 1    Res =  0.4412E+02
 MRCHDU: Convergence failed at  56  side 1    Res =  0.6790E+02
 MRCHDU: Convergence failed at  57  side 1    Res =  0.5097E+02
 MRCHDU: Convergence failed at  58  side 1    Res =  0.8123E+02
 MRCHDU: Convergence failed at  59  side 1    Res =  0.2599E+02
 MRCHDU: Convergence failed at  60  side 1    Res =  0.5988E+02
 MRCHDU: Convergence failed at  61  side 1    Res =  0.4574E+02
 MRCHDU: Convergence failed at  62  side 1    Res =  0.2565E+05
 MRCHDU: Convergence failed at  63  side 1    Res =  0.1301E+04
 MRCHDU: Convergence failed at  64  side 1    Res =  0.2371E+02
 MRCHDU: Convergence failed at  65  side 1    Res =  0.3713E+02
 MRCHDU: Convergence failed at  66  side 1    Res =  0.4029E+02
 MRCHDU: Convergence failed at  67  side 1    Res =  0.1067E+03
 MRCHDU: Convergence failed at  68  side 1    Res =  0.1627E+02
 MRCHDU: Convergence failed at  69  side 1    Res =  0.2190E+02
 MRCHDU: Convergence failed at  70  side 1    Res =  0.5664E+02
 MRCHDU: Convergence failed at  71  side 1    Res =  0.1152E+03
 MRCHDU: Convergence failed at  72  side 1    Res =  0.5528E+02
 MRCHDU: Convergence failed at  73  side 1    Res =  0.7861E+02
 MRCHDU: Convergence failed at  74  side 1    Res =  0.6218E+02
 MRCHDU: Convergence failed at  75  side 1    Res =  0.4862E+03
 MRCHDU: Convergence failed at  76  side 1    Res =  0.2964E+03
 MRCHDU: Convergence failed at  77  side 1    Res =  0.1856E+02
 MRCHDU: Convergence failed at  78  side 1    Res =  0.2094E+02
 MRCHDU: Convergence failed at  79  side 1    Res =  0.2629E+02
 MRCHDU: Convergence failed at  80  side 1    Res =  0.3517E+02
 MRCHDU: Convergence failed at  81  side 1    Res =  0.3130E+02
 MRCHDU: Convergence failed at  82  side 1    Res =  0.3332E+02
 MRCHDU: Convergence failed at  83  side 1    Res =  0.1854E+02
 MRCHDU: Convergence failed at  84  side 1    Res =  0.2040E+02
 MRCHDU: Convergence failed at  85  side 1    Res =  0.7456E+02
 MRCHDU: Convergence failed at  86  side 1    Res =  0.4115E+02
 MRCHDU: Convergence failed at  87  side 1    Res =  0.3255E+03
 MRCHDU: Convergence failed at  88  side 1    Res =  0.1226E+03
 Side 1  free  transition at x/c =  0.0446   25
 Side 2  free  transition at x/c =  0.7776   58

[...]

   4   rms: 0.4732E-03   max: -.1811E-02   D at   92  2
       a = 13.500      CL =  0.8798
      Cm = -0.0947     CD =  0.17344   =>   CDf =  0.00213    CDp =  0.17131

 Side 1  free  transition at x/c =  0.0267   25
 Side 2  free  transition at x/c =  0.8665   62

   5   rms: 0.3135E-04   max: -.3030E-03   D at   62  2
       a = 13.500      CL =  0.8798
      Cm = -0.0947     CD =  0.17347   =>   CDf =  0.00213    CDp =  0.17134
 plradd ia,ip,cpol           44           0  1.75723550E-03

 Point added to stored polar  1
 Point written to save file  sc20410_Re500k.base.pol                         
 Dump file unspecified or not available
 Calculating wake trajectory ...
 Calculating source influence matrix ...

 Solving BL system ...

 Side 1  free  transition at x/c =  0.0267   25
 Side 2  free  transition at x/c =  0.8665   62

   1   rms: 0.2747E-01   max: 0.1884E+00   T at   25  1   RLX: 0.505
       a = 13.750      CL =  0.8835
      Cm = -0.0950     CD =  0.17523   =>   CDf =  0.00197    CDp =  0.17326

 Side 1  free  transition at x/c =  0.0266   26
 Side 2  free  transition at x/c =  0.8686   61

   2   rms: 0.1584E-01   max: 0.1330E+00   T at    2  1
       a = 13.750      CL =  0.8874
      Cm = -0.0952     CD =  0.17651   =>   CDf =  0.00212    CDp =  0.17440

 Side 1  free  transition at x/c =  0.0265   26
 Side 2  free  transition at x/c =  0.8709   61

   3   rms: 0.1020E-02   max: 0.7608E-02   T at   26  1
       a = 13.750      CL =  0.8874
      Cm = -0.0952     CD =  0.17622   =>   CDf =  0.00211    CDp =  0.17412

 Side 1  free  transition at x/c =  0.0265   26
 Side 2  free  transition at x/c =  0.8710   61

   4   rms: 0.8209E-04   max: -.2544E-03   T at   26  1
       a = 13.750      CL =  0.8874
      Cm = -0.0953     CD =  0.17620   =>   CDf =  0.00211    CDp =  0.17410
 plradd ia,ip,cpol           45           0  1.75723550E-03

 Point added to stored polar  1
 Point written to save file  sc20410_Re500k.base.pol                         
 Dump file unspecified or not available
 Calculating wake trajectory ...
 Calculating source influence matrix ...

 Solving BL system ...

 Side 1  free  transition at x/c =  0.0265   26
 Side 2  free  transition at x/c =  0.8710   61

   1   rms: 0.2984E-01   max: 0.2029E+00   T at   26  1   RLX: 0.494
       a = 14.000      CL =  0.8908
      Cm = -0.0954     CD =  0.17792   =>   CDf =  0.00211    CDp =  0.17582

 Side 1  free  transition at x/c =  0.0264   26
 Side 2  free  transition at x/c =  0.8732   61

   2   rms: 0.1665E-01   max: 0.1305E+00   T at   26  1
       a = 14.000      CL =  0.8943
      Cm = -0.0956     CD =  0.17943   =>   CDf =  0.00210    CDp =  0.17733

 Side 1  free  transition at x/c =  0.0262   26
 Side 2  free  transition at x/c =  0.8756   61

   3   rms: 0.6507E-02   max: -.2495E-01   D at   26  1
       a = 14.000      CL =  0.8934
      Cm = -0.0955     CD =  0.17841   =>   CDf =  0.00210    CDp =  0.17631

 Side 1  free  transition at x/c =  0.0262   26
 Side 2  free  transition at x/c =  0.8757   61

   4   rms: 0.2478E-02   max: 0.1238E-01   T at   26  1
       a = 14.000      CL =  0.8943
      Cm = -0.0954     CD =  0.17896   =>   CDf =  0.00210    CDp =  0.17686

 Side 1  free  transition at x/c =  0.0262   26
 Side 2  free  transition at x/c =  0.8757   61

   5   rms: 0.1480E-03   max: -.1071E-02   D at   92  2
       a = 14.000      CL =  0.8943
      Cm = -0.0954     CD =  0.17911   =>   CDf =  0.00210    CDp =  0.17701

 Side 1  free  transition at x/c =  0.0262   26
 Side 2  free  transition at x/c =  0.8757   61

   6   rms: 0.1735E-04   max: 0.7807E-04   T at   26  1
       a = 14.000      CL =  0.8943
      Cm = -0.0954     CD =  0.17912   =>   CDf =  0.00210    CDp =  0.17702
 plradd ia,ip,cpol           46           0  1.75723550E-03

 Point added to stored polar  1
 Point written to save file  sc20410_Re500k.base.pol                         
 Dump file unspecified or not available
 Calculating wake trajectory ...
 Calculating source influence matrix ...

 Solving BL system ...

 Side 1  free  transition at x/c =  0.0262   26
 Side 2  free  transition at x/c =  0.8757   61

   1   rms: 0.5435E-01   max: 0.4077E+00   T at   26  1   RLX: 0.483
       a = 14.250      CL =  0.8964
      Cm = -0.0949     CD =  0.18083   =>   CDf =  0.00210    CDp =  0.17873

 Side 1  free  transition at x/c =  0.0260   25
 Side 2  free  transition at x/c =  0.8776   62

   2   rms: 0.7496E-01   max: 0.3021E+00   D at   26  1
       a = 14.250      CL =  0.9014
      Cm = -0.0994     CD =  0.19567   =>   CDf =  0.00210    CDp =  0.19357

 Side 1  free  transition at x/c =  0.0259   25
 Side 2  free  transition at x/c =  0.8796   62

   3   rms: 0.6155E-01   max: 0.2896E+00   D at   26  1
       a = 14.250      CL =  0.8982
      Cm = -0.0992     CD =  0.19419   =>   CDf =  0.00208    CDp =  0.19211

 Side 1  free  transition at x/c =  0.0260   25
 Side 2  free  transition at x/c =  0.8796   62

   4   rms: 0.1610E-01   max: -.5487E-01   D at   27  1
       a = 14.250      CL =  0.8926
      Cm = -0.0975     CD =  0.18401   =>   CDf =  0.00208    CDp =  0.18192

 Side 1  free  transition at x/c =  0.0260   25
 Side 2  free  transition at x/c =  0.8792   62

   5   rms: 0.1939E-01   max: 0.8743E-01   D at   26  1
       a = 14.250      CL =  0.8973
      Cm = -0.0983     CD =  0.18763   =>   CDf =  0.00209    CDp =  0.18554

 Side 1  free  transition at x/c =  0.0260   25
 Side 2  free  transition at x/c =  0.8793   62

   6   rms: 0.5428E-02   max: 0.2487E-01   D at   91  2
       a = 14.250      CL =  0.8947
      Cm = -0.0981     CD =  0.18597   =>   CDf =  0.00208    CDp =  0.18388

 Side 1  free  transition at x/c =  0.0260   25
 Side 2  free  transition at x/c =  0.8793   62

   7   rms: 0.6770E-03   max: 0.4820E-02   D at   91  2
       a = 14.250      CL =  0.8946
      Cm = -0.0981     CD =  0.18532   =>   CDf =  0.00209    CDp =  0.18323

 Side 1  free  transition at x/c =  0.0260   25
 Side 2  free  transition at x/c =  0.8792   62

   8   rms: 0.5263E-04   max: 0.4237E-03   D at   91  2
       a = 14.250      CL =  0.8946
      Cm = -0.0981     CD =  0.18525   =>   CDf =  0.00209    CDp =  0.18317
 plradd ia,ip,cpol           47           0  9.25492379E-04

 Point added to stored polar  1
 Point written to save file  sc20410_Re500k.base.pol                         
 Dump file unspecified or not available
 Calculating wake trajectory ...
 Calculating source influence matrix ...

 Solving BL system ...

 Side 1  free  transition at x/c =  0.0260   25
 Side 2  free  transition at x/c =  0.8792   62

   1   rms: 0.2333E-01   max: 0.9232E-01   T at   25  1   RLX: 0.470
       a = 14.500      CL =  0.8968
      Cm = -0.0995     CD =  0.18896   =>   CDf =  0.00209    CDp =  0.18687

 Side 1  free  transition at x/c =  0.0259   25
 Side 2  free  transition at x/c =  0.8812   62

   2   rms: 0.2761E-01   max: 0.9064E-01   D at   27  1
       a = 14.500      CL =  0.8995
      Cm = -0.1021     CD =  0.19490   =>   CDf =  0.00207    CDp =  0.19283

 Side 1  free  transition at x/c =  0.0257   25
 Side 2  free  transition at x/c =  0.8833   62

   3   rms: 0.3892E-01   max: 0.2122E+00   D at   26  1
       a = 14.500      CL =  0.8995
      Cm = -0.1033     CD =  0.19732   =>   CDf =  0.00206    CDp =  0.19526

 Side 1  free  transition at x/c =  0.0257   25
 Side 2  free  transition at x/c =  0.8827   62

   4   rms: 0.1967E-01   max: 0.1103E+00   T at   26  1
       a = 14.500      CL =  0.8965
      Cm = -0.1023     CD =  0.19352   =>   CDf =  0.00207    CDp =  0.19145

 Side 1  free  transition at x/c =  0.0258   25
 Side 2  free  transition at x/c =  0.8826   62

   5   rms: 0.8484E-02   max: 0.4647E-01   T at   26  1
       a = 14.500      CL =  0.8967
      Cm = -0.1023     CD =  0.19227   =>   CDf =  0.00207    CDp =  0.19020

 Side 1  free  transition at x/c =  0.0258   25
 Side 2  free  transition at x/c =  0.8832   62

   6   rms: 0.2951E-02   max: -.1604E-01   T at   25  1
       a = 14.500      CL =  0.8960
      Cm = -0.1021     CD =  0.19098   =>   CDf =  0.00207    CDp =  0.18891

 Side 1  free  transition at x/c =  0.0259   25
 Side 2  free  transition at x/c =  0.8833   62

   7   rms: 0.1172E-02   max: 0.6277E-02   D at   26  1
       a = 14.500      CL =  0.8965
      Cm = -0.1022     CD =  0.19132   =>   CDf =  0.00207    CDp =  0.18925

 Side 1  free  transition at x/c =  0.0258   25
 Side 2  free  transition at x/c =  0.8833   62

   8   rms: 0.3956E-03   max: 0.2175E-02   T at   26  1
       a = 14.500      CL =  0.8963
      Cm = -0.1021     CD =  0.19122   =>   CDf =  0.00207    CDp =  0.18915

 Side 1  free  transition at x/c =  0.0258   25
 Side 2  free  transition at x/c =  0.8833   62

   9   rms: 0.3157E-04   max: -.2818E-03   C at   62  2
       a = 14.500      CL =  0.8963
      Cm = -0.1021     CD =  0.19119   =>   CDf =  0.00207    CDp =  0.18912
 plradd ia,ip,cpol           48           0  9.25492379E-04

 Point added to stored polar  1
 Point written to save file  sc20410_Re500k.base.pol                         
 Dump file unspecified or not available
 Calculating wake trajectory ...
 Calculating source influence matrix ...

 Solving BL system ...

 Side 1  free  transition at x/c =  0.0258   25
 Side 2  free  transition at x/c =  0.8833   62

   1   rms: 0.6535E-01   max: 0.3653E+00   T at   25  1   RLX: 0.458
       a = 14.750      CL =  0.8974
      Cm = -0.1050     CD =  0.19682   =>   CDf =  0.00207    CDp =  0.19475

 Side 1  free  transition at x/c =  0.0253   25
 Side 2  free  transition at x/c =  0.8850   62

   2   rms: 0.8368E-01   max: 0.5831E+00   T at   25  1
       a = 14.750      CL =  0.8973
      Cm = -0.1114     CD =  0.21062   =>   CDf =  0.00206    CDp =  0.20856

 Side 1  free  transition at x/c =  0.0235   25
 Side 2  free  transition at x/c =  0.8856   62

   3   rms: 0.3129E-01   max: -.1852E+00   D at   25  1
       a = 14.750      CL =  0.8849
      Cm = -0.1092     CD =  0.19590   =>   CDf =  0.00207    CDp =  0.19383

 Side 1  free  transition at x/c =  0.0242   25
 Side 2  free  transition at x/c =  0.8865   62

   4   rms: 0.1547E-01   max: -.4600E-01   D at   92  2
       a = 14.750      CL =  0.8933
      Cm = -0.1091     CD =  0.19686   =>   CDf =  0.00208    CDp =  0.19478

 Side 1  free  transition at x/c =  0.0241   25
 Side 2  free  transition at x/c =  0.8868   62

   5   rms: 0.1860E-02   max: -.1260E-01   D at   92  2
       a = 14.750      CL =  0.8939
      Cm = -0.1091     CD =  0.19852   =>   CDf =  0.00207    CDp =  0.19645

 Side 1  free  transition at x/c =  0.0241   25
 Side 2  free  transition at x/c =  0.8871   62

   6   rms: 0.1165E-03   max: 0.1450E-02   D at   63  2
       a = 14.750      CL =  0.8939
      Cm = -0.1091     CD =  0.19865   =>   CDf =  0.00207    CDp =  0.19658

 Side 1  free  transition at x/c =  0.0241   25
 Side 2  free  transition at x/c =  0.8871   62

   7   rms: 0.2295E-05   max: 0.2188E-04   D at   63  2
       a = 14.750      CL =  0.8939
      Cm = -0.1091     CD =  0.19864   =>   CDf =  0.00207    CDp =  0.19658
 plradd ia,ip,cpol           49           0  9.25492379E-04

 Point added to stored polar  1
 Point written to save file  sc20410_Re500k.base.pol                         
 Dump file unspecified or not available
 Calculating wake trajectory ...
 Calculating source influence matrix ...

 Solving BL system ...

 Side 1  free  transition at x/c =  0.0241   25
 Side 2  free  transition at x/c =  0.8871   62

   1   rms: 0.1978E-01   max: 0.2916E+00   T at   25  1   RLX: 0.447
       a = 15.000      CL =  0.8969
      Cm = -0.1102     CD =  0.20156   =>   CDf =  0.00207    CDp =  0.19949

 Side 1  free  transition at x/c =  0.0237   25
 Side 2  free  transition at x/c =  0.8895   62

   2   rms: 0.9594E-02   max: 0.1211E+00   T at   25  1
       a = 15.000      CL =  0.9009
      Cm = -0.1114     CD =  0.20382   =>   CDf =  0.00206    CDp =  0.20176

 Side 1  free  transition at x/c =  0.0233   25
 Side 2  free  transition at x/c =  0.8916   63

   3   rms: 0.8457E-02   max: -.1089E+00   C at   63  2
       a = 15.000      CL =  0.9002
      Cm = -0.1113     CD =  0.20252   =>   CDf =  0.00207    CDp =  0.20044

 Side 1  free  transition at x/c =  0.0234   25
 Side 2  free  transition at x/c =  0.8926   63

   4   rms: 0.1236E-02   max: -.1728E-01   D at   64  2
       a = 15.000      CL =  0.9003
      Cm = -0.1113     CD =  0.20249   =>   CDf =  0.00205    CDp =  0.20044

 Side 1  free  transition at x/c =  0.0234   25
 Side 2  free  transition at x/c =  0.8923   63

   5   rms: 0.3689E-04   max: -.5295E-03   D at   64  2
       a = 15.000      CL =  0.9003
      Cm = -0.1113     CD =  0.20253   =>   CDf =  0.00205    CDp =  0.20048
 plradd ia,ip,cpol           50           0  9.25492379E-04

 Point added to stored polar  1
 Point written to save file  sc20410_Re500k.base.pol                         
 Dump file unspecified or not available
 Calculating wake trajectory ...
 Calculating source influence matrix ...

 Solving BL system ...

 Side 1  free  transition at x/c =  0.0234   25
 Side 2  free  transition at x/c =  0.8923   63

   1   rms: 0.2032E-01   max: 0.2461E+00   T at   25  1   RLX: 0.438
       a = 15.250      CL =  0.9031
      Cm = -0.1121     CD =  0.20501   =>   CDf =  0.00205    CDp =  0.20296

 Side 1  free  transition at x/c =  0.0231   25
 Side 2  free  transition at x/c =  0.8946   63

   2   rms: 0.1149E-01   max: 0.1222E+00   T at   25  1
       a = 15.250      CL =  0.9073
      Cm = -0.1131     CD =  0.20715   =>   CDf =  0.00204    CDp =  0.20511

 Side 1  free  transition at x/c =  0.0227   25
 Side 2  free  transition at x/c =  0.8980   63

   3   rms: 0.2070E-02   max: -.1832E-01   D at   63  2
       a = 15.250      CL =  0.9068
      Cm = -0.1131     CD =  0.20592   =>   CDf =  0.00202    CDp =  0.20390

 Side 1  free  transition at x/c =  0.0228   25
 Side 2  free  transition at x/c =  0.8979   63

   4   rms: 0.4063E-03   max: 0.1327E-02   T at   25  1
       a = 15.250      CL =  0.9070
      Cm = -0.1131     CD =  0.20592   =>   CDf =  0.00202    CDp =  0.20390

 Side 1  free  transition at x/c =  0.0228   25
 Side 2  free  transition at x/c =  0.8979   63

   5   rms: 0.4226E-04   max: 0.4711E-03   D at   63  2
       a = 15.250      CL =  0.9070
      Cm = -0.1131     CD =  0.20598   =>   CDf =  0.00202    CDp =  0.20396
 plradd ia,ip,cpol           51           0  9.25492379E-04

 Point added to stored polar  1
 Point written to save file  sc20410_Re500k.base.pol                         
 Dump file unspecified or not available
 Calculating wake trajectory ...
 Calculating source influence matrix ...

 Solving BL system ...

 Side 1  free  transition at x/c =  0.0228   25
 Side 2  free  transition at x/c =  0.8979   63

   1   rms: 0.2009E-01   max: 0.1921E+00   T at   25  1   RLX: 0.430
       a = 15.500      CL =  0.9099
      Cm = -0.1138     CD =  0.20825   =>   CDf =  0.00202    CDp =  0.20623

 Side 1  free  transition at x/c =  0.0226   25
 Side 2  free  transition at x/c =  0.9007   63

   2   rms: 0.1143E-01   max: 0.1024E+00   T at   25  1
       a = 15.500      CL =  0.9147
      Cm = -0.1148     CD =  0.21036   =>   CDf =  0.00201    CDp =  0.20835

 Side 1  free  transition at x/c =  0.0224   25
 Side 2  free  transition at x/c =  0.9046   63

   3   rms: 0.2320E-02   max: -.2432E-01   C at   63  2
       a = 15.500      CL =  0.9141
      Cm = -0.1148     CD =  0.20923   =>   CDf =  0.00201    CDp =  0.20722

 Side 1  free  transition at x/c =  0.0224   25
 Side 2  free  transition at x/c =  0.9045   63

   4   rms: 0.3909E-03   max: 0.1178E-02   T at   25  1
       a = 15.500      CL =  0.9144
      Cm = -0.1148     CD =  0.20925   =>   CDf =  0.00200    CDp =  0.20724

 Side 1  free  transition at x/c =  0.0224   25
 Side 2  free  transition at x/c =  0.9045   63

   5   rms: 0.5218E-04   max: 0.4581E-03   C at   63  2
       a = 15.500      CL =  0.9144
      Cm = -0.1148     CD =  0.20930   =>   CDf =  0.00200    CDp =  0.20730
 plradd ia,ip,cpol           52           0  9.25492379E-04

 Point added to stored polar  1
 Point written to save file  sc20410_Re500k.base.pol                         
 Dump file unspecified or not available
 Calculating wake trajectory ...
 Calculating source influence matrix ...

 Solving BL system ...

 Side 1  free  transition at x/c =  0.0224   25
 Side 2  free  transition at x/c =  0.9045   63

   1   rms: 0.2211E-01   max: 0.2120E+00   T at   25  1   RLX: 0.423
       a = 15.750      CL =  0.9175
      Cm = -0.1155     CD =  0.21131   =>   CDf =  0.00200    CDp =  0.20930

 Side 1  free  transition at x/c =  0.0222   25
 Side 2  free  transition at x/c =  0.9067   64

   2   rms: 0.1875E-01   max: -.2174E+00   C at   64  2
       a = 15.750      CL =  0.9220
      Cm = -0.1161     CD =  0.21300   =>   CDf =  0.00201    CDp =  0.21099

 Side 1  free  transition at x/c =  0.0220   25
 Side 2  free  transition at x/c =  0.9121   64

   3   rms: 0.2757E-02   max: -.2945E-01   D at   64  2
       a = 15.750      CL =  0.9214
      Cm = -0.1161     CD =  0.21195   =>   CDf =  0.00196    CDp =  0.20999

 Side 1  free  transition at x/c =  0.0220   25
 Side 2  free  transition at x/c =  0.9118   64

   4   rms: 0.7005E-03   max: -.2537E-02   D at   92  2
       a = 15.750      CL =  0.9218
      Cm = -0.1161     CD =  0.21214   =>   CDf =  0.00197    CDp =  0.21017

 Side 1  free  transition at x/c =  0.0220   25
 Side 2  free  transition at x/c =  0.9117   64

   5   rms: 0.7653E-04   max: 0.8105E-03   D at   64  2
       a = 15.750      CL =  0.9218
      Cm = -0.1161     CD =  0.21223   =>   CDf =  0.00197    CDp =  0.21026
 plradd ia,ip,cpol           53           0  9.25492379E-04

 Point added to stored polar  1
 Point written to save file  sc20410_Re500k.base.pol                         
 Dump file unspecified or not available
 Calculating wake trajectory ...
 Calculating source influence matrix ...

 Solving BL system ...

 Side 1  free  transition at x/c =  0.0220   25
 Side 2  free  transition at x/c =  0.9118   64

   1   rms: 0.2697E-01   max: -.2440E+00   C at   64  2   RLX: 0.416
       a = 16.000      CL =  0.9246
      Cm = -0.1166     CD =  0.21402   =>   CDf =  0.00197    CDp =  0.21205

 Side 1  free  transition at x/c =  0.0219   25
 Side 2  free  transition at x/c =  0.9155   64

   2   rms: 0.1622E-01   max: -.1467E+00   C at   64  2
       a = 16.000      CL =  0.9299
      Cm = -0.1172     CD =  0.21570   =>   CDf =  0.00195    CDp =  0.21375

 Side 1  free  transition at x/c =  0.0218   25
 Side 2  free  transition at x/c =  0.9194   64

   3   rms: 0.1322E-01   max: -.2322E+00   C at   64  2
       a = 16.000      CL =  0.9296
      Cm = -0.1172     CD =  0.21442   =>   CDf =  0.00196    CDp =  0.21246

 Side 1  free  transition at x/c =  0.0218   25
 Side 2  free  transition at x/c =  0.9197   65

   4   rms: 0.1119E-01   max: -.1776E+00   C at   65  2
       a = 16.000      CL =  0.9299
      Cm = -0.1171     CD =  0.21483   =>   CDf =  0.00196    CDp =  0.21287

 Side 1  free  transition at x/c =  0.0218   25
 Side 2  free  transition at x/c =  0.9218   65

   5   rms: 0.1563E-02   max: 0.2824E-01   C at   65  2
       a = 16.000      CL =  0.9299
      Cm = -0.1170     CD =  0.21501   =>   CDf =  0.00193    CDp =  0.21309

 Side 1  free  transition at x/c =  0.0218   25
 Side 2  free  transition at x/c =  0.9213   65

   6   rms: 0.1802E-04   max: -.2670E-03   D at   66  2
       a = 16.000      CL =  0.9298
      Cm = -0.1170     CD =  0.21502   =>   CDf =  0.00193    CDp =  0.21309
 plradd ia,ip,cpol           54           0  9.25492379E-04

 Point added to stored polar  1
 Point written to save file  sc20410_Re500k.base.pol                         
 Dump file unspecified or not available

.OPERva   c>  
 Polar accumulation disabled

.OPERv   c>  
 XFOIL   c>  
 XFOIL   c>  