
 ===================================================
  XFOIL Version 6.99
  Copyright (C) 2000   Mark Drela, Harold Youngren

  This software comes with ABSOLUTELY NO WARRANTY,
    subject to the GNU General Public License.

  Caveat computor
 ===================================================

 File  xfoil.def  not found

   QUIT    Exit program

  .OPER    Direct operating point(s)
  .MDES    Complex mapping design routine
  .QDES    Surface speed design routine
  .GDES    Geometry design routine

   SAVE f  Write airfoil to labeled coordinate file
   PSAV f  Write airfoil to plain coordinate file
   ISAV f  Write airfoil to ISES coordinate file
   MSAV f  Write airfoil to MSES coordinate file
   REVE    Reverse written-airfoil node ordering

   LOAD f  Read buffer airfoil from coordinate file
   NACA i  Set NACA 4,5-digit airfoil and buffer airfoil
   INTE    Set buffer airfoil by interpolating two airfoils
   NORM    Buffer airfoil normalization toggle
   XYCM rr Change CM reference location, currently  0.25000 0.00000

   BEND    Display structural properties of current airfoil

   PCOP    Set current-airfoil panel nodes directly from buffer airfoil points
   PANE    Set current-airfoil panel nodes ( 160 ) based on curvature
  .PPAR    Show/change paneling

  .PLOP    Plotting options

   WDEF f  Write  current-settings file
   RDEF f  Reread current-settings file
   NAME s  Specify new airfoil name
   NINC    Increment name version number

   Z       Zoom    | (available in all menus)
   U       Unzoom  | 

 XFOIL   c>  
 Labeled airfoil file.  Name:  NASA SC(2)-0712 AIRFOIL                         

 Number of input coordinate points: 205
 Counterclockwise ordering
 Max thickness =     0.119921  at x =   0.378
 Max camber    =     0.022049  at x =   0.811

  LE  x,y  =   0.00000   0.00032  |   Chord =   1.00011
  TE  x,y  =   1.00000  -0.01470  |

 Current airfoil nodes set from buffer airfoil nodes ( 205 )

 XFOIL   c>  
 XFOIL   c>  
 Blunt trailing edge.  Gap =  0.00600

 Paneling parameters used...
   Number of panel nodes       160
   Panel bunching parameter    1.000
   TE/LE panel density ratio   0.150
   Refined-area/LE panel density ratio    0.200
   Top    side refined area x/c limits  1.000 1.000
   Bottom side refined area x/c limits  1.000 1.000

 XFOIL   c>  
.OPERi   c>  
 Xtr/c     =  1.0000    top    side
 Xtr/c     =  1.0000    bottom side
 Ncrit     =    9.00   ( 0.070 % turb. level )
 Vacc      =  0.0100

 Klag  =  5.6000     Uxwt  =    1.00
 A     =  6.7000     B     =  0.7500       KCt = 0.01485
 CtiniK=  1.8000     CtiniX=  3.3000

..VPAR   c>  
..VPAR   c>  
.OPERi   c>  
 M  =    0.0000
 Re =    300000

.OPERv   c>  
.OPERv   c>  
.OPERv   c>  
 Polar  1 newly created for accumulation
 Airfoil archived with polar: NASA SC(2)-0712 AIRFOIL                         

Enter  polar save filename  OR  <return> for no file   s>  
 New polar save file available

Enter  polar dump filename  OR  <return> for no file   s>  
 Polar dump file will NOT be written

 Polar accumulation enabled

.OPERva   c>   Calculating unit vorticity distributions ...
 Calculating wake trajectory ...
 Calculating source influence matrix ...

 Solving BL system ...

 Initializing BL ...
    side            1  ...
 MRCHUE: Inverse mode at  67     Hk =   3.800
 MRCHUE: Inverse mode at  68     Hk =   4.235
 MRCHUE: Inverse mode at  69     Hk =   4.664
 MRCHUE: Inverse mode at  70     Hk =   5.089
 MRCHUE: Inverse mode at  71     Hk =   5.511
 MRCHUE: Inverse mode at  72     Hk =   5.928
 MRCHUE: Inverse mode at  73     Hk =   6.336
 MRCHUE: Inverse mode at  74     Hk =   6.727
 MRCHUE: Inverse mode at  75     Hk =   7.093
 MRCHUE: Inverse mode at  76     Hk =   7.423
 MRCHUE: Inverse mode at  77     Hk =   7.713
 MRCHUE: Inverse mode at  78     Hk =   7.883
    side            2  ...
 MRCHUE: Inverse mode at  52     Hk =   3.800
 MRCHUE: Inverse mode at  53     Hk =   4.280
 MRCHUE: Inverse mode at  54     Hk =   4.740
 MRCHUE: Inverse mode at  55     Hk =   5.199
 MRCHUE: Inverse mode at  56     Hk =   5.670
 MRCHUE: Inverse mode at  57     Hk =   6.157
 MRCHUE: Inverse mode at  58     Hk =   6.643
 MRCHUE: Inverse mode at  59     Hk =   6.785
 MRCHUE: Inverse mode at  60     Hk =   4.467
 MRCHUE: Inverse mode at  61     Hk =   2.926
 MRCHUE: Inverse mode at  86     Hk =   2.731
 MRCHUE: Inverse mode at  87     Hk =   2.550

 Side 1 forced transition at x/c =  1.0000   78
 Side 2  free  transition at x/c =  0.6324   59
 idif Ue xi dudx           1  0.20590487      3.04400921E-03   67.642654    
 Uenew xinew           2  5.60664386E-02  8.28862190E-04

   1   rms: 0.2299E+00   max: 0.1099E+01   D at   88  2   RLX: 0.714
       a = -4.000      CL = -0.0028
      Cm = -0.1117     CD =  0.00869   =>   CDf =  0.00508    CDp =  0.00361

 MRCHDU: Convergence failed at  89  side 2    Res =  0.1326E+01
 MRCHDU: Convergence failed at  90  side 2    Res =  0.3813E+02
 MRCHDU: Convergence failed at  91  side 2    Res =  0.2324E+01
 MRCHDU: Convergence failed at  92  side 2    Res =  0.1153E+01
 MRCHDU: Convergence failed at  93  side 2    Res =  0.2016E+01
 Side 1 forced transition at x/c =  1.0000   77
 Side 2  free  transition at x/c =  0.6332   60

   2   rms: 0.1521E+00   max: 0.7186E+00   T at   93  2   RLX: 0.756
       a = -4.000      CL = -0.0967
      Cm = -0.0913     CD =  0.01105   =>   CDf =  0.00500    CDp =  0.00605

 Side 1 forced transition at x/c =  1.0000   77
 Side 2  free  transition at x/c =  0.6124   59
 idif Ue xi dudx           1  0.17444144      2.67481804E-03   65.216187    
 Uenew xinew           2  2.45514773E-02  3.76462936E-04

   3   rms: 0.6832E-01   max: -.4351E+00   D at   61  2
       a = -4.000      CL = -0.1379
      Cm = -0.0839     CD =  0.01318   =>   CDf =  0.00500    CDp =  0.00818

 Side 1  free  transition at x/c =  0.9771   74
 Side 2  free  transition at x/c =  0.6121   60

   4   rms: 0.1001E+00   max: -.6191E+00   T at   74  1   RLX: 0.808
       a = -4.000      CL = -0.0951
      Cm = -0.0921     CD =  0.01392   =>   CDf =  0.00475    CDp =  0.00917

 Side 1  free  transition at x/c =  0.9901   76
 Side 2  free  transition at x/c =  0.6197   60

   5   rms: 0.1018E-01   max: 0.9798E-01   D at   92  2
       a = -4.000      CL = -0.0942
      Cm = -0.0922     CD =  0.01290   =>   CDf =  0.00484    CDp =  0.00806

 Side 1  free  transition at x/c =  0.9894   76
 Side 2  free  transition at x/c =  0.6191   60

   6   rms: 0.4450E-03   max: 0.4833E-02   D at   93  2
       a = -4.000      CL = -0.0942
      Cm = -0.0922     CD =  0.01289   =>   CDf =  0.00485    CDp =  0.00804

 Side 1  free  transition at x/c =  0.9893   76
 Side 2  free  transition at x/c =  0.6190   60

   7   rms: 0.2346E-05   max: -.1863E-04   D at   93  2
       a = -4.000      CL = -0.0942
      Cm = -0.0922     CD =  0.01289   =>   CDf =  0.00485    CDp =  0.00804
 plradd ia,ip,cpol            1           0  1.69105493E-02

 Point added to stored polar  1
 Point written to save file  sc20712_Re300k.base.pol                         
 Dump file unspecified or not available
 Calculating wake trajectory ...
 Calculating source influence matrix ...

 Solving BL system ...

 Side 1  free  transition at x/c =  0.9893   76
 Side 2  free  transition at x/c =  0.6190   60

   1   rms: 0.1011E+00   max: 0.4827E+00   D at   61  2
       a = -3.500      CL = -0.0349
      Cm = -0.0922     CD =  0.01346   =>   CDf =  0.00485    CDp =  0.00861

 Side 1  free  transition at x/c =  0.9829   76
 Side 2  free  transition at x/c =  0.6344   61

   2   rms: 0.6596E-01   max: -.5068E+00   T at   61  2   RLX: 0.987
       a = -3.500      CL = -0.0275
      Cm = -0.0943     CD =  0.01310   =>   CDf =  0.00504    CDp =  0.00805

 Side 1  free  transition at x/c =  0.9845   76
 Side 2  free  transition at x/c =  0.6442   61

   3   rms: 0.4060E-01   max: -.3033E+00   D at   61  2
       a = -3.500      CL = -0.0259
      Cm = -0.0946     CD =  0.01346   =>   CDf =  0.00486    CDp =  0.00860

 Side 1  free  transition at x/c =  0.9844   76
 Side 2  free  transition at x/c =  0.6459   61

   4   rms: 0.3639E-02   max: 0.4108E-01   D at   62  2
       a = -3.500      CL = -0.0273
      Cm = -0.0942     CD =  0.01344   =>   CDf =  0.00484    CDp =  0.00860

 Side 1  free  transition at x/c =  0.9844   76
 Side 2  free  transition at x/c =  0.6443   61

   5   rms: 0.1437E-03   max: -.1573E-02   D at   62  2
       a = -3.500      CL = -0.0272
      Cm = -0.0942     CD =  0.01344   =>   CDf =  0.00485    CDp =  0.00859

 Side 1  free  transition at x/c =  0.9844   76
 Side 2  free  transition at x/c =  0.6443   61

   6   rms: 0.2212E-05   max: -.1733E-04   T at   61  2
       a = -3.500      CL = -0.0272
      Cm = -0.0942     CD =  0.01344   =>   CDf =  0.00485    CDp =  0.00859
 plradd ia,ip,cpol            2           0  1.69105493E-02

 Point added to stored polar  1
 Point written to save file  sc20712_Re300k.base.pol                         
 Dump file unspecified or not available
 Calculating wake trajectory ...
 Calculating source influence matrix ...

 Solving BL system ...

 Side 1  free  transition at x/c =  0.9844   76
 Side 2  free  transition at x/c =  0.6443   61

   1   rms: 0.9607E-01   max: -.3989E+00   T at   61  2
       a = -3.000      CL =  0.0434
      Cm = -0.0970     CD =  0.01401   =>   CDf =  0.00480    CDp =  0.00921

 Side 1  free  transition at x/c =  0.9811   76
 Side 2  free  transition at x/c =  0.6626   61

   2   rms: 0.2078E-01   max: 0.2018E+00   T at   76  1
       a = -3.000      CL =  0.0314
      Cm = -0.0944     CD =  0.01396   =>   CDf =  0.00486    CDp =  0.00911

 Side 1  free  transition at x/c =  0.9771   76
 Side 2  free  transition at x/c =  0.6621   61

   3   rms: 0.7450E-02   max: -.5398E-01   T at   76  1
       a = -3.000      CL =  0.0353
      Cm = -0.0952     CD =  0.01399   =>   CDf =  0.00484    CDp =  0.00915

 Side 1  free  transition at x/c =  0.9785   76
 Side 2  free  transition at x/c =  0.6624   61

   4   rms: 0.7610E-03   max: -.6222E-02   T at   76  1
       a = -3.000      CL =  0.0357
      Cm = -0.0953     CD =  0.01400   =>   CDf =  0.00484    CDp =  0.00916

 Side 1  free  transition at x/c =  0.9787   76
 Side 2  free  transition at x/c =  0.6624   61

   5   rms: 0.6405E-05   max: -.6774E-04   T at   76  1
       a = -3.000      CL =  0.0357
      Cm = -0.0953     CD =  0.01400   =>   CDf =  0.00484    CDp =  0.00916
 plradd ia,ip,cpol            3           0  2.03306470E-02

 Point added to stored polar  1
 Point written to save file  sc20712_Re300k.base.pol                         
 Dump file unspecified or not available
 Calculating wake trajectory ...
 Calculating source influence matrix ...

 Solving BL system ...

 Side 1  free  transition at x/c =  0.9787   76
 Side 2  free  transition at x/c =  0.6624   61

   1   rms: 0.8643E-01   max: -.3756E+00   T at   61  2
       a = -2.500      CL =  0.0957
      Cm = -0.0960     CD =  0.01444   =>   CDf =  0.00479    CDp =  0.00965

 Side 1  free  transition at x/c =  0.9690   76
 Side 2  free  transition at x/c =  0.6869   62

   2   rms: 0.3361E+00   max: -.3663E+01   T at   76  1   RLX: 0.136
       a = -2.500      CL =  0.1203
      Cm = -0.1000     CD =  0.01554   =>   CDf =  0.00485    CDp =  0.01069

 Side 1  free  transition at x/c =  0.9813   77
 Side 2  free  transition at x/c =  0.6881   62

   3   rms: 0.8803E-01   max: 0.8041E+00   T at   77  1
       a = -2.500      CL =  0.0768
      Cm = -0.0922     CD =  0.01469   =>   CDf =  0.00483    CDp =  0.00986

 Side 1  free  transition at x/c =  0.9635   76
 Side 2  free  transition at x/c =  0.6828   61

   4   rms: 0.6441E-01   max: -.4955E+00   T at   76  1
       a = -2.500      CL =  0.1121
      Cm = -0.0985     CD =  0.01469   =>   CDf =  0.00480    CDp =  0.00989

 Side 1  free  transition at x/c =  0.9787   77
 Side 2  free  transition at x/c =  0.6834   61

   5   rms: 0.4837E-01   max: 0.3620E+00   D at   78  1
       a = -2.500      CL =  0.0947
      Cm = -0.0949     CD =  0.01470   =>   CDf =  0.00480    CDp =  0.00990

 Side 1  free  transition at x/c =  0.9711   77
 Side 2  free  transition at x/c =  0.6797   61

   6   rms: 0.6998E-02   max: -.5621E-01   D at   77  1
       a = -2.500      CL =  0.0974
      Cm = -0.0955     CD =  0.01471   =>   CDf =  0.00477    CDp =  0.00994

 Side 1  free  transition at x/c =  0.9716   77
 Side 2  free  transition at x/c =  0.6807   61

   7   rms: 0.1916E-03   max: -.1544E-02   D at   62  2
       a = -2.500      CL =  0.0975
      Cm = -0.0956     CD =  0.01471   =>   CDf =  0.00477    CDp =  0.00993

 Side 1  free  transition at x/c =  0.9716   77
 Side 2  free  transition at x/c =  0.6808   61

   8   rms: 0.3845E-05   max: 0.3432E-04   D at   90  2
       a = -2.500      CL =  0.0975
      Cm = -0.0956     CD =  0.01470   =>   CDf =  0.00477    CDp =  0.00993
 plradd ia,ip,cpol            4           0  2.41692271E-02

 Point added to stored polar  1
 Point written to save file  sc20712_Re300k.base.pol                         
 Dump file unspecified or not available
 Calculating wake trajectory ...
 Calculating source influence matrix ...

 Solving BL system ...

 Side 1  free  transition at x/c =  0.9716   77
 Side 2  free  transition at x/c =  0.6808   61

   1   rms: 0.1028E+00   max: -.6155E+00   T at   61  2   RLX: 0.812
       a = -2.000      CL =  0.1564
      Cm = -0.0978     CD =  0.01523   =>   CDf =  0.00477    CDp =  0.01046

 Side 1  free  transition at x/c =  0.9689   76
 Side 2  free  transition at x/c =  0.6944   62

   2   rms: 0.9806E-01   max: 0.1210E+01   T at   76  1   RLX: 0.617
       a = -2.000      CL =  0.1179
      Cm = -0.0888     CD =  0.01507   =>   CDf =  0.00473    CDp =  0.01033

 Side 1  free  transition at x/c =  0.9533   75
 Side 2  free  transition at x/c =  0.6927   62

   3   rms: 0.2690E+00   max: -.2844E+01   T at   75  1   RLX: 0.176
       a = -2.000      CL =  0.1499
      Cm = -0.0942     CD =  0.01809   =>   CDf =  0.00471    CDp =  0.01337

 Side 1  free  transition at x/c =  0.9665   76
 Side 2  free  transition at x/c =  0.6946   62

   4   rms: 0.3611E-01   max: 0.4402E+00   D at   76  1
       a = -2.000      CL =  0.1586
      Cm = -0.0955     CD =  0.01531   =>   CDf =  0.00465    CDp =  0.01066

 Side 1  free  transition at x/c =  0.9663   77
 Side 2  free  transition at x/c =  0.6948   61
 idif Ue xi dudx           1  0.15199855      2.20227242E-03   69.018959    
 Uenew xinew           2  4.60751262E-03  6.67572021E-05

   5   rms: 0.1449E-01   max: 0.1412E+00   T at   77  1
       a = -2.000      CL =  0.1493
      Cm = -0.0938     CD =  0.01541   =>   CDf =  0.00475    CDp =  0.01067

 Side 1  free  transition at x/c =  0.9623   76
 Side 2  free  transition at x/c =  0.6943   62

   6   rms: 0.4453E-02   max: -.2941E-01   T at   76  1
       a = -2.000      CL =  0.1516
      Cm = -0.0942     CD =  0.01540   =>   CDf =  0.00469    CDp =  0.01071

 Side 1  free  transition at x/c =  0.9632   76
 Side 2  free  transition at x/c =  0.6945   62

   7   rms: 0.2426E-03   max: -.1810E-02   D at    4  2
       a = -2.000      CL =  0.1517
      Cm = -0.0942     CD =  0.01540   =>   CDf =  0.00468    CDp =  0.01072

 Side 1  free  transition at x/c =  0.9632   76
 Side 2  free  transition at x/c =  0.6945   62

   8   rms: 0.3370E-05   max: 0.1997E-04   D at   73  2
       a = -2.000      CL =  0.1517
      Cm = -0.0942     CD =  0.01540   =>   CDf =  0.00468    CDp =  0.01072
 plradd ia,ip,cpol            5           0  3.88989374E-02

 Point added to stored polar  1
 Point written to save file  sc20712_Re300k.base.pol                         
 Dump file unspecified or not available
 Calculating wake trajectory ...
 Calculating source influence matrix ...

 Solving BL system ...

 Side 1  free  transition at x/c =  0.9632   76
 Side 2  free  transition at x/c =  0.6945   62

   1   rms: 0.8893E-01   max: -.4055E+00   T at   62  2
       a = -1.500      CL =  0.2042
      Cm = -0.0923     CD =  0.01608   =>   CDf =  0.00463    CDp =  0.01145

 Side 1  free  transition at x/c =  0.9501   76
 Side 2  free  transition at x/c =  0.7001   61

   2   rms: 0.1110E+00   max: -.6699E+00   T at   61  2   RLX: 0.746
       a = -1.500      CL =  0.2523
      Cm = -0.1037     CD =  0.01619   =>   CDf =  0.00456    CDp =  0.01163

 Side 1  free  transition at x/c =  0.9593   77
 Side 2  free  transition at x/c =  0.7149   62

   3   rms: 0.9340E-01   max: 0.6876E+00   D at   63  2
       a = -1.500      CL =  0.2315
      Cm = -0.0987     CD =  0.01524   =>   CDf =  0.00469    CDp =  0.01056

 Side 1  free  transition at x/c =  0.9563   77
 Side 2  free  transition at x/c =  0.7082   62

   4   rms: 0.1177E-01   max: 0.1289E+00   D at   64  2
       a = -1.500      CL =  0.2289
      Cm = -0.0978     CD =  0.01541   =>   CDf =  0.00466    CDp =  0.01076

 Side 1  free  transition at x/c =  0.9563   77
 Side 2  free  transition at x/c =  0.7061   62

   5   rms: 0.1677E-02   max: -.1341E-01   D at   62  2
       a = -1.500      CL =  0.2293
      Cm = -0.0979     CD =  0.01542   =>   CDf =  0.00466    CDp =  0.01076

 Side 1  free  transition at x/c =  0.9563   77
 Side 2  free  transition at x/c =  0.7063   62

   6   rms: 0.2601E-04   max: 0.2194E-03   D at   89  2
       a = -1.500      CL =  0.2293
      Cm = -0.0979     CD =  0.01542   =>   CDf =  0.00466    CDp =  0.01076
 plradd ia,ip,cpol            6           0  3.95720676E-02

 Point added to stored polar  1
 Point written to save file  sc20712_Re300k.base.pol                         
 Dump file unspecified or not available
 Calculating wake trajectory ...
 Calculating source influence matrix ...

 Solving BL system ...

 Side 1  free  transition at x/c =  0.9563   77
 Side 2  free  transition at x/c =  0.7063   62

   1   rms: 0.1164E+00   max: -.2236E+00   T at   62  2
       a = -1.000      CL =  0.3264
      Cm = -0.1044     CD =  0.01479   =>   CDf =  0.00460    CDp =  0.01019

 Side 1  free  transition at x/c =  0.9444   77
 Side 2  free  transition at x/c =  0.7145   61

   2   rms: 0.2900E-01   max: -.2137E+00   D at   77  1
       a = -1.000      CL =  0.3060
      Cm = -0.1000     CD =  0.01497   =>   CDf =  0.00456    CDp =  0.01041

 Side 1  free  transition at x/c =  0.9400   76
 Side 2  free  transition at x/c =  0.7135   61

   3   rms: 0.9071E-01   max: 0.7421E+00   T at   76  1
       a = -1.000      CL =  0.2311
      Cm = -0.0858     CD =  0.01589   =>   CDf =  0.00456    CDp =  0.01133

 Side 1  free  transition at x/c =  0.9224   75
 Side 2  free  transition at x/c =  0.7130   61

   4   rms: 0.4865E+00   max: -.4127E+01   T at   75  1   RLX: 0.121
       a = -1.000      CL =  0.2764
      Cm = -0.0928     CD =  0.01901   =>   CDf =  0.00457    CDp =  0.01444

 Side 1  free  transition at x/c =  0.9403   77
 Side 2  free  transition at x/c =  0.7135   61

   5   rms: 0.3906E-01   max: -.2252E+00   D at   81  1
       a = -1.000      CL =  0.3083
      Cm = -0.1004     CD =  0.01469   =>   CDf =  0.00458    CDp =  0.01012

 Side 1  free  transition at x/c =  0.9416   77
 Side 2  free  transition at x/c =  0.7136   61

   6   rms: 0.3951E-02   max: -.4115E-01   D at   84  2
       a = -1.000      CL =  0.3112
      Cm = -0.1010     CD =  0.01482   =>   CDf =  0.00456    CDp =  0.01026

 Side 1  free  transition at x/c =  0.9419   77
 Side 2  free  transition at x/c =  0.7136   61

   7   rms: 0.5001E-04   max: -.3881E-03   D at   78  1
       a = -1.000      CL =  0.3112
      Cm = -0.1010     CD =  0.01482   =>   CDf =  0.00456    CDp =  0.01026
 plradd ia,ip,cpol            7           0  2.46516485E-02

 Point added to stored polar  1
 Point written to save file  sc20712_Re300k.base.pol                         
 Dump file unspecified or not available
 Calculating wake trajectory ...
 Calculating source influence matrix ...

 Solving BL system ...

 Side 1  free  transition at x/c =  0.9419   77
 Side 2  free  transition at x/c =  0.7136   61

   1   rms: 0.1303E+00   max: -.3170E+00   T at   61  2
       a = -0.500      CL =  0.4210
      Cm = -0.1100     CD =  0.01370   =>   CDf =  0.00450    CDp =  0.00920

 Side 1  free  transition at x/c =  0.9337   77
 Side 2  free  transition at x/c =  0.7173   60

   2   rms: 0.6286E-01   max: -.3060E+00   D at   60  2
       a = -0.500      CL =  0.4066
      Cm = -0.1085     CD =  0.01380   =>   CDf =  0.00448    CDp =  0.00932

 Side 1  free  transition at x/c =  0.9243   76
 Side 2  free  transition at x/c =  0.7253   61

   3   rms: 0.1109E+01   max: -.6370E+01   D at   82  1   RLX: 0.078
       a = -0.500      CL =  0.4667
      Cm = -0.1189     CD =  0.01217   =>   CDf =  0.00458    CDp =  0.00759

 MRCHDU: Convergence failed at  78  side 1    Res =  0.3775E+01
 MRCHDU: Convergence failed at  79  side 1    Res =  0.1624E+02
 MRCHDU: Convergence failed at  80  side 1    Res =  0.5511E+01
 MRCHDU: Convergence failed at  81  side 1    Res =  0.5028E+01
 MRCHDU: Convergence failed at  82  side 1    Res =  0.5511E+01
 Side 1  free  transition at x/c =  0.9649   79
 Side 2  free  transition at x/c =  0.7246   61

   4   rms: 0.1954E+00   max: 0.1509E+01   C at   79  1   RLX: 0.994
       a = -0.500      CL =  0.4153
      Cm = -0.1106     CD =  0.01158   =>   CDf =  0.00458    CDp =  0.00700

 Side 1  free  transition at x/c =  0.9257   77
 Side 2  free  transition at x/c =  0.7222   61

   5   rms: 0.3994E-01   max: -.4953E+00   D at   78  1
       a = -0.500      CL =  0.4162
      Cm = -0.1099     CD =  0.01363   =>   CDf =  0.00455    CDp =  0.00909

 Side 1  free  transition at x/c =  0.9281   77
 Side 2  free  transition at x/c =  0.7223   61

   6   rms: 0.1115E-01   max: 0.6993E-01   D at   84  2
       a = -0.500      CL =  0.4111
      Cm = -0.1088     CD =  0.01341   =>   CDf =  0.00455    CDp =  0.00886

 Side 1  free  transition at x/c =  0.9278   77
 Side 2  free  transition at x/c =  0.7223   61

   7   rms: 0.5464E-03   max: 0.3981E-02   D at   80  1
       a = -0.500      CL =  0.4108
      Cm = -0.1088     CD =  0.01342   =>   CDf =  0.00456    CDp =  0.00886

 Side 1  free  transition at x/c =  0.9277   77
 Side 2  free  transition at x/c =  0.7223   61

   8   rms: 0.3428E-05   max: -.2109E-04   D at   78  1
       a = -0.500      CL =  0.4108
      Cm = -0.1088     CD =  0.01342   =>   CDf =  0.00456    CDp =  0.00887
 plradd ia,ip,cpol            8           0  2.07733586E-02

 Point added to stored polar  1
 Point written to save file  sc20712_Re300k.base.pol                         
 Dump file unspecified or not available
 Calculating wake trajectory ...
 Calculating source influence matrix ...

 Solving BL system ...

 Side 1  free  transition at x/c =  0.9277   77
 Side 2  free  transition at x/c =  0.7223   61

   1   rms: 0.1233E+00   max: -.2533E+00   D at   85  2
       a =  0.000      CL =  0.5022
      Cm = -0.1140     CD =  0.01202   =>   CDf =  0.00449    CDp =  0.00753

 MRCHDU: Convergence failed at  78  side 1    Res =  0.1600E+01
 MRCHDU: Convergence failed at  79  side 1    Res =  0.8662E+01
 MRCHDU: Convergence failed at  80  side 1    Res =  0.3796E+01
 MRCHDU: Convergence failed at  81  side 1    Res =  0.4073E+01
 MRCHDU: Convergence failed at  82  side 1    Res =  0.5020E+01
 MRCHDU: Convergence failed at  83  side 1    Res =  0.7052E+01
 Side 1  free  transition at x/c =  0.9295   78
 Side 2  free  transition at x/c =  0.7252   60

   2   rms: 0.1569E+00   max: 0.1196E+01   C at   78  1
       a =  0.000      CL =  0.4604
      Cm = -0.1062     CD =  0.01146   =>   CDf =  0.00441    CDp =  0.00705

 Side 1  free  transition at x/c =  0.9041   76
 Side 2  free  transition at x/c =  0.7259   60

   3   rms: 0.1598E+00   max: -.9653E+00   D at   82  1   RLX: 0.518
       a =  0.000      CL =  0.5187
      Cm = -0.1174     CD =  0.01274   =>   CDf =  0.00444    CDp =  0.00830

 MRCHDU: Convergence failed at  79  side 1    Res =  0.2272E+01
 MRCHDU: Convergence failed at  80  side 1    Res =  0.6865E+01
 MRCHDU: Convergence failed at  81  side 1    Res =  0.4349E+01
 MRCHDU: Convergence failed at  82  side 1    Res =  0.6063E+01
 MRCHDU: Convergence failed at  83  side 1    Res =  0.1687E+02
 Side 1  free  transition at x/c =  0.9294   78
 Side 2  free  transition at x/c =  0.7253   60

   4   rms: 0.1231E+00   max: 0.8167E+00   T at   83  1
       a =  0.000      CL =  0.4769
      Cm = -0.1090     CD =  0.01130   =>   CDf =  0.00444    CDp =  0.00686

 Side 1  free  transition at x/c =  0.9166   77
 Side 2  free  transition at x/c =  0.7257   60

   5   rms: 0.1443E-01   max: 0.1519E+00   D at   78  1
       a =  0.000      CL =  0.4734
      Cm = -0.1087     CD =  0.01282   =>   CDf =  0.00446    CDp =  0.00835

 Side 1  free  transition at x/c =  0.9079   76
 Side 2  free  transition at x/c =  0.7257   60

   6   rms: 0.2360E-01   max: -.1974E+00   D at   78  1
       a =  0.000      CL =  0.4885
      Cm = -0.1115     CD =  0.01247   =>   CDf =  0.00447    CDp =  0.00800

 Side 1  free  transition at x/c =  0.9177   77
 Side 2  free  transition at x/c =  0.7256   60

   7   rms: 0.3024E-01   max: 0.2453E+00   C at   77  1
       a =  0.000      CL =  0.4841
      Cm = -0.1108     CD =  0.01252   =>   CDf =  0.00446    CDp =  0.00806

 Side 1  free  transition at x/c =  0.9126   77
 Side 2  free  transition at x/c =  0.7256   60

   8   rms: 0.8009E-02   max: 0.4519E-01   T at   78  1
       a =  0.000      CL =  0.4787
      Cm = -0.1097     CD =  0.01269   =>   CDf =  0.00446    CDp =  0.00823

 Side 1  free  transition at x/c =  0.9106   77
 Side 2  free  transition at x/c =  0.7256   60

   9   rms: 0.4738E-03   max: -.5176E-02   D at   78  1
       a =  0.000      CL =  0.4784
      Cm = -0.1096     CD =  0.01269   =>   CDf =  0.00446    CDp =  0.00823

 Side 1  free  transition at x/c =  0.9106   77
 Side 2  free  transition at x/c =  0.7256   60

  10   rms: 0.2693E-05   max: 0.2221E-04   D at   78  1
       a =  0.000      CL =  0.4784
      Cm = -0.1096     CD =  0.01269   =>   CDf =  0.00446    CDp =  0.00823
 plradd ia,ip,cpol            9           0  2.07733586E-02

 Point added to stored polar  1
 Point written to save file  sc20712_Re300k.base.pol                         
 Dump file unspecified or not available
 Calculating wake trajectory ...
 Calculating source influence matrix ...

 Solving BL system ...

 Side 1  free  transition at x/c =  0.9106   77
 Side 2  free  transition at x/c =  0.7256   60

   1   rms: 0.1065E+00   max: -.1835E+00   D at   84  2
       a =  0.500      CL =  0.5551
      Cm = -0.1124     CD =  0.01183   =>   CDf =  0.00440    CDp =  0.00744

 Side 1  free  transition at x/c =  0.8885   76
 Side 2  free  transition at x/c =  0.7290   59

   2   rms: 0.2155E-01   max: -.1740E+00   D at   77  1
       a =  0.500      CL =  0.5378
      Cm = -0.1091     CD =  0.01223   =>   CDf =  0.00435    CDp =  0.00788

 Side 1  free  transition at x/c =  0.8835   76
 Side 2  free  transition at x/c =  0.7298   59

   3   rms: 0.1662E-02   max: -.1377E-01   D at   76  1
       a =  0.500      CL =  0.5383
      Cm = -0.1092     CD =  0.01219   =>   CDf =  0.00439    CDp =  0.00779

 Side 1  free  transition at x/c =  0.8837   76
 Side 2  free  transition at x/c =  0.7298   59

   4   rms: 0.4412E-04   max: -.3061E-03   D at   81  2
       a =  0.500      CL =  0.5383
      Cm = -0.1092     CD =  0.01219   =>   CDf =  0.00439    CDp =  0.00780
 plradd ia,ip,cpol           10           0  1.73174050E-02

 Point added to stored polar  1
 Point written to save file  sc20712_Re300k.base.pol                         
 Dump file unspecified or not available
 Calculating wake trajectory ...
 Calculating source influence matrix ...

 Solving BL system ...

 Side 1  free  transition at x/c =  0.8837   76
 Side 2  free  transition at x/c =  0.7298   59

   1   rms: 0.9724E-01   max: -.1863E+00   T at   59  2
       a =  1.000      CL =  0.6006
      Cm = -0.1092     CD =  0.01165   =>   CDf =  0.00439    CDp =  0.00726

 Side 1  free  transition at x/c =  0.8238   72
 Side 2  free  transition at x/c =  0.7348   59

   2   rms: 0.3344E-01   max: 0.4053E+00   D at   75  1
       a =  1.000      CL =  0.5998
      Cm = -0.1093     CD =  0.01190   =>   CDf =  0.00449    CDp =  0.00741

 Side 1  free  transition at x/c =  0.8329   73
 Side 2  free  transition at x/c =  0.7363   59

   3   rms: 0.6989E-02   max: 0.8433E-01   C at   73  1
       a =  1.000      CL =  0.6031
      Cm = -0.1100     CD =  0.01169   =>   CDf =  0.00445    CDp =  0.00724

 Side 1  free  transition at x/c =  0.8303   73
 Side 2  free  transition at x/c =  0.7363   59

   4   rms: 0.2833E-03   max: -.2184E-02   D at   81  2
       a =  1.000      CL =  0.6029
      Cm = -0.1099     CD =  0.01170   =>   CDf =  0.00447    CDp =  0.00723

 Side 1  free  transition at x/c =  0.8303   73
 Side 2  free  transition at x/c =  0.7363   59

   5   rms: 0.1978E-05   max: 0.1451E-04   C at   73  1
       a =  1.000      CL =  0.6029
      Cm = -0.1099     CD =  0.01170   =>   CDf =  0.00447    CDp =  0.00723
 plradd ia,ip,cpol           11           0  1.42362462E-02

 Point added to stored polar  1
 Point written to save file  sc20712_Re300k.base.pol                         
 Dump file unspecified or not available
 Calculating wake trajectory ...
 Calculating source influence matrix ...

 Solving BL system ...

 Side 1  free  transition at x/c =  0.8303   73
 Side 2  free  transition at x/c =  0.7363   59

   1   rms: 0.1512E+00   max: 0.8938E+00   C at   73  1   RLX: 0.597
       a =  1.500      CL =  0.6510
      Cm = -0.1123     CD =  0.01137   =>   CDf =  0.00440    CDp =  0.00697

 Side 1  free  transition at x/c =  0.7190   66
 Side 2  free  transition at x/c =  0.7411   59

   2   rms: 0.4778E-01   max: 0.4828E+00   C at   66  1
       a =  1.500      CL =  0.6566
      Cm = -0.1083     CD =  0.01187   =>   CDf =  0.00493    CDp =  0.00694

 Side 1  free  transition at x/c =  0.5576   57
 Side 2  free  transition at x/c =  0.7409   59

   3   rms: 0.4144E-01   max: -.7307E+00   C at   57  1   RLX: 0.684
       a =  1.500      CL =  0.6517
      Cm = -0.1070     CD =  0.01248   =>   CDf =  0.00574    CDp =  0.00674

 Side 1  free  transition at x/c =  0.5787   58
 Side 2  free  transition at x/c =  0.7409   59

   4   rms: 0.1931E-01   max: -.3468E+00   C at   58  1
       a =  1.500      CL =  0.6506
      Cm = -0.1069     CD =  0.01237   =>   CDf =  0.00559    CDp =  0.00678

 Side 1  free  transition at x/c =  0.5928   59
 Side 2  free  transition at x/c =  0.7409   59

   5   rms: 0.1326E-02   max: -.2444E-01   C at   59  1
       a =  1.500      CL =  0.6505
      Cm = -0.1069     CD =  0.01237   =>   CDf =  0.00552    CDp =  0.00686

 Side 1  free  transition at x/c =  0.5939   59
 Side 2  free  transition at x/c =  0.7409   59

   6   rms: 0.2213E-04   max: -.4040E-03   C at   59  1
       a =  1.500      CL =  0.6505
      Cm = -0.1069     CD =  0.01237   =>   CDf =  0.00551    CDp =  0.00686
 plradd ia,ip,cpol           12           0  1.42362462E-02

 Point added to stored polar  1
 Point written to save file  sc20712_Re300k.base.pol                         
 Dump file unspecified or not available
 Calculating wake trajectory ...
 Calculating source influence matrix ...

 Solving BL system ...

 Side 1  free  transition at x/c =  0.5939   59
 Side 2  free  transition at x/c =  0.7409   59

   1   rms: 0.5380E+00   max: 0.9820E+01   C at   59  1   RLX: 0.153
       a =  2.000      CL =  0.6525
      Cm = -0.1055     CD =  0.01286   =>   CDf =  0.00551    CDp =  0.00734

 Side 1  free  transition at x/c =  0.5272   55
 Side 2  free  transition at x/c =  0.7414   59

   2   rms: 0.4021E+00   max: 0.7527E+01   C at   55  1   RLX: 0.199
       a =  2.000      CL =  0.6552
      Cm = -0.1041     CD =  0.01337   =>   CDf =  0.00586    CDp =  0.00750

 Side 1  free  transition at x/c =  0.4600   51
 Side 2  free  transition at x/c =  0.7419   59

   3   rms: 0.2639E+00   max: 0.5007E+01   C at   51  1   RLX: 0.300
       a =  2.000      CL =  0.6607
      Cm = -0.1031     CD =  0.01386   =>   CDf =  0.00620    CDp =  0.00766

 Side 1  free  transition at x/c =  0.3866   47
 Side 2  free  transition at x/c =  0.7426   59

   4   rms: 0.1525E+00   max: 0.2935E+01   C at   47  1   RLX: 0.511
       a =  2.000      CL =  0.6687
      Cm = -0.1022     CD =  0.01447   =>   CDf =  0.00657    CDp =  0.00791

 Side 1  free  transition at x/c =  0.3168   43
 Side 2  free  transition at x/c =  0.7434   59

   5   rms: 0.6149E-01   max: 0.1171E+01   C at   43  1
       a =  2.000      CL =  0.6782
      Cm = -0.1018     CD =  0.01493   =>   CDf =  0.00691    CDp =  0.00802

 Side 1  free  transition at x/c =  0.2578   39
 Side 2  free  transition at x/c =  0.7443   59

   6   rms: 0.1036E-01   max: -.1488E+00   C at   39  1
       a =  2.000      CL =  0.6779
      Cm = -0.1017     CD =  0.01497   =>   CDf =  0.00722    CDp =  0.00775

 Side 1  free  transition at x/c =  0.2598   40
 Side 2  free  transition at x/c =  0.7443   59

   7   rms: 0.2283E-02   max: -.4277E-01   C at   40  1
       a =  2.000      CL =  0.6779
      Cm = -0.1018     CD =  0.01497   =>   CDf =  0.00720    CDp =  0.00777

 Side 1  free  transition at x/c =  0.2601   40
 Side 2  free  transition at x/c =  0.7443   59

   8   rms: 0.1063E-04   max: -.1573E-03   C at   40  1
       a =  2.000      CL =  0.6779
      Cm = -0.1017     CD =  0.01497   =>   CDf =  0.00719    CDp =  0.00778
 plradd ia,ip,cpol           13           0  1.14955874E-02

 Point added to stored polar  1
 Point written to save file  sc20712_Re300k.base.pol                         
 Dump file unspecified or not available
 Calculating wake trajectory ...
 Calculating source influence matrix ...

 Solving BL system ...

 Side 1  free  transition at x/c =  0.2601   40
 Side 2  free  transition at x/c =  0.7443   59

   1   rms: 0.3234E+00   max: 0.6247E+01   C at   40  1   RLX: 0.240
       a =  2.500      CL =  0.6864
      Cm = -0.1010     CD =  0.01556   =>   CDf =  0.00720    CDp =  0.00836

 Side 1  free  transition at x/c =  0.2145   37
 Side 2  free  transition at x/c =  0.7452   59

   2   rms: 0.1881E+00   max: 0.3706E+01   C at   37  1   RLX: 0.405
       a =  2.500      CL =  0.7004
      Cm = -0.1005     CD =  0.01590   =>   CDf =  0.00736    CDp =  0.00854

 Side 1  free  transition at x/c =  0.1732   36
 Side 2  free  transition at x/c =  0.7465   58

   3   rms: 0.8357E-01   max: 0.1074E+01   C at   36  1   RLX: 0.726
       a =  2.500      CL =  0.7154
      Cm = -0.1000     CD =  0.01646   =>   CDf =  0.00766    CDp =  0.00880

 Side 1  free  transition at x/c =  0.1479   34
 Side 2  free  transition at x/c =  0.7481   58

   4   rms: 0.2476E-01   max: -.3044E+00   D at   36  1
       a =  2.500      CL =  0.7240
      Cm = -0.1003     CD =  0.01638   =>   CDf =  0.00779    CDp =  0.00859

 Side 1  free  transition at x/c =  0.1374   33
 Side 2  free  transition at x/c =  0.7488   58

   5   rms: 0.3938E-02   max: -.5561E-01   C at   33  1
       a =  2.500      CL =  0.7239
      Cm = -0.1002     CD =  0.01640   =>   CDf =  0.00788    CDp =  0.00852

 Side 1  free  transition at x/c =  0.1374   33
 Side 2  free  transition at x/c =  0.7489   58

   6   rms: 0.1347E-03   max: 0.2656E-02   C at   33  1
       a =  2.500      CL =  0.7239
      Cm = -0.1002     CD =  0.01640   =>   CDf =  0.00788    CDp =  0.00852

 Side 1  free  transition at x/c =  0.1373   33
 Side 2  free  transition at x/c =  0.7489   58

   7   rms: 0.1093E-05   max: -.3346E-05   D at   58  2
       a =  2.500      CL =  0.7239
      Cm = -0.1002     CD =  0.01640   =>   CDf =  0.00788    CDp =  0.00852
 plradd ia,ip,cpol           14           0  9.06538218E-03

 Point added to stored polar  1
 Point written to save file  sc20712_Re300k.base.pol                         
 Dump file unspecified or not available
 Calculating wake trajectory ...
 Calculating source influence matrix ...

 Solving BL system ...

 Side 1  free  transition at x/c =  0.1373   33
 Side 2  free  transition at x/c =  0.7489   58

   1   rms: 0.1050E+00   max: 0.9857E+00   C at   33  1
       a =  3.000      CL =  0.7777
      Cm = -0.0999     CD =  0.01720   =>   CDf =  0.00781    CDp =  0.00940

 Side 1  free  transition at x/c =  0.1062   32
 Side 2  free  transition at x/c =  0.7537   57

   2   rms: 0.2911E-01   max: -.2796E+00   D at   32  1
       a =  3.000      CL =  0.7798
      Cm = -0.1008     CD =  0.01739   =>   CDf =  0.00812    CDp =  0.00927

 Side 1  free  transition at x/c =  0.1033   32
 Side 2  free  transition at x/c =  0.7549   57

   3   rms: 0.2135E-02   max: 0.1934E-01   T at   32  1
       a =  3.000      CL =  0.7803
      Cm = -0.1009     CD =  0.01731   =>   CDf =  0.00809    CDp =  0.00923

 Side 1  free  transition at x/c =  0.1027   32
 Side 2  free  transition at x/c =  0.7549   57

   4   rms: 0.3708E-04   max: -.5407E-03   D at   32  1
       a =  3.000      CL =  0.7803
      Cm = -0.1009     CD =  0.01731   =>   CDf =  0.00809    CDp =  0.00922
 plradd ia,ip,cpol           15           0  9.06538218E-03

 Point added to stored polar  1
 Point written to save file  sc20712_Re300k.base.pol                         
 Dump file unspecified or not available
 Calculating wake trajectory ...
 Calculating source influence matrix ...

 Solving BL system ...

 Side 1  free  transition at x/c =  0.1027   32
 Side 2  free  transition at x/c =  0.7550   57

   1   rms: 0.1049E+00   max: 0.6987E+00   T at   32  1   RLX: 0.987
       a =  3.500      CL =  0.8432
      Cm = -0.1032     CD =  0.01806   =>   CDf =  0.00809    CDp =  0.00997

 Side 1  free  transition at x/c =  0.0861   31
 Side 2  free  transition at x/c =  0.7655   58

   2   rms: 0.1028E+00   max: 0.7305E+00   D at   59  2   RLX: 0.962
       a =  3.500      CL =  0.8316
      Cm = -0.1001     CD =  0.01787   =>   CDf =  0.00821    CDp =  0.00966

 Side 1  free  transition at x/c =  0.0866   31
 Side 2  free  transition at x/c =  0.7602   58

   3   rms: 0.1540E-01   max: 0.1433E+00   D at   60  2
       a =  3.500      CL =  0.8296
      Cm = -0.0996     CD =  0.01818   =>   CDf =  0.00816    CDp =  0.01002

 Side 1  free  transition at x/c =  0.0855   31
 Side 2  free  transition at x/c =  0.7587   58

   4   rms: 0.9714E-03   max: -.9232E-02   D at   32  1
       a =  3.500      CL =  0.8297
      Cm = -0.0996     CD =  0.01819   =>   CDf =  0.00817    CDp =  0.01002

 Side 1  free  transition at x/c =  0.0854   31
 Side 2  free  transition at x/c =  0.7587   58

   5   rms: 0.4812E-05   max: -.5242E-04   D at   32  1
       a =  3.500      CL =  0.8297
      Cm = -0.0996     CD =  0.01819   =>   CDf =  0.00818    CDp =  0.01002
 plradd ia,ip,cpol           16           0  9.06538218E-03

 Point added to stored polar  1
 Point written to save file  sc20712_Re300k.base.pol                         
 Dump file unspecified or not available
 Calculating wake trajectory ...
 Calculating source influence matrix ...

 Solving BL system ...

 Side 1  free  transition at x/c =  0.0854   31
 Side 2  free  transition at x/c =  0.7587   58

   1   rms: 0.9501E-01   max: 0.6104E+00   T at   31  1
       a =  4.000      CL =  0.8753
      Cm = -0.0975     CD =  0.01947   =>   CDf =  0.00806    CDp =  0.01141

 MRCHDU: Convergence failed at  32  side 1    Res =  0.4394E+01
 MRCHDU: Convergence failed at  33  side 1    Res =  0.3640E+01
 MRCHDU: Convergence failed at  34  side 1    Res =  0.9029E+01
 MRCHDU: Convergence failed at  35  side 1    Res =  0.3097E+02
 MRCHDU: Convergence failed at  36  side 1    Res =  0.8361E+02
 MRCHDU: Convergence failed at  37  side 1    Res =  0.3546E+02
 MRCHDU: Convergence failed at  38  side 1    Res =  0.1712E+03
 MRCHDU: Convergence failed at  39  side 1    Res =  0.1726E+03
 MRCHDU: Convergence failed at  40  side 1    Res =  0.6117E+02
 MRCHDU: Convergence failed at  41  side 1    Res =  0.4871E+02
 MRCHDU: Convergence failed at  42  side 1    Res =  0.2936E+02
 MRCHDU: Convergence failed at  43  side 1    Res =  0.2263E+02
 MRCHDU: Convergence failed at  44  side 1    Res =  0.1449E+02
 MRCHDU: Convergence failed at  45  side 1    Res =  0.9624E+01
 MRCHDU: Convergence failed at  46  side 1    Res =  0.9723E+01
 MRCHDU: Convergence failed at  47  side 1    Res =  0.9177E+01
 MRCHDU: Convergence failed at  48  side 1    Res =  0.8940E+01
 MRCHDU: Convergence failed at  49  side 1    Res =  0.8482E+01
 MRCHDU: Convergence failed at  50  side 1    Res =  0.7403E+01
 MRCHDU: Convergence failed at  51  side 1    Res =  0.7084E+01
 MRCHDU: Convergence failed at  52  side 1    Res =  0.6259E+01
 MRCHDU: Convergence failed at  53  side 1    Res =  0.5151E+01
 MRCHDU: Convergence failed at  54  side 1    Res =  0.5063E+01
 MRCHDU: Convergence failed at  55  side 1    Res =  0.2799E+02
 MRCHDU: Convergence failed at  56  side 1    Res =  0.3145E+02
 MRCHDU: Convergence failed at  57  side 1    Res =  0.4165E+02
 MRCHDU: Convergence failed at  58  side 1    Res =  0.4296E+02
 MRCHDU: Convergence failed at  59  side 1    Res =  0.6445E+02
 MRCHDU: Convergence failed at  60  side 1    Res =  0.7706E+02
 MRCHDU: Convergence failed at  61  side 1    Res =  0.1635E+03
 MRCHDU: Convergence failed at  62  side 1    Res =  0.1612E+04
 MRCHDU: Convergence failed at  63  side 1    Res =  0.3518E+03
 MRCHDU: Convergence failed at  64  side 1    Res =  0.9287E+02
 MRCHDU: Convergence failed at  65  side 1    Res =  0.6182E+02
 MRCHDU: Convergence failed at  66  side 1    Res =  0.4856E+02
 MRCHDU: Convergence failed at  67  side 1    Res =  0.4029E+02
 MRCHDU: Convergence failed at  68  side 1    Res =  0.3353E+02
 MRCHDU: Convergence failed at  69  side 1    Res =  0.2930E+02
 MRCHDU: Convergence failed at  70  side 1    Res =  0.2639E+02
 MRCHDU: Convergence failed at  71  side 1    Res =  0.2360E+02
 MRCHDU: Convergence failed at  72  side 1    Res =  0.2149E+02
 MRCHDU: Convergence failed at  73  side 1    Res =  0.1065E+02
 MRCHDU: Convergence failed at  74  side 1    Res =  0.1144E+02
 MRCHDU: Convergence failed at  75  side 1    Res =  0.1424E+02
 MRCHDU: Convergence failed at  76  side 1    Res =  0.1732E+02
 MRCHDU: Convergence failed at  77  side 1    Res =  0.1746E+02
 MRCHDU: Convergence failed at  78  side 1    Res =  0.2430E+02
 MRCHDU: Convergence failed at  79  side 1    Res =  0.2927E+02
 MRCHDU: Convergence failed at  80  side 1    Res =  0.3807E+02
 MRCHDU: Convergence failed at  81  side 1    Res =  0.2929E+02
 MRCHDU: Convergence failed at  82  side 1    Res =  0.6151E+02
 MRCHDU: Convergence failed at  83  side 1    Res =  0.3857E+02
 MRCHDU: Convergence failed at  84  side 1    Res =  0.4400E+02
 MRCHDU: Convergence failed at  85  side 1    Res =  0.6769E+02
 MRCHDU: Convergence failed at  86  side 1    Res =  0.1324E+04
 MRCHDU: Convergence failed at  87  side 1    Res =  0.1539E+02
 MRCHDU: Convergence failed at  88  side 1    Res =  0.9669E+02
 Side 1  free  transition at x/c =  0.0753   31
 Side 2  free  transition at x/c =  0.7619   57
 idif Ue xi dudx           1  0.13500898      3.08918953E-03   43.703690    
 Uenew xinew           2  8.98184348E-03  2.05516815E-04

   2   rms: 0.6396E+00   max: 0.2489E+01   D at   79  2   RLX: 0.603
       a =  4.000      CL =  1.1739
      Cm = -0.2269     CD =  0.01356   =>   CDf =  0.00260    CDp =  0.01096

 MRCHDU: Convergence failed at  79  side 2    Res =  0.2115E+01
 MRCHDU: Convergence failed at  80  side 2    Res =  0.2621E+01
 MRCHDU: Convergence failed at  81  side 2    Res =  0.2214E+01
 MRCHDU: Convergence failed at  82  side 2    Res =  0.4379E+01
 MRCHDU: Convergence failed at  83  side 2    Res =  0.1101E+02
 MRCHDU: Convergence failed at  84  side 2    Res =  0.3027E+01
 MRCHDU: Convergence failed at  85  side 2    Res =  0.1840E+01
 MRCHDU: Convergence failed at  86  side 2    Res =  0.2669E+01
 MRCHDU: Convergence failed at  87  side 2    Res =  0.4387E+01
 Side 1  free  transition at x/c =  0.0733   30
 Side 2  free  transition at x/c =  0.7642   58

   3   rms: 0.3246E+00   max: -.1478E+01   D at   50  1   RLX: 0.338
       a =  4.000      CL =  0.8990
      Cm = -0.1247     CD =  0.03823   =>   CDf =  0.00549    CDp =  0.03274

 Side 1  free  transition at x/c =  0.0762   30
 Side 2  free  transition at x/c =  0.7660   58

   4   rms: 0.3870E+00   max: -.1974E+01   D at   45  1   RLX: 0.253
       a =  4.000      CL =  0.8623
      Cm = -0.1076     CD =  0.03448   =>   CDf =  0.00557    CDp =  0.02892

 Side 1  free  transition at x/c =  0.0775   30
 Side 2  free  transition at x/c =  0.7664   58

   5   rms: 0.5787E+00   max: -.3562E+01   D at   45  1   RLX: 0.140
       a =  4.000      CL =  0.8760
      Cm = -0.1039     CD =  0.03271   =>   CDf =  0.00571    CDp =  0.02700

 Side 1  free  transition at x/c =  0.0765   30
 Side 2  free  transition at x/c =  0.7662   58

   6   rms: 0.4233E+00   max: -.1814E+01   D at   47  1   RLX: 0.276
       a =  4.000      CL =  0.8770
      Cm = -0.0949     CD =  0.02690   =>   CDf =  0.00579    CDp =  0.02112

 Side 1  free  transition at x/c =  0.0758   31
 Side 2  free  transition at x/c =  0.7660   57

   7   rms: 0.3901E+00   max: -.1911E+01   D at   57  1   RLX: 0.262
       a =  4.000      CL =  0.8445
      Cm = -0.0865     CD =  0.02413   =>   CDf =  0.00621    CDp =  0.01793

 Side 1  free  transition at x/c =  0.0775   31
 Side 2  free  transition at x/c =  0.7660   57
 idif Ue xi dudx           1  0.14145188      3.18670273E-03   44.388165    
 Uenew xinew           2  1.34509457E-02  3.03030014E-04

   8   rms: 0.4553E+00   max: -.2883E+01   D at   56  1   RLX: 0.173
       a =  4.000      CL =  0.8255
      Cm = -0.0856     CD =  0.02496   =>   CDf =  0.00662    CDp =  0.01834

 MRCHDU: Convergence failed at  52  side 1    Res =  0.2640E+01
 Side 1  free  transition at x/c =  0.0797   30
 Side 2  free  transition at x/c =  0.7661   58

   9   rms: 0.8355E+00   max: -.3894E+01   D at   71  1   RLX: 0.128
       a =  4.000      CL =  0.8691
      Cm = -0.0855     CD =  0.02096   =>   CDf =  0.00694    CDp =  0.01402

 Side 1  free  transition at x/c =  0.0765   31
 Side 2  free  transition at x/c =  0.7657   57

  10   rms: 0.5152E+00   max: -.2256E+01   D at   78  1   RLX: 0.222
       a =  4.000      CL =  0.8964
      Cm = -0.0870     CD =  0.01927   =>   CDf =  0.00726    CDp =  0.01200

 Side 1  free  transition at x/c =  0.0739   31
 Side 2  free  transition at x/c =  0.7648   57

  11   rms: 0.2370E+00   max: -.9917E+00   D at   60  1   RLX: 0.504
       a =  4.000      CL =  0.8963
      Cm = -0.0914     CD =  0.01835   =>   CDf =  0.00775    CDp =  0.01060

 Side 1  free  transition at x/c =  0.0733   31
 Side 2  free  transition at x/c =  0.7634   57

  12   rms: 0.1145E+00   max: -.4604E+00   D at   64  1   RLX: 0.763
       a =  4.000      CL =  0.8811
      Cm = -0.0960     CD =  0.01901   =>   CDf =  0.00806    CDp =  0.01095

 Side 1  free  transition at x/c =  0.0741   31
 Side 2  free  transition at x/c =  0.7628   57

  13   rms: 0.3555E-01   max: -.2842E+00   D at   61  1
       a =  4.000      CL =  0.8792
      Cm = -0.0982     CD =  0.01915   =>   CDf =  0.00814    CDp =  0.01101

 Side 1  free  transition at x/c =  0.0741   31
 Side 2  free  transition at x/c =  0.7626   57

  14   rms: 0.2223E-02   max: -.2820E-01   D at   61  1
       a =  4.000      CL =  0.8785
      Cm = -0.0981     CD =  0.01915   =>   CDf =  0.00818    CDp =  0.01097

 Side 1  free  transition at x/c =  0.0742   31
 Side 2  free  transition at x/c =  0.7625   57

  15   rms: 0.3178E-04   max: -.2902E-03   D at   61  1
       a =  4.000      CL =  0.8785
      Cm = -0.0981     CD =  0.01915   =>   CDf =  0.00818    CDp =  0.01097
 plradd ia,ip,cpol           17           0  6.93631824E-03

 Point added to stored polar  1
 Point written to save file  sc20712_Re300k.base.pol                         
 Dump file unspecified or not available
 Calculating wake trajectory ...
 Calculating source influence matrix ...

 Solving BL system ...

 Side 1  free  transition at x/c =  0.0742   31
 Side 2  free  transition at x/c =  0.7625   57

   1   rms: 0.8852E-01   max: 0.5776E+00   T at   31  1
       a =  4.500      CL =  0.9274
      Cm = -0.0969     CD =  0.02030   =>   CDf =  0.00818    CDp =  0.01211

 MRCHDU: Convergence failed at  31  side 1    Res =  0.2770E+01
 MRCHDU: Convergence failed at  32  side 1    Res =  0.6402E+01
 MRCHDU: Convergence failed at  33  side 1    Res =  0.4900E+01
 MRCHDU: Convergence failed at  34  side 1    Res =  0.4072E+01
 MRCHDU: Convergence failed at  35  side 1    Res =  0.3900E+01
 MRCHDU: Convergence failed at  36  side 1    Res =  0.4064E+01
 MRCHDU: Convergence failed at  37  side 1    Res =  0.4282E+01
 MRCHDU: Convergence failed at  38  side 1    Res =  0.4913E+01
 MRCHDU: Convergence failed at  39  side 1    Res =  0.5208E+01
 MRCHDU: Convergence failed at  40  side 1    Res =  0.6551E+01
 MRCHDU: Convergence failed at  41  side 1    Res =  0.7553E+01
 MRCHDU: Convergence failed at  42  side 1    Res =  0.9299E+01
 MRCHDU: Convergence failed at  43  side 1    Res =  0.1079E+02
 MRCHDU: Convergence failed at  44  side 1    Res =  0.1411E+02
 MRCHDU: Convergence failed at  45  side 1    Res =  0.2668E+02
 MRCHDU: Convergence failed at  46  side 1    Res =  0.3067E+02
 MRCHDU: Convergence failed at  47  side 1    Res =  0.4451E+02
 MRCHDU: Convergence failed at  48  side 1    Res =  0.6790E+02
 MRCHDU: Convergence failed at  49  side 1    Res =  0.3317E+03
 MRCHDU: Convergence failed at  50  side 1    Res =  0.4680E+03
 MRCHDU: Convergence failed at  51  side 1    Res =  0.2395E+02
 MRCHDU: Convergence failed at  52  side 1    Res =  0.1029E+03
 MRCHDU: Convergence failed at  53  side 1    Res =  0.6841E+02
 MRCHDU: Convergence failed at  54  side 1    Res =  0.5674E+02
 MRCHDU: Convergence failed at  55  side 1    Res =  0.4560E+02
 MRCHDU: Convergence failed at  56  side 1    Res =  0.4037E+02
 MRCHDU: Convergence failed at  57  side 1    Res =  0.3281E+02
 MRCHDU: Convergence failed at  58  side 1    Res =  0.3104E+02
 MRCHDU: Convergence failed at  59  side 1    Res =  0.1197E+02
 MRCHDU: Convergence failed at  60  side 1    Res =  0.2644E+02
 MRCHDU: Convergence failed at  61  side 1    Res =  0.2434E+02
 MRCHDU: Convergence failed at  62  side 1    Res =  0.2298E+02
 MRCHDU: Convergence failed at  63  side 1    Res =  0.2222E+02
 MRCHDU: Convergence failed at  64  side 1    Res =  0.1944E+02
 MRCHDU: Convergence failed at  65  side 1    Res =  0.2003E+02
 MRCHDU: Convergence failed at  66  side 1    Res =  0.2062E+02
 MRCHDU: Convergence failed at  67  side 1    Res =  0.2155E+02
 MRCHDU: Convergence failed at  68  side 1    Res =  0.2230E+02
 MRCHDU: Convergence failed at  69  side 1    Res =  0.5667E+02
 MRCHDU: Convergence failed at  70  side 1    Res =  0.4439E+02
 MRCHDU: Convergence failed at  71  side 1    Res =  0.3086E+02
 MRCHDU: Convergence failed at  72  side 1    Res =  0.5345E+02
 MRCHDU: Convergence failed at  73  side 1    Res =  0.2939E+02
 MRCHDU: Convergence failed at  74  side 1    Res =  0.2006E+02
 MRCHDU: Convergence failed at  75  side 1    Res =  0.2931E+02
 MRCHDU: Convergence failed at  76  side 1    Res =  0.3642E+02
 MRCHDU: Convergence failed at  77  side 1    Res =  0.4148E+02
 MRCHDU: Convergence failed at  78  side 1    Res =  0.2488E+02
 MRCHDU: Convergence failed at  79  side 1    Res =  0.1394E+03
 MRCHDU: Convergence failed at  80  side 1    Res =  0.2489E+02
 MRCHDU: Convergence failed at  81  side 1    Res =  0.6261E+02
 MRCHDU: Convergence failed at  82  side 1    Res =  0.1557E+03
 MRCHDU: Convergence failed at  83  side 1    Res =  0.1323E+03
 MRCHDU: Convergence failed at  84  side 1    Res =  0.3773E+02
 MRCHDU: Convergence failed at  85  side 1    Res =  0.2349E+02
 MRCHDU: Convergence failed at  86  side 1    Res =  0.2128E+02
 MRCHDU: Convergence failed at  87  side 1    Res =  0.4174E+02
 MRCHDU: Convergence failed at  88  side 1    Res =  0.5234E+02
 Side 1  free  transition at x/c =  0.0679   30
 Side 2  free  transition at x/c =  0.7667   57

   2   rms: 0.1007E+01   max: 0.3601E+01   D at   78  2   RLX: 0.417
       a =  4.500      CL =  1.5930
      Cm = -0.3470     CD =  0.01169   =>   CDf =  0.00236    CDp =  0.00933

 MRCHDU: Convergence failed at  36  side 1    Res =  0.2285E+00
 MRCHDU: Convergence failed at  38  side 1    Res =  0.2731E+00
 MRCHDU: Convergence failed at  40  side 1    Res =  0.3142E+00
 MRCHDU: Convergence failed at  41  side 1    Res =  0.2609E+00
 MRCHDU: Convergence failed at  78  side 2    Res =  0.1248E+01
 MRCHDU: Convergence failed at  79  side 2    Res =  0.6348E+01
 MRCHDU: Convergence failed at  80  side 2    Res =  0.3042E+01
 MRCHDU: Convergence failed at  81  side 2    Res =  0.2325E+01
 MRCHDU: Convergence failed at  82  side 2    Res =  0.5954E+02
 MRCHDU: Convergence failed at  83  side 2    Res =  0.3628E+01
 MRCHDU: Convergence failed at  84  side 2    Res =  0.2042E+01
 MRCHDU: Convergence failed at  85  side 2    Res =  0.2053E+01
 Side 1  free  transition at x/c =  0.0624   30
 Side 2  free  transition at x/c =  0.7687   57

   3   rms: 0.3820E+00   max: -.1472E+01   T at   30  1   RLX: 0.340
       a =  4.500      CL =  1.0334
      Cm = -0.1697     CD =  0.05759   =>   CDf =  0.00300    CDp =  0.05459

 Side 1  free  transition at x/c =  0.0655   30
 Side 2  free  transition at x/c =  0.7753   58

   4   rms: 0.4182E+00   max: -.2167E+01   T at   30  1   RLX: 0.231
       a =  4.500      CL =  0.9291
      Cm = -0.1361     CD =  0.06219   =>   CDf =  0.00324    CDp =  0.05895

 MRCHDU: Convergence failed at  42  side 1    Res =  0.1025E+00
 MRCHDU: Convergence failed at  43  side 1    Res =  0.4196E+00
 MRCHDU: Convergence failed at  44  side 1    Res =  0.7799E-01
 MRCHDU: Convergence failed at  45  side 1    Res =  0.3695E+01
 MRCHDU: Convergence failed at  46  side 1    Res =  0.2504E+01
 MRCHDU: Convergence failed at  47  side 1    Res =  0.1967E+01
 MRCHDU: Convergence failed at  48  side 1    Res =  0.1215E+01
 MRCHDU: Convergence failed at  49  side 1    Res =  0.1084E+01
 Side 1  free  transition at x/c =  0.0715   31
 Side 2  free  transition at x/c =  0.7758   58

   5   rms: 0.4325E+00   max: -.1821E+01   D at   44  1   RLX: 0.275
       a =  4.500      CL =  0.7847
      Cm = -0.0833     CD =  0.05246   =>   CDf =  0.00425    CDp =  0.04821

 MRCHDU: Convergence failed at  44  side 1    Res =  0.1686E+00
 MRCHDU: Convergence failed at  45  side 1    Res =  0.1022E+00
 MRCHDU: Convergence failed at  46  side 1    Res =  0.7715E-01
 Side 1  free  transition at x/c =  0.0745   31
 Side 2  free  transition at x/c =  0.7758   58

   6   rms: 0.1025E+01   max: -.6547E+01   D at   46  1   RLX: 0.076
       a =  4.500      CL =  0.7565
      Cm = -0.0876     CD =  0.05407   =>   CDf =  0.00386    CDp =  0.05021

 Side 1  free  transition at x/c =  0.0823   32
 Side 2  free  transition at x/c =  0.7757   58

   7   rms: 0.7529E+00   max: -.3206E+01   D at   40  1   RLX: 0.156
       a =  4.500      CL =  0.8048
      Cm = -0.0837     CD =  0.04413   =>   CDf =  0.00424    CDp =  0.03989

 Side 1  free  transition at x/c =  0.0813   31
 Side 2  free  transition at x/c =  0.7758   58

   8   rms: 0.1051E+01   max: 0.3735E+01   T at   31  1   RLX: 0.148
       a =  4.500      CL =  0.8689
      Cm = -0.0703     CD =  0.03288   =>   CDf =  0.00438    CDp =  0.02850

 Side 1  free  transition at x/c =  0.0707   31
 Side 2  free  transition at x/c =  0.7755   57

   9   rms: 0.1858E+01   max: -.7232E+01   D at   69  1   RLX: 0.069
       a =  4.500      CL =  0.8905
      Cm = -0.0605     CD =  0.02590   =>   CDf =  0.00483    CDp =  0.02106

 Side 1  free  transition at x/c =  0.0678   31
 Side 2  free  transition at x/c =  0.7754   57

  10   rms: 0.1077E+01   max: -.3901E+01   D at   70  1   RLX: 0.128
       a =  4.500      CL =  0.9353
      Cm = -0.0657     CD =  0.02125   =>   CDf =  0.00511    CDp =  0.01613

 Side 1  free  transition at x/c =  0.0658   31
 Side 2  free  transition at x/c =  0.7749   57

  11   rms: 0.5816E+00   max: -.2041E+01   D at   76  1   RLX: 0.245
       a =  4.500      CL =  0.9530
      Cm = -0.0732     CD =  0.01827   =>   CDf =  0.00561    CDp =  0.01266

 Side 1  free  transition at x/c =  0.0656   31
 Side 2  free  transition at x/c =  0.7739   57

  12   rms: 0.5776E+00   max: -.2900E+01   D at   53  1   RLX: 0.172
       a =  4.500      CL =  0.9558
      Cm = -0.0782     CD =  0.01796   =>   CDf =  0.00637    CDp =  0.01159

 MRCHDU: Convergence failed at  51  side 1    Res =  0.1045E+01
 Side 1  free  transition at x/c =  0.0658   31
 Side 2  free  transition at x/c =  0.7733   57

  13   rms: 0.2324E+00   max: -.8867E+00   D at   80  1   RLX: 0.564
       a =  4.500      CL =  0.9651
      Cm = -0.0903     CD =  0.01878   =>   CDf =  0.00740    CDp =  0.01139

 Side 1  free  transition at x/c =  0.0655   31
 Side 2  free  transition at x/c =  0.7715   56
 idif Ue xi dudx           1  0.12796864      3.38649750E-03   37.787903    
 Uenew xinew           2  1.17076347E-02  3.09824944E-04

  14   rms: 0.1249E+00   max: 0.5051E+00   D at   76  2
       a =  4.500      CL =  0.9386
      Cm = -0.0982     CD =  0.02033   =>   CDf =  0.00803    CDp =  0.01231

 Side 1  free  transition at x/c =  0.0661   30
 Side 2  free  transition at x/c =  0.7665   57

  15   rms: 0.1646E-01   max: 0.9681E-01   D at   86  2
       a =  4.500      CL =  0.9294
      Cm = -0.0973     CD =  0.02032   =>   CDf =  0.00817    CDp =  0.01215

 Side 1  free  transition at x/c =  0.0664   30
 Side 2  free  transition at x/c =  0.7672   57

  16   rms: 0.5110E-03   max: -.4335E-02   D at   76  2
       a =  4.500      CL =  0.9291
      Cm = -0.0972     CD =  0.02031   =>   CDf =  0.00818    CDp =  0.01213

 Side 1  free  transition at x/c =  0.0664   30
 Side 2  free  transition at x/c =  0.7672   57

  17   rms: 0.4274E-05   max: 0.3469E-04   D at   60  2
       a =  4.500      CL =  0.9291
      Cm = -0.0972     CD =  0.02031   =>   CDf =  0.00818    CDp =  0.01213
 plradd ia,ip,cpol           18           0  6.93631824E-03

 Point added to stored polar  1
 Point written to save file  sc20712_Re300k.base.pol                         
 Dump file unspecified or not available
 Calculating wake trajectory ...
 Calculating source influence matrix ...

 Solving BL system ...

 Side 1  free  transition at x/c =  0.0664   30
 Side 2  free  transition at x/c =  0.7672   57

   1   rms: 0.8356E-01   max: 0.4905E+00   T at   30  1
       a =  5.000      CL =  0.9834
      Cm = -0.0971     CD =  0.02122   =>   CDf =  0.00802    CDp =  0.01320

 Side 1  free  transition at x/c =  0.0605   30
 Side 2  free  transition at x/c =  0.7721   56

   2   rms: 0.2639E-01   max: -.1615E+00   D at   32  1
       a =  5.000      CL =  0.9837
      Cm = -0.0976     CD =  0.02168   =>   CDf =  0.00825    CDp =  0.01343

 Side 1  free  transition at x/c =  0.0602   30
 Side 2  free  transition at x/c =  0.7732   57

   3   rms: 0.1019E-01   max: 0.8022E-01   D at   59  2
       a =  5.000      CL =  0.9831
      Cm = -0.0974     CD =  0.02170   =>   CDf =  0.00825    CDp =  0.01345

 Side 1  free  transition at x/c =  0.0602   30
 Side 2  free  transition at x/c =  0.7727   57

   4   rms: 0.1924E-03   max: -.1933E-02   D at   58  2
       a =  5.000      CL =  0.9831
      Cm = -0.0974     CD =  0.02171   =>   CDf =  0.00824    CDp =  0.01346

 Side 1  free  transition at x/c =  0.0602   30
 Side 2  free  transition at x/c =  0.7727   57

   5   rms: 0.1219E-05   max: 0.1024E-04   T at   57  2
       a =  5.000      CL =  0.9831
      Cm = -0.0974     CD =  0.02171   =>   CDf =  0.00824    CDp =  0.01346
 plradd ia,ip,cpol           19           0  6.93631824E-03

 Point added to stored polar  1
 Point written to save file  sc20712_Re300k.base.pol                         
 Dump file unspecified or not available
 Calculating wake trajectory ...
 Calculating source influence matrix ...

 Solving BL system ...

 Side 1  free  transition at x/c =  0.0602   30
 Side 2  free  transition at x/c =  0.7727   57

   1   rms: 0.7832E-01   max: 0.4313E+00   T at   30  1
       a =  5.500      CL =  1.0322
      Cm = -0.0957     CD =  0.02258   =>   CDf =  0.00806    CDp =  0.01451

 Side 1  free  transition at x/c =  0.0551   31
 Side 2  free  transition at x/c =  0.7759   56

   2   rms: 0.2439E-01   max: -.1663E+00   D at   31  1
       a =  5.500      CL =  1.0305
      Cm = -0.0956     CD =  0.02268   =>   CDf =  0.00813    CDp =  0.01455

 Side 1  free  transition at x/c =  0.0554   31
 Side 2  free  transition at x/c =  0.7760   56

   3   rms: 0.1109E-02   max: -.8905E-02   D at    4  1
       a =  5.500      CL =  1.0313
      Cm = -0.0958     CD =  0.02270   =>   CDf =  0.00814    CDp =  0.01456

 Side 1  free  transition at x/c =  0.0554   31
 Side 2  free  transition at x/c =  0.7760   56

   4   rms: 0.8057E-05   max: -.3748E-04   T at   56  2
       a =  5.500      CL =  1.0313
      Cm = -0.0958     CD =  0.02270   =>   CDf =  0.00814    CDp =  0.01456
 plradd ia,ip,cpol           20           0  6.93631824E-03

 Point added to stored polar  1
 Point written to save file  sc20712_Re300k.base.pol                         
 Dump file unspecified or not available
 Calculating wake trajectory ...
 Calculating source influence matrix ...

 Solving BL system ...

 Side 1  free  transition at x/c =  0.0554   31
 Side 2  free  transition at x/c =  0.7760   56

   1   rms: 0.7987E-01   max: 0.4776E+00   T at   31  1
       a =  6.000      CL =  1.0793
      Cm = -0.0943     CD =  0.02383   =>   CDf =  0.00814    CDp =  0.01569

 Side 1  free  transition at x/c =  0.0520   30
 Side 2  free  transition at x/c =  0.7801   56

   2   rms: 0.1730E-01   max: -.1244E+00   D at   32  1
       a =  6.000      CL =  1.0794
      Cm = -0.0944     CD =  0.02433   =>   CDf =  0.00808    CDp =  0.01625

 Side 1  free  transition at x/c =  0.0513   30
 Side 2  free  transition at x/c =  0.7803   56

   3   rms: 0.1935E-02   max: 0.1542E-01   D at   30  1
       a =  6.000      CL =  1.0797
      Cm = -0.0944     CD =  0.02438   =>   CDf =  0.00808    CDp =  0.01630

 Side 1  free  transition at x/c =  0.0513   30
 Side 2  free  transition at x/c =  0.7803   56

   4   rms: 0.2116E-04   max: -.7455E-04   D at   59  2
       a =  6.000      CL =  1.0797
      Cm = -0.0944     CD =  0.02438   =>   CDf =  0.00808    CDp =  0.01630
 plradd ia,ip,cpol           21           0  5.11379866E-03

 Point added to stored polar  1
 Point written to save file  sc20712_Re300k.base.pol                         
 Dump file unspecified or not available
 Calculating wake trajectory ...
 Calculating source influence matrix ...

 Solving BL system ...

 Side 1  free  transition at x/c =  0.0513   30
 Side 2  free  transition at x/c =  0.7803   56

   1   rms: 0.7922E-01   max: 0.3912E+00   T at   30  1
       a =  6.500      CL =  1.1304
      Cm = -0.0933     CD =  0.02574   =>   CDf =  0.00786    CDp =  0.01788

 Side 1  free  transition at x/c =  0.0477   31
 Side 2  free  transition at x/c =  0.7854   55

   2   rms: 0.2394E-01   max: -.1545E+00   D at   32  1
       a =  6.500      CL =  1.1307
      Cm = -0.0937     CD =  0.02577   =>   CDf =  0.00792    CDp =  0.01784

 Side 1  free  transition at x/c =  0.0478   31
 Side 2  free  transition at x/c =  0.7863   55

   3   rms: 0.1312E-02   max: -.7153E-02   D at    4  1
       a =  6.500      CL =  1.1314
      Cm = -0.0938     CD =  0.02579   =>   CDf =  0.00797    CDp =  0.01783

 Side 1  free  transition at x/c =  0.0477   31
 Side 2  free  transition at x/c =  0.7863   55

   4   rms: 0.1527E-04   max: -.6344E-04   D at   57  2
       a =  6.500      CL =  1.1314
      Cm = -0.0938     CD =  0.02579   =>   CDf =  0.00797    CDp =  0.01782
 plradd ia,ip,cpol           22           0  5.11379866E-03

 Point added to stored polar  1
 Point written to save file  sc20712_Re300k.base.pol                         
 Dump file unspecified or not available
 Calculating wake trajectory ...
 Calculating source influence matrix ...

 Solving BL system ...

 Side 1  free  transition at x/c =  0.0477   31
 Side 2  free  transition at x/c =  0.7863   55

   1   rms: 0.8323E-01   max: 0.4331E+00   T at   31  1
       a =  7.000      CL =  1.1853
      Cm = -0.0940     CD =  0.02725   =>   CDf =  0.00797    CDp =  0.01927

 Side 1  free  transition at x/c =  0.0450   30
 Side 2  free  transition at x/c =  0.7934   56

   2   rms: 0.3792E-01   max: 0.3135E+00   D at   57  2
       a =  7.000      CL =  1.1804
      Cm = -0.0929     CD =  0.02787   =>   CDf =  0.00787    CDp =  0.02000

 Side 1  free  transition at x/c =  0.0447   30
 Side 2  free  transition at x/c =  0.7907   56

   3   rms: 0.1792E-02   max: 0.1822E-01   D at   58  2
       a =  7.000      CL =  1.1806
      Cm = -0.0929     CD =  0.02793   =>   CDf =  0.00789    CDp =  0.02004

 Side 1  free  transition at x/c =  0.0446   30
 Side 2  free  transition at x/c =  0.7906   56

   4   rms: 0.2697E-04   max: 0.1386E-03   D at   58  2
       a =  7.000      CL =  1.1806
      Cm = -0.0929     CD =  0.02792   =>   CDf =  0.00789    CDp =  0.02004
 plradd ia,ip,cpol           23           0  5.11379866E-03

 Point added to stored polar  1
 Point written to save file  sc20712_Re300k.base.pol                         
 Dump file unspecified or not available
 Calculating wake trajectory ...
 Calculating source influence matrix ...

 Solving BL system ...

 Side 1  free  transition at x/c =  0.0446   30
 Side 2  free  transition at x/c =  0.7906   56

   1   rms: 0.7543E-01   max: 0.4445E+00   T at   30  1
       a =  7.500      CL =  1.2261
      Cm = -0.0907     CD =  0.02930   =>   CDf =  0.00764    CDp =  0.02166

 Side 1  free  transition at x/c =  0.0420   31
 Side 2  free  transition at x/c =  0.7951   55

   2   rms: 0.1456E-01   max: -.1161E+00   D at   32  1
       a =  7.500      CL =  1.2259
      Cm = -0.0910     CD =  0.02964   =>   CDf =  0.00755    CDp =  0.02209

 Side 1  free  transition at x/c =  0.0420   31
 Side 2  free  transition at x/c =  0.7953   55

   3   rms: 0.1335E-02   max: 0.1166E-01   D at   32  1
       a =  7.500      CL =  1.2261
      Cm = -0.0910     CD =  0.02969   =>   CDf =  0.00760    CDp =  0.02209

 Side 1  free  transition at x/c =  0.0419   31
 Side 2  free  transition at x/c =  0.7952   55

   4   rms: 0.2491E-04   max: 0.1522E-03   D at   32  1
       a =  7.500      CL =  1.2261
      Cm = -0.0910     CD =  0.02969   =>   CDf =  0.00759    CDp =  0.02209
 plradd ia,ip,cpol           24           0  5.11379866E-03

 Point added to stored polar  1
 Point written to save file  sc20712_Re300k.base.pol                         
 Dump file unspecified or not available
 Calculating wake trajectory ...
 Calculating source influence matrix ...

 Solving BL system ...

 Side 1  free  transition at x/c =  0.0419   31
 Side 2  free  transition at x/c =  0.7952   55

   1   rms: 0.7612E-01   max: 0.3220E+00   T at   31  1
       a =  8.000      CL =  1.2715
      Cm = -0.0892     CD =  0.03161   =>   CDf =  0.00760    CDp =  0.02401

 Side 1  free  transition at x/c =  0.0398   31
 Side 2  free  transition at x/c =  0.8009   55

   2   rms: 0.3057E-01   max: -.1461E+00   D at   31  1
       a =  8.000      CL =  1.2723
      Cm = -0.0897     CD =  0.03168   =>   CDf =  0.00739    CDp =  0.02428

 Side 1  free  transition at x/c =  0.0399   31
 Side 2  free  transition at x/c =  0.8017   55

   3   rms: 0.1388E-02   max: 0.7979E-02   D at   32  1
       a =  8.000      CL =  1.2728
      Cm = -0.0898     CD =  0.03176   =>   CDf =  0.00752    CDp =  0.02424

 Side 1  free  transition at x/c =  0.0399   31
 Side 2  free  transition at x/c =  0.8017   55

   4   rms: 0.2626E-04   max: -.1295E-03   T at   55  2
       a =  8.000      CL =  1.2728
      Cm = -0.0898     CD =  0.03176   =>   CDf =  0.00752    CDp =  0.02424
 plradd ia,ip,cpol           25           0  5.11379866E-03

 Point added to stored polar  1
 Point written to save file  sc20712_Re300k.base.pol                         
 Dump file unspecified or not available
 Calculating wake trajectory ...
 Calculating source influence matrix ...

 Solving BL system ...

 Side 1  free  transition at x/c =  0.0399   31
 Side 2  free  transition at x/c =  0.8017   55

   1   rms: 0.8922E-01   max: 0.4399E+00   T at   31  1
       a =  8.500      CL =  1.3231
      Cm = -0.0898     CD =  0.03492   =>   CDf =  0.00724    CDp =  0.02768

 Side 1  free  transition at x/c =  0.0385   31
 Side 2  free  transition at x/c =  0.8083   55

   2   rms: 0.4378E-01   max: 0.3286E+00   D at   32  1
       a =  8.500      CL =  1.3133
      Cm = -0.0877     CD =  0.03567   =>   CDf =  0.00713    CDp =  0.02854

 Side 1  free  transition at x/c =  0.0383   31
 Side 2  free  transition at x/c =  0.8063   55

   3   rms: 0.1392E-01   max: 0.7138E-01   D at   32  1
       a =  8.500      CL =  1.3134
      Cm = -0.0876     CD =  0.03541   =>   CDf =  0.00714    CDp =  0.02827

 Side 1  free  transition at x/c =  0.0382   31
 Side 2  free  transition at x/c =  0.8063   55

   4   rms: 0.6515E-03   max: 0.3693E-02   D at   33  1
       a =  8.500      CL =  1.3130
      Cm = -0.0876     CD =  0.03540   =>   CDf =  0.00706    CDp =  0.02834

 Side 1  free  transition at x/c =  0.0382   31
 Side 2  free  transition at x/c =  0.8063   55

   5   rms: 0.1339E-04   max: 0.4316E-04   D at   90  1
       a =  8.500      CL =  1.3130
      Cm = -0.0876     CD =  0.03540   =>   CDf =  0.00706    CDp =  0.02834
 plradd ia,ip,cpol           26           0  5.11379866E-03

 Point added to stored polar  1
 Point written to save file  sc20712_Re300k.base.pol                         
 Dump file unspecified or not available
 Calculating wake trajectory ...
 Calculating source influence matrix ...

 Solving BL system ...

 Side 1  free  transition at x/c =  0.0382   31
 Side 2  free  transition at x/c =  0.8063   55

   1   rms: 0.7920E-01   max: 0.3134E+00   T at   31  1
       a =  9.000      CL =  1.3468
      Cm = -0.0838     CD =  0.03862   =>   CDf =  0.00707    CDp =  0.03156

 Side 1  free  transition at x/c =  0.0364   31
 Side 2  free  transition at x/c =  0.8104   55

   2   rms: 0.2754E-01   max: -.9816E-01   D at   36  1
       a =  9.000      CL =  1.3448
      Cm = -0.0838     CD =  0.03857   =>   CDf =  0.00631    CDp =  0.03227

 Side 1  free  transition at x/c =  0.0364   31
 Side 2  free  transition at x/c =  0.8110   55

   3   rms: 0.1234E-02   max: 0.8197E-02   D at   33  1
       a =  9.000      CL =  1.3445
      Cm = -0.0838     CD =  0.03871   =>   CDf =  0.00651    CDp =  0.03219

 Side 1  free  transition at x/c =  0.0364   31
 Side 2  free  transition at x/c =  0.8109   55

   4   rms: 0.2610E-04   max: -.8780E-04   D at   93  1
       a =  9.000      CL =  1.3444
      Cm = -0.0838     CD =  0.03870   =>   CDf =  0.00651    CDp =  0.03220
 plradd ia,ip,cpol           27           0  3.59354354E-03

 Point added to stored polar  1
 Point written to save file  sc20712_Re300k.base.pol                         
 Dump file unspecified or not available
 Calculating wake trajectory ...
 Calculating source influence matrix ...

 Solving BL system ...

 Side 1  free  transition at x/c =  0.0364   31
 Side 2  free  transition at x/c =  0.8109   55

   1   rms: 0.7227E-01   max: 0.2818E+00   T at   31  1
       a =  9.500      CL =  1.3756
      Cm = -0.0803     CD =  0.04190   =>   CDf =  0.00622    CDp =  0.03567

 Side 1  free  transition at x/c =  0.0349   32
 Side 2  free  transition at x/c =  0.8160   54

   2   rms: 0.2938E-01   max: -.9830E-01   D at   34  1
       a =  9.500      CL =  1.3786
      Cm = -0.0810     CD =  0.04128   =>   CDf =  0.00605    CDp =  0.03524

 Side 1  free  transition at x/c =  0.0350   32
 Side 2  free  transition at x/c =  0.8167   54

   3   rms: 0.2733E-02   max: 0.1480E-01   D at   34  1
       a =  9.500      CL =  1.3775
      Cm = -0.0809     CD =  0.04147   =>   CDf =  0.00626    CDp =  0.03521

 Side 1  free  transition at x/c =  0.0350   32
 Side 2  free  transition at x/c =  0.8165   54

   4   rms: 0.6262E-04   max: -.2198E-03   D at   56  2
       a =  9.500      CL =  1.3774
      Cm = -0.0809     CD =  0.04147   =>   CDf =  0.00625    CDp =  0.03522
 plradd ia,ip,cpol           28           0  3.59354354E-03

 Point added to stored polar  1
 Point written to save file  sc20712_Re300k.base.pol                         
 Dump file unspecified or not available
 Calculating wake trajectory ...
 Calculating source influence matrix ...

 Solving BL system ...

 Side 1  free  transition at x/c =  0.0350   32
 Side 2  free  transition at x/c =  0.8166   54

   1   rms: 0.7027E-01   max: 0.2587E+00   T at   32  1
       a = 10.000      CL =  1.4078
      Cm = -0.0778     CD =  0.04464   =>   CDf =  0.00626    CDp =  0.03838

 Side 1  free  transition at x/c =  0.0340   32
 Side 2  free  transition at x/c =  0.8230   55

   2   rms: 0.2845E-01   max: 0.1829E+00   D at   56  2
       a = 10.000      CL =  1.4038
      Cm = -0.0774     CD =  0.04496   =>   CDf =  0.00584    CDp =  0.03912

 Side 1  free  transition at x/c =  0.0340   32
 Side 2  free  transition at x/c =  0.8215   55

   3   rms: 0.9351E-03   max: 0.6010E-02   D at   57  2
       a = 10.000      CL =  1.4032
      Cm = -0.0773     CD =  0.04504   =>   CDf =  0.00600    CDp =  0.03904

 Side 1  free  transition at x/c =  0.0340   32
 Side 2  free  transition at x/c =  0.8214   55

   4   rms: 0.1327E-04   max: 0.1187E-03   D at   57  2
       a = 10.000      CL =  1.4032
      Cm = -0.0773     CD =  0.04504   =>   CDf =  0.00601    CDp =  0.03903
 plradd ia,ip,cpol           29           0  3.59354354E-03

 Point added to stored polar  1
 Point written to save file  sc20712_Re300k.base.pol                         
 Dump file unspecified or not available

.OPERva   c>  
 Solving BL system ...

 Side 1  free  transition at x/c =  0.0340   32
 Side 2  free  transition at x/c =  0.8214   55

   1   rms: 0.9455E-06   max: -.4395E-05   T at   55  2
       a = 10.000      CL =  1.4032
      Cm = -0.0773     CD =  0.04504   =>   CDf =  0.00601    CDp =  0.03903
 plradd ia,ip,cpol           30         182  3.59354354E-03

 Point added to stored polar  1
 Point written to save file  sc20712_Re300k.base.pol                         
 Dump file unspecified or not available
 Calculating wake trajectory ...
 Calculating source influence matrix ...

 Solving BL system ...

 Side 1  free  transition at x/c =  0.0340   32
 Side 2  free  transition at x/c =  0.8214   55

   1   rms: 0.3833E-01   max: 0.1344E+00   T at   32  1
       a = 10.250      CL =  1.4111
      Cm = -0.0749     CD =  0.04758   =>   CDf =  0.00601    CDp =  0.04157

 Side 1  free  transition at x/c =  0.0336   32
 Side 2  free  transition at x/c =  0.8235   55

   2   rms: 0.6563E-02   max: 0.2564E-01   D at   33  1
       a = 10.250      CL =  1.4068
      Cm = -0.0745     CD =  0.04833   =>   CDf =  0.00575    CDp =  0.04258

 Side 1  free  transition at x/c =  0.0336   32
 Side 2  free  transition at x/c =  0.8236   55

   3   rms: 0.3181E-03   max: 0.1328E-02   D at    5  2
       a = 10.250      CL =  1.4067
      Cm = -0.0745     CD =  0.04831   =>   CDf =  0.00577    CDp =  0.04254

 Side 1  free  transition at x/c =  0.0336   32
 Side 2  free  transition at x/c =  0.8236   55

   4   rms: 0.4299E-05   max: -.3308E-04   D at   57  2
       a = 10.250      CL =  1.4067
      Cm = -0.0745     CD =  0.04831   =>   CDf =  0.00577    CDp =  0.04255
 plradd ia,ip,cpol           31           0  3.59354354E-03

 Point added to stored polar  1
 Point written to save file  sc20712_Re300k.base.pol                         
 Dump file unspecified or not available
 Calculating wake trajectory ...
 Calculating source influence matrix ...

 Solving BL system ...

 Side 1  free  transition at x/c =  0.0336   32
 Side 2  free  transition at x/c =  0.8236   55

   1   rms: 0.5322E-01   max: 0.1364E+00   D at   81  1
       a = 10.500      CL =  1.4038
      Cm = -0.0711     CD =  0.05271   =>   CDf =  0.00544    CDp =  0.04727

 Side 1  free  transition at x/c =  0.0334   32
 Side 2  free  transition at x/c =  0.8257   54

   2   rms: 0.3122E-01   max: 0.1210E+00   D at   33  1
       a = 10.500      CL =  1.4003
      Cm = -0.0704     CD =  0.05196   =>   CDf =  0.00557    CDp =  0.04638

 Side 1  free  transition at x/c =  0.0334   32
 Side 2  free  transition at x/c =  0.8258   54

   3   rms: 0.4543E-02   max: 0.1334E-01   D at   34  1
       a = 10.500      CL =  1.3997
      Cm = -0.0704     CD =  0.05183   =>   CDf =  0.00542    CDp =  0.04641

 Side 1  free  transition at x/c =  0.0334   32
 Side 2  free  transition at x/c =  0.8259   54

   4   rms: 0.7596E-04   max: -.7142E-03   D at   56  2
       a = 10.500      CL =  1.3997
      Cm = -0.0704     CD =  0.05182   =>   CDf =  0.00539    CDp =  0.04643
 plradd ia,ip,cpol           32           0  3.59354354E-03

 Point added to stored polar  1
 Point written to save file  sc20712_Re300k.base.pol                         
 Dump file unspecified or not available
 Calculating wake trajectory ...
 Calculating source influence matrix ...

 Solving BL system ...

 Side 1  free  transition at x/c =  0.0334   32
 Side 2  free  transition at x/c =  0.8259   54

   1   rms: 0.3984E-01   max: 0.1218E+00   D at   84  1
       a = 10.750      CL =  1.3902
      Cm = -0.0658     CD =  0.05490   =>   CDf =  0.00539    CDp =  0.04951

 Side 1  free  transition at x/c =  0.0333   32
 Side 2  free  transition at x/c =  0.8283   54

   2   rms: 0.4434E-02   max: -.2130E-01   D at   56  2
       a = 10.750      CL =  1.3869
      Cm = -0.0656     CD =  0.05484   =>   CDf =  0.00500    CDp =  0.04984

 Side 1  free  transition at x/c =  0.0333   32
 Side 2  free  transition at x/c =  0.8286   54

   3   rms: 0.1371E-03   max: 0.6025E-03   D at   69  2
       a = 10.750      CL =  1.3868
      Cm = -0.0655     CD =  0.05485   =>   CDf =  0.00503    CDp =  0.04983

 Side 1  free  transition at x/c =  0.0333   32
 Side 2  free  transition at x/c =  0.8286   54

   4   rms: 0.2819E-05   max: 0.1126E-04   T at   54  2
       a = 10.750      CL =  1.3868
      Cm = -0.0655     CD =  0.05485   =>   CDf =  0.00503    CDp =  0.04983
 plradd ia,ip,cpol           33           0  3.59354354E-03

 Point added to stored polar  1
 Point written to save file  sc20712_Re300k.base.pol                         
 Dump file unspecified or not available
 Calculating wake trajectory ...
 Calculating source influence matrix ...

 Solving BL system ...

 Side 1  free  transition at x/c =  0.0333   32
 Side 2  free  transition at x/c =  0.8286   54

   1   rms: 0.3949E-01   max: 0.1264E+00   D at   84  1   RLX: 0.931
       a = 11.000      CL =  1.3697
      Cm = -0.0602     CD =  0.05769   =>   CDf =  0.00503    CDp =  0.05266

 Side 1  free  transition at x/c =  0.0332   32
 Side 2  free  transition at x/c =  0.8310   54

   2   rms: 0.5484E-02   max: 0.3457E-01   D at   94  1
       a = 11.000      CL =  1.3667
      Cm = -0.0600     CD =  0.05788   =>   CDf =  0.00474    CDp =  0.05314

 Side 1  free  transition at x/c =  0.0332   32
 Side 2  free  transition at x/c =  0.8314   54

   3   rms: 0.2111E-03   max: -.1902E-02   D at   56  2
       a = 11.000      CL =  1.3668
      Cm = -0.0600     CD =  0.05789   =>   CDf =  0.00473    CDp =  0.05316

 Side 1  free  transition at x/c =  0.0332   32
 Side 2  free  transition at x/c =  0.8314   54

   4   rms: 0.6660E-05   max: -.7221E-04   D at   56  2
       a = 11.000      CL =  1.3668
      Cm = -0.0600     CD =  0.05789   =>   CDf =  0.00473    CDp =  0.05316
[...]

 Side 1  free  transition at x/c =  0.0442   30
 Side 2  free  transition at x/c =  0.8390   59

 149   rms: 0.5265E-01   max: -.5038E+00   T at   30  1   RLX: 0.992
       a = 13.750      CL =  0.9567
      Cm = -0.1206     CD =  0.19240   =>   CDf =  0.00256    CDp =  0.18983

 Side 1  free  transition at x/c =  0.0438   30
 Side 2  free  transition at x/c =  0.8400   59

 150   rms: 0.7409E-01   max: 0.4112E+00   D at   31  1
       a = 13.750      CL =  0.9563
      Cm = -0.1255     CD =  0.20882   =>   CDf =  0.00255    CDp =  0.20627

 Side 1  free  transition at x/c =  0.0435   30
 Side 2  free  transition at x/c =  0.8389   59

 151   rms: 0.3024E-01   max: -.2219E+00   D at   30  1
       a = 13.750      CL =  0.9533
      Cm = -0.1246     CD =  0.20266   =>   CDf =  0.00256    CDp =  0.20010

 Side 1  free  transition at x/c =  0.0443   30
 Side 2  free  transition at x/c =  0.8392   59

 152   rms: 0.5741E-01   max: -.5303E+00   T at   30  1   RLX: 0.943
       a = 13.750      CL =  0.9578
      Cm = -0.1203     CD =  0.19218   =>   CDf =  0.00256    CDp =  0.18962

 Side 1  free  transition at x/c =  0.0437   30
 Side 2  free  transition at x/c =  0.8400   59

 153   rms: 0.7755E-01   max: 0.4302E+00   D at   31  1
       a = 13.750      CL =  0.9570
      Cm = -0.1252     CD =  0.20927   =>   CDf =  0.00255    CDp =  0.20672

 Side 1  free  transition at x/c =  0.0435   30
 Side 2  free  transition at x/c =  0.8389   59

 154   rms: 0.3240E-01   max: -.2220E+00   D at   30  1
       a = 13.750      CL =  0.9534
      Cm = -0.1247     CD =  0.20321   =>   CDf =  0.00256    CDp =  0.20065

 Side 1  free  transition at x/c =  0.0442   30
 Side 2  free  transition at x/c =  0.8391   59

 155   rms: 0.4993E-01   max: -.4717E+00   T at   30  1
       a = 13.750      CL =  0.9571
      Cm = -0.1207     CD =  0.19271   =>   CDf =  0.00256    CDp =  0.19015
 VISCAL:  Convergence failed
 Calculating wake trajectory ...
 Calculating source influence matrix ...

 Solving BL system ...

 Side 1  free  transition at x/c =  0.0439   30
 Side 2  free  transition at x/c =  0.8400   59

   1   rms: 0.7869E-01   max: 0.4083E+00   D at   31  1   RLX: 0.388
       a = 14.000      CL =  0.9601
      Cm = -0.1215     CD =  0.19979   =>   CDf =  0.00255    CDp =  0.19723

 Side 1  free  transition at x/c =  0.0437   30
 Side 2  free  transition at x/c =  0.8404   59

   2   rms: 0.5463E-01   max: -.2797E+00   D at   30  1
       a = 14.000      CL =  0.9610
      Cm = -0.1284     CD =  0.21196   =>   CDf =  0.00255    CDp =  0.20940

 Side 1  free  transition at x/c =  0.0422   30
 Side 2  free  transition at x/c =  0.8412   59

   3   rms: 0.1569E-01   max: -.2045E+00   D at   30  1
       a = 14.000      CL =  0.9554
      Cm = -0.1279     CD =  0.20464   =>   CDf =  0.00255    CDp =  0.20209

 Side 1  free  transition at x/c =  0.0426   30
 Side 2  free  transition at x/c =  0.8413   59

   4   rms: 0.2089E-02   max: -.1658E-01   T at   59  2
       a = 14.000      CL =  0.9559
      Cm = -0.1280     CD =  0.20222   =>   CDf =  0.00256    CDp =  0.19966

 Side 1  free  transition at x/c =  0.0427   30
 Side 2  free  transition at x/c =  0.8419   59

   5   rms: 0.2007E-03   max: -.1263E-02   D at   60  2
       a = 14.000      CL =  0.9560
      Cm = -0.1280     CD =  0.20221   =>   CDf =  0.00255    CDp =  0.19966

 Side 1  free  transition at x/c =  0.0427   30
 Side 2  free  transition at x/c =  0.8419   59

   6   rms: 0.1590E-04   max: 0.1740E-03   T at   59  2
       a = 14.000      CL =  0.9560
      Cm = -0.1280     CD =  0.20223   =>   CDf =  0.00255    CDp =  0.19967
 plradd ia,ip,cpol           44           0  2.36235699E-03

 Point added to stored polar  1
 Point written to save file  sc20712_Re300k.base.pol                         
 Dump file unspecified or not available
 Calculating wake trajectory ...
 Calculating source influence matrix ...

 Solving BL system ...

 Side 1  free  transition at x/c =  0.0427   30
 Side 2  free  transition at x/c =  0.8419   59

   1   rms: 0.1956E-01   max: 0.2999E+00   T at   30  1   RLX: 0.380
       a = 14.250      CL =  0.9582
      Cm = -0.1290     CD =  0.20473   =>   CDf =  0.00256    CDp =  0.20217

 Side 1  free  transition at x/c =  0.0422   30
 Side 2  free  transition at x/c =  0.8427   59

   2   rms: 0.1104E-01   max: 0.1499E+00   T at   30  1
       a = 14.250      CL =  0.9629
      Cm = -0.1304     CD =  0.20743   =>   CDf =  0.00255    CDp =  0.20488

 Side 1  free  transition at x/c =  0.0415   30
 Side 2  free  transition at x/c =  0.8441   59

   3   rms: 0.2316E-02   max: -.1417E-01   D at   31  1
       a = 14.250      CL =  0.9624
      Cm = -0.1304     CD =  0.20588   =>   CDf =  0.00255    CDp =  0.20334

 Side 1  free  transition at x/c =  0.0416   30
 Side 2  free  transition at x/c =  0.8444   59

   4   rms: 0.5667E-03   max: -.1826E-02   D at   91  2
       a = 14.250      CL =  0.9628
      Cm = -0.1304     CD =  0.20596   =>   CDf =  0.00255    CDp =  0.20342

 Side 1  free  transition at x/c =  0.0416   30
 Side 2  free  transition at x/c =  0.8444   59

   5   rms: 0.6180E-04   max: 0.5164E-03   T at   59  2
       a = 14.250      CL =  0.9627
      Cm = -0.1304     CD =  0.20604   =>   CDf =  0.00255    CDp =  0.20349
 plradd ia,ip,cpol           45           0  2.36235699E-03

 Point added to stored polar  1
 Point written to save file  sc20712_Re300k.base.pol                         
 Dump file unspecified or not available
 Calculating wake trajectory ...
 Calculating source influence matrix ...

 Solving BL system ...

 Side 1  free  transition at x/c =  0.0416   30
 Side 2  free  transition at x/c =  0.8444   59

   1   rms: 0.1930E-01   max: 0.2412E+00   T at   30  1   RLX: 0.374
       a = 14.500      CL =  0.9653
      Cm = -0.1312     CD =  0.20805   =>   CDf =  0.00239    CDp =  0.20566

 Side 1  free  transition at x/c =  0.0412   31
 Side 2  free  transition at x/c =  0.8453   58

   2   rms: 0.1980E-01   max: 0.2699E+00   D at    2  1
       a = 14.500      CL =  0.9711
      Cm = -0.1323     CD =  0.21048   =>   CDf =  0.00254    CDp =  0.20794

 Side 1  free  transition at x/c =  0.0407   31
 Side 2  free  transition at x/c =  0.8469   58

   3   rms: 0.2863E-02   max: -.1793E-01   D at   31  1
       a = 14.500      CL =  0.9707
      Cm = -0.1323     CD =  0.20915   =>   CDf =  0.00254    CDp =  0.20661

 Side 1  free  transition at x/c =  0.0407   31
 Side 2  free  transition at x/c =  0.8471   58

   4   rms: 0.7028E-03   max: -.2393E-02   D at   91  2
       a = 14.500      CL =  0.9711
      Cm = -0.1323     CD =  0.20931   =>   CDf =  0.00254    CDp =  0.20677

 Side 1  free  transition at x/c =  0.0407   31
 Side 2  free  transition at x/c =  0.8471   58

   5   rms: 0.8156E-04   max: 0.8247E-03   D at   60  2
       a = 14.500      CL =  0.9711
      Cm = -0.1323     CD =  0.20940   =>   CDf =  0.00254    CDp =  0.20686
 plradd ia,ip,cpol           46           0  2.36235699E-03

 Point added to stored polar  1
 Point written to save file  sc20712_Re300k.base.pol                         
 Dump file unspecified or not available
 Calculating wake trajectory ...
 Calculating source influence matrix ...

 Solving BL system ...

 Side 1  free  transition at x/c =  0.0407   31
 Side 2  free  transition at x/c =  0.8471   58

   1   rms: 0.2233E-01   max: 0.2256E+00   T at   31  1   RLX: 0.369
       a = 14.750      CL =  0.9740
      Cm = -0.1329     CD =  0.21113   =>   CDf =  0.00254    CDp =  0.20859

 Side 1  free  transition at x/c =  0.0404   31
 Side 2  free  transition at x/c =  0.8480   58

   2   rms: 0.1489E-01   max: 0.1359E+00   T at   31  1
       a = 14.750      CL =  0.9807
      Cm = -0.1338     CD =  0.21326   =>   CDf =  0.00254    CDp =  0.21072

 Side 1  free  transition at x/c =  0.0401   31
 Side 2  free  transition at x/c =  0.8496   58

   3   rms: 0.3447E-02   max: -.2202E-01   D at   31  1
       a = 14.750      CL =  0.9804
      Cm = -0.1338     CD =  0.21196   =>   CDf =  0.00254    CDp =  0.20942

 Side 1  free  transition at x/c =  0.0401   31
 Side 2  free  transition at x/c =  0.8496   58

   4   rms: 0.4282E-02   max: -.5624E-01   D at   58  2
       a = 14.750      CL =  0.9810
      Cm = -0.1338     CD =  0.21230   =>   CDf =  0.00254    CDp =  0.20976

 Side 1  free  transition at x/c =  0.0401   31
 Side 2  free  transition at x/c =  0.8497   59

   5   rms: 0.3869E-02   max: -.5441E-01   D at   58  2
       a = 14.750      CL =  0.9809
      Cm = -0.1338     CD =  0.21243   =>   CDf =  0.00254    CDp =  0.20988

 Side 1  free  transition at x/c =  0.0401   31
 Side 2  free  transition at x/c =  0.8497   59

   6   rms: 0.2156E-03   max: 0.2463E-02   D at   59  2
       a = 14.750      CL =  0.9809
      Cm = -0.1338     CD =  0.21244   =>   CDf =  0.00254    CDp =  0.20990

 Side 1  free  transition at x/c =  0.0401   31
 Side 2  free  transition at x/c =  0.8497   59

   7   rms: 0.1058E-05   max: -.6176E-05   D at   59  2
       a = 14.750      CL =  0.9809
      Cm = -0.1338     CD =  0.21244   =>   CDf =  0.00254    CDp =  0.20990
 plradd ia,ip,cpol           47           0  2.36235699E-03

 Point added to stored polar  1
 Point written to save file  sc20712_Re300k.base.pol                         
 Dump file unspecified or not available
 Calculating wake trajectory ...
 Calculating source influence matrix ...

 Solving BL system ...

 Side 1  free  transition at x/c =  0.0401   31
 Side 2  free  transition at x/c =  0.8497   59

   1   rms: 0.2716E-01   max: 0.2169E+00   T at   31  1   RLX: 0.364
       a = 15.000      CL =  0.9839
      Cm = -0.1341     CD =  0.21385   =>   CDf =  0.00254    CDp =  0.21131

 Side 1  free  transition at x/c =  0.0399   31
 Side 2  free  transition at x/c =  0.8505   59

   2   rms: 0.1834E-01   max: 0.1331E+00   T at   31  1
       a = 15.000      CL =  0.9909
      Cm = -0.1344     CD =  0.21552   =>   CDf =  0.00253    CDp =  0.21299

 Side 1  free  transition at x/c =  0.0397   31
 Side 2  free  transition at x/c =  0.8520   59

   3   rms: 0.4611E-02   max: -.2328E-01   D at   31  1
       a = 15.000      CL =  0.9907
      Cm = -0.1343     CD =  0.21425   =>   CDf =  0.00251    CDp =  0.21174

 Side 1  free  transition at x/c =  0.0397   31
 Side 2  free  transition at x/c =  0.8520   59

   4   rms: 0.1480E-02   max: -.6058E-02   D at   91  2
       a = 15.000      CL =  0.9915
      Cm = -0.1342     CD =  0.21491   =>   CDf =  0.00251    CDp =  0.21240

 Side 1  free  transition at x/c =  0.0397   31
 Side 2  free  transition at x/c =  0.8520   59

   5   rms: 0.1390E-03   max: -.1066E-02   D at   91  2
       a = 15.000      CL =  0.9915
      Cm = -0.1342     CD =  0.21509   =>   CDf =  0.00251    CDp =  0.21258

 Side 1  free  transition at x/c =  0.0397   31
 Side 2  free  transition at x/c =  0.8520   59

   6   rms: 0.1066E-04   max: 0.1104E-03   T at   59  2
       a = 15.000      CL =  0.9915
      Cm = -0.1342     CD =  0.21510   =>   CDf =  0.00251    CDp =  0.21259
 plradd ia,ip,cpol           48           0  2.36235699E-03

 Point added to stored polar  1
 Point written to save file  sc20712_Re300k.base.pol                         
 Dump file unspecified or not available
 Calculating wake trajectory ...
 Calculating source influence matrix ...

 Solving BL system ...

 Side 1  free  transition at x/c =  0.0397   31
 Side 2  free  transition at x/c =  0.8520   59

   1   rms: 0.3521E-01   max: 0.2226E+00   T at   31  1   RLX: 0.360
       a = 15.250      CL =  0.9951
      Cm = -0.1341     CD =  0.21619   =>   CDf =  0.00251    CDp =  0.21367

 Side 1  free  transition at x/c =  0.0395   31
 Side 2  free  transition at x/c =  0.8529   59

   2   rms: 0.2543E-01   max: 0.1401E+00   T at   31  1
       a = 15.250      CL =  1.0042
      Cm = -0.1336     CD =  0.21738   =>   CDf =  0.00250    CDp =  0.21487

 Side 1  free  transition at x/c =  0.0393   31
 Side 2  free  transition at x/c =  0.8548   59

   3   rms: 0.5938E-02   max: -.2889E-01   D at   31  1
       a = 15.250      CL =  1.0036
      Cm = -0.1337     CD =  0.21679   =>   CDf =  0.00249    CDp =  0.21430

 Side 1  free  transition at x/c =  0.0394   31
 Side 2  free  transition at x/c =  0.8548   59

   4   rms: 0.1585E-02   max: -.6228E-02   D at   91  2
       a = 15.250      CL =  1.0043
      Cm = -0.1336     CD =  0.21747   =>   CDf =  0.00249    CDp =  0.21498

 Side 1  free  transition at x/c =  0.0394   31
 Side 2  free  transition at x/c =  0.8549   59

   5   rms: 0.1466E-03   max: -.1154E-02   D at   91  2
       a = 15.250      CL =  1.0043
      Cm = -0.1336     CD =  0.21767   =>   CDf =  0.00249    CDp =  0.21518

 Side 1  free  transition at x/c =  0.0394   31
 Side 2  free  transition at x/c =  0.8548   59

   6   rms: 0.9709E-05   max: 0.1093E-03   T at   59  2
       a = 15.250      CL =  1.0043
      Cm = -0.1336     CD =  0.21768   =>   CDf =  0.00249    CDp =  0.21519
 plradd ia,ip,cpol           49           0  2.36235699E-03

 Point added to stored polar  1
 Point written to save file  sc20712_Re300k.base.pol                         
 Dump file unspecified or not available
 Calculating wake trajectory ...
 Calculating source influence matrix ...

 Solving BL system ...

 Side 1  free  transition at x/c =  0.0394   31
 Side 2  free  transition at x/c =  0.8548   59

   1   rms: 0.4167E-01   max: 0.2418E+00   T at   31  1   RLX: 0.356
       a = 15.500      CL =  1.0079
      Cm = -0.1334     CD =  0.21864   =>   CDf =  0.00249    CDp =  0.21616

 Side 1  free  transition at x/c =  0.0392   31
 Side 2  free  transition at x/c =  0.8559   59

   2   rms: 0.3015E-01   max: 0.1779E+00   T at   31  1
       a = 15.500      CL =  1.0161
      Cm = -0.1326     CD =  0.22010   =>   CDf =  0.00230    CDp =  0.21781

 Side 1  free  transition at x/c =  0.0391   32
 Side 2  free  transition at x/c =  0.8580   58

   3   rms: 0.1530E-01   max: 0.1014E+00   T at   32  1
       a = 15.500      CL =  1.0169
      Cm = -0.1318     CD =  0.22075   =>   CDf =  0.00246    CDp =  0.21829

 Side 1  free  transition at x/c =  0.0390   31
 Side 2  free  transition at x/c =  0.8581   58

   4   rms: 0.6638E-01   max: 0.3194E+00   D at   32  1
       a = 15.500      CL =  1.0200
      Cm = -0.1331     CD =  0.23204   =>   CDf =  0.00246    CDp =  0.22958

 Side 1  free  transition at x/c =  0.0390   31
 Side 2  free  transition at x/c =  0.8578   58

   5   rms: 0.2488E-01   max: 0.9775E-01   D at   90  2
       a = 15.500      CL =  1.0142
      Cm = -0.1336     CD =  0.22656   =>   CDf =  0.00246    CDp =  0.22410

 Side 1  free  transition at x/c =  0.0390   31
 Side 2  free  transition at x/c =  0.8575   58

   6   rms: 0.3725E-02   max: 0.2125E-01   D at   90  2
       a = 15.500      CL =  1.0140
      Cm = -0.1336     CD =  0.22186   =>   CDf =  0.00247    CDp =  0.21940

 Side 1  free  transition at x/c =  0.0391   31
 Side 2  free  transition at x/c =  0.8578   58

   7   rms: 0.4077E-03   max: -.3701E-02   D at   59  2
       a = 15.500      CL =  1.0143
      Cm = -0.1337     CD =  0.22163   =>   CDf =  0.00247    CDp =  0.21916

 Side 1  free  transition at x/c =  0.0390   31
 Side 2  free  transition at x/c =  0.8578   58

   8   rms: 0.7579E-04   max: 0.3254E-03   D at   90  2
       a = 15.500      CL =  1.0143
      Cm = -0.1337     CD =  0.22159   =>   CDf =  0.00247    CDp =  0.21912
 plradd ia,ip,cpol           50           0  2.36235699E-03

 Point added to stored polar  1
 Point written to save file  sc20712_Re300k.base.pol                         
 Dump file unspecified or not available
 Calculating wake trajectory ...
 Calculating source influence matrix ...

 Solving BL system ...

 Side 1  free  transition at x/c =  0.0390   31
 Side 2  free  transition at x/c =  0.8578   58

   1   rms: 0.4843E-01   max: -.1558E+00   T at   35  1   RLX: 0.349
       a = 15.750      CL =  1.0142
      Cm = -0.1360     CD =  0.22586   =>   CDf =  0.00247    CDp =  0.22338

 Side 1  free  transition at x/c =  0.0389   31
 Side 2  free  transition at x/c =  0.8585   58
 idif Ue xi dudx           1  9.21738371E-02  4.60803509E-03   20.002851    
 Uenew xinew           2  7.84747396E-03  3.92317772E-04

   2   rms: 0.6062E-01   max: -.1660E+00   T at   35  1
       a = 15.750      CL =  1.0135
      Cm = -0.1427     CD =  0.23886   =>   CDf =  0.00264    CDp =  0.23622

 Side 1  free  transition at x/c =  0.0376   30
 Side 2  free  transition at x/c =  0.8592   59

   3   rms: 0.6607E-01   max: 0.3511E+00   D at   31  1
       a = 15.750      CL =  1.0067
      Cm = -0.1466     CD =  0.24417   =>   CDf =  0.00247    CDp =  0.24169

 Side 1  free  transition at x/c =  0.0368   30
 Side 2  free  transition at x/c =  0.8579   59

   4   rms: 0.1469E-01   max: -.1099E+00   D at   30  1
       a = 15.750      CL =  1.0030
      Cm = -0.1457     CD =  0.23239   =>   CDf =  0.00249    CDp =  0.22990

 Side 1  free  transition at x/c =  0.0372   30
 Side 2  free  transition at x/c =  0.8586   59

   5   rms: 0.1559E-02   max: 0.9035E-02   D at   62  2
       a = 15.750      CL =  1.0037
      Cm = -0.1459     CD =  0.22975   =>   CDf =  0.00249    CDp =  0.22725

 Side 1  free  transition at x/c =  0.0372   30
 Side 2  free  transition at x/c =  0.8590   59

   6   rms: 0.1966E-03   max: 0.1241E-02   T at   30  1
       a = 15.750      CL =  1.0039
      Cm = -0.1459     CD =  0.22979   =>   CDf =  0.00249    CDp =  0.22730

 Side 1  free  transition at x/c =  0.0372   30
 Side 2  free  transition at x/c =  0.8590   59

   7   rms: 0.2048E-04   max: -.1610E-03   D at   62  2
       a = 15.750      CL =  1.0039
      Cm = -0.1459     CD =  0.22982   =>   CDf =  0.00249    CDp =  0.22733
 plradd ia,ip,cpol           51           0  1.41008920E-03

 Point added to stored polar  1
 Point written to save file  sc20712_Re300k.base.pol                         
 Dump file unspecified or not available
 Calculating wake trajectory ...
 Calculating source influence matrix ...

 Solving BL system ...

 Side 1  free  transition at x/c =  0.0372   30
 Side 2  free  transition at x/c =  0.8590   59

   1   rms: 0.2542E-01   max: 0.4367E+00   T at   30  1   RLX: 0.341
       a = 16.000      CL =  1.0060
      Cm = -0.1470     CD =  0.23229   =>   CDf =  0.00249    CDp =  0.22980

 Side 1  free  transition at x/c =  0.0366   30
 Side 2  free  transition at x/c =  0.8599   59

   2   rms: 0.1245E-01   max: 0.1993E+00   T at   30  1
       a = 16.000      CL =  1.0119
      Cm = -0.1486     CD =  0.23506   =>   CDf =  0.00249    CDp =  0.23257

 Side 1  free  transition at x/c =  0.0358   30
 Side 2  free  transition at x/c =  0.8619   59

   3   rms: 0.3348E-02   max: -.2520E-01   D at   31  1
       a = 16.000      CL =  1.0114
      Cm = -0.1486     CD =  0.23304   =>   CDf =  0.00249    CDp =  0.23056

 Side 1  free  transition at x/c =  0.0359   30
 Side 2  free  transition at x/c =  0.8620   59

   4   rms: 0.9387E-03   max: -.3609E-02   D at   91  2
       a = 16.000      CL =  1.0119
      Cm = -0.1486     CD =  0.23331   =>   CDf =  0.00249    CDp =  0.23083

 Side 1  free  transition at x/c =  0.0359   30
 Side 2  free  transition at x/c =  0.8620   59

   5   rms: 0.1118E-03   max: -.8798E-03   D at   91  2
       a = 16.000      CL =  1.0119
      Cm = -0.1485     CD =  0.23350   =>   CDf =  0.00249    CDp =  0.23101

 Side 1  free  transition at x/c =  0.0359   30
 Side 2  free  transition at x/c =  0.8620   59

   6   rms: 0.6579E-05   max: 0.7888E-04   T at   59  2
       a = 16.000      CL =  1.0119
      Cm = -0.1485     CD =  0.23350   =>   CDf =  0.00249    CDp =  0.23102
 plradd ia,ip,cpol           52           0  1.41008920E-03

 Point added to stored polar  1
 Point written to save file  sc20712_Re300k.base.pol                         
 Dump file unspecified or not available

.OPERva   c>  
 Polar accumulation disabled

.OPERv   c>  
 XFOIL   c>  
 XFOIL   c>  