
 ===================================================
  XFOIL Version 6.99
  Copyright (C) 2000   Mark Drela, Harold Youngren

  This software comes with ABSOLUTELY NO WARRANTY,
    subject to the GNU General Public License.

  Caveat computor
 ===================================================

 File  xfoil.def  not found

   QUIT    Exit program

  .OPER    Direct operating point(s)
  .MDES    Complex mapping design routine
  .QDES    Surface speed design routine
  .GDES    Geometry design routine

   SAVE f  Write airfoil to labeled coordinate file
   PSAV f  Write airfoil to plain coordinate file
   ISAV f  Write airfoil to ISES coordinate file
   MSAV f  Write airfoil to MSES coordinate file
   REVE    Reverse written-airfoil node ordering

   LOAD f  Read buffer airfoil from coordinate file
   NACA i  Set NACA 4,5-digit airfoil and buffer airfoil
   INTE    Set buffer airfoil by interpolating two airfoils
   NORM    Buffer airfoil normalization toggle
   XYCM rr Change CM reference location, currently  0.25000 0.00000

   BEND    Display structural properties of current airfoil

   PCOP    Set current-airfoil panel nodes directly from buffer airfoil points
   PANE    Set current-airfoil panel nodes ( 160 ) based on curvature
  .PPAR    Show/change paneling

  .PLOP    Plotting options

   WDEF f  Write  current-settings file
   RDEF f  Reread current-settings file
   NAME s  Specify new airfoil name
   NINC    Increment name version number

   Z       Zoom    | (available in all menus)
   U       Unzoom  | 

 XFOIL   c>  
 Labeled airfoil file.  Name:  NASA SC(2)-0714 AIRFOIL                         

 Number of input coordinate points: 205
 Counterclockwise ordering
 Max thickness =     0.139619  at x =   0.372
 Max camber    =     0.025252  at x =   0.811

  LE  x,y  =   0.00000   0.00039  |   Chord =   1.00009
  TE  x,y  =   1.00000  -0.01300  |

 Current airfoil nodes set from buffer airfoil nodes ( 205 )

 XFOIL   c>  
 XFOIL   c>  
 Blunt trailing edge.  Gap =  0.00700

 Paneling parameters used...
   Number of panel nodes       160
   Panel bunching parameter    1.000
   TE/LE panel density ratio   0.150
   Refined-area/LE panel density ratio    0.200
   Top    side refined area x/c limits  1.000 1.000
   Bottom side refined area x/c limits  1.000 1.000

 XFOIL   c>  
.OPERi   c>  
 Xtr/c     =  1.0000    top    side
 Xtr/c     =  1.0000    bottom side
 Ncrit     =    9.00   ( 0.070 % turb. level )
 Vacc      =  0.0100

 Klag  =  5.6000     Uxwt  =    1.00
 A     =  6.7000     B     =  0.7500       KCt = 0.01485
 CtiniK=  1.8000     CtiniX=  3.3000

..VPAR   c>  
..VPAR   c>  
.OPERi   c>  
 M  =    0.0000
 Re =    400000

.OPERv   c>  
.OPERv   c>  
.OPERv   c>  
 Polar  1 newly created for accumulation
 Airfoil archived with polar: NASA SC(2)-0714 AIRFOIL                         

Enter  polar save filename  OR  <return> for no file   s>  
 New polar save file available

Enter  polar dump filename  OR  <return> for no file   s>  
 Polar dump file will NOT be written

 Polar accumulation enabled

.OPERva   c>   Calculating unit vorticity distributions ...
 Calculating wake trajectory ...
 Calculating source influence matrix ...

 Solving BL system ...

 Initializing BL ...
    side            1  ...
 MRCHUE: Inverse mode at  66     Hk =   3.800
 MRCHUE: Inverse mode at  68     Hk =   4.281
 MRCHUE: Inverse mode at  69     Hk =   4.826
 MRCHUE: Inverse mode at  70     Hk =   5.357
 MRCHUE: Inverse mode at  71     Hk =   5.873
 MRCHUE: Inverse mode at  72     Hk =   6.370
 MRCHUE: Inverse mode at  73     Hk =   6.841
 MRCHUE: Inverse mode at  74     Hk =   7.281
 MRCHUE: Inverse mode at  75     Hk =   7.681
 MRCHUE: Inverse mode at  76     Hk =   8.041
 MRCHUE: Inverse mode at  77     Hk =   8.257
    side            2  ...
 MRCHUE: Inverse mode at  56     Hk =   3.813
 MRCHUE: Inverse mode at  57     Hk =   4.440
 MRCHUE: Inverse mode at  58     Hk =   5.053
 MRCHUE: Inverse mode at  59     Hk =   5.652
 MRCHUE: Inverse mode at  60     Hk =   6.241
 MRCHUE: Inverse mode at  61     Hk =   6.354
 MRCHUE: Inverse mode at  62     Hk =   3.559
 MRCHUE: Inverse mode at  63     Hk =   2.500
 MRCHUE: Inverse mode at  72     Hk =   2.500
 MRCHUE: Inverse mode at  73     Hk =   2.500
 MRCHUE: Inverse mode at  74     Hk =   2.500
 MRCHUE: Inverse mode at  75     Hk =   2.500
 MRCHUE: Inverse mode at  76     Hk =   2.500
 MRCHUE: Inverse mode at  77     Hk =   2.500
 MRCHUE: Inverse mode at  78     Hk =   2.500
 MRCHUE: Inverse mode at  79     Hk =   2.500
 MRCHUE: Inverse mode at  87     Hk =   2.653
 MRCHUE: Inverse mode at  88     Hk =   2.478

 Side 1 forced transition at x/c =  1.0000   77
 Side 2  free  transition at x/c =  0.6326   61
 idif Ue xi dudx           1  0.13463354      2.62451172E-03   51.298512    
 Uenew xinew           2  6.78182254E-03  1.32203102E-04

   1   rms: 0.3087E+00   max: 0.1553E+01   D at   89  2   RLX: 0.684
       a = -4.000      CL =  0.0012
      Cm = -0.1190     CD =  0.00850   =>   CDf =  0.00442    CDp =  0.00408

 MRCHDU: Convergence failed at  90  side 2    Res =  0.1211E+02
 MRCHDU: Convergence failed at  91  side 2    Res =  0.2733E+01
 MRCHDU: Convergence failed at  92  side 2    Res =  0.2379E+01
 MRCHDU: Convergence failed at  93  side 2    Res =  0.6027E+01
 MRCHDU: Convergence failed at  94  side 2    Res =  0.7824E+01
 Side 1  free  transition at x/c =  0.9919   75
 Side 2  free  transition at x/c =  0.6065   61

   2   rms: 0.1362E+00   max: 0.2043E+01   T at   75  1   RLX: 0.381
       a = -4.000      CL = -0.0121
      Cm = -0.1172     CD =  0.01100   =>   CDf =  0.00453    CDp =  0.00647

 Side 1  free  transition at x/c =  0.9791   74
 Side 2  free  transition at x/c =  0.6073   61

   3   rms: 0.1096E+00   max: 0.1471E+01   T at   74  1   RLX: 0.553
       a = -4.000      CL = -0.0404
      Cm = -0.1103     CD =  0.01245   =>   CDf =  0.00448    CDp =  0.00796

 Side 1  free  transition at x/c =  0.9653   73
 Side 2  free  transition at x/c =  0.6061   61

   4   rms: 0.4969E-01   max: -.4320E+00   D at   76  1
       a = -4.000      CL = -0.0188
      Cm = -0.1136     CD =  0.01315   =>   CDf =  0.00443    CDp =  0.00872

 Side 1  free  transition at x/c =  0.9670   73
 Side 2  free  transition at x/c =  0.6104   61

   5   rms: 0.9265E+02   max: 0.1132E+04   T at   73  1   RLX: 0.001
       a = -4.000      CL = -0.0671
      Cm = -0.1039     CD =  0.01313   =>   CDf =  0.00441    CDp =  0.00872

 Side 1  free  transition at x/c =  0.9524   72
 Side 2  free  transition at x/c =  0.6029   61

   6   rms: 0.2837E+00   max: 0.3325E+01   T at   72  1   RLX: 0.237
       a = -4.000      CL = -0.1077
      Cm = -0.0958     CD =  0.01522   =>   CDf =  0.00441    CDp =  0.01081

 MRCHDU: Convergence failed at  72  side 1    Res =  0.5430E-05
 Side 1  free  transition at x/c =  0.9396   72
 Side 2  free  transition at x/c =  0.5979   60

   7   rms: 0.1196E+00   max: -.7007E+00   T at   72  1   RLX: 0.714
       a = -4.000      CL = -0.0709
      Cm = -0.1036     CD =  0.01475   =>   CDf =  0.00441    CDp =  0.01034

 Side 1  free  transition at x/c =  0.9478   72
 Side 2  free  transition at x/c =  0.6086   61

   8   rms: 0.1304E+00   max: -.1247E+01   T at   72  1   RLX: 0.401
       a = -4.000      CL = -0.0407
      Cm = -0.1086     CD =  0.01603   =>   CDf =  0.00426    CDp =  0.01177

 Side 1  free  transition at x/c =  0.9601   73
 Side 2  free  transition at x/c =  0.6119   61

   9   rms: 0.3393E-01   max: -.2037E+00   T at   73  1
       a = -4.000      CL = -0.0231
      Cm = -0.1129     CD =  0.01284   =>   CDf =  0.00432    CDp =  0.00851

 Side 1  free  transition at x/c =  0.9654   73
 Side 2  free  transition at x/c =  0.6109   61

  10   rms: 0.2219E-01   max: -.2326E+00   T at   73  1
       a = -4.000      CL = -0.0084
      Cm = -0.1158     CD =  0.01285   =>   CDf =  0.00440    CDp =  0.00845

 Side 1  free  transition at x/c =  0.9706   74
 Side 2  free  transition at x/c =  0.6120   61

  11   rms: 0.2967E-01   max: 0.2080E+00   D at   74  1
       a = -4.000      CL = -0.0154
      Cm = -0.1143     CD =  0.01280   =>   CDf =  0.00442    CDp =  0.00838

 Side 1  free  transition at x/c =  0.9680   74
 Side 2  free  transition at x/c =  0.6108   61

  12   rms: 0.3756E-02   max: -.3337E-01   D at   74  1
       a = -4.000      CL = -0.0144
      Cm = -0.1145     CD =  0.01284   =>   CDf =  0.00441    CDp =  0.00842

 Side 1  free  transition at x/c =  0.9683   74
 Side 2  free  transition at x/c =  0.6110   61

  13   rms: 0.1179E-03   max: 0.9823E-03   T at   74  1
       a = -4.000      CL = -0.0145
      Cm = -0.1145     CD =  0.01284   =>   CDf =  0.00441    CDp =  0.00842

 Side 1  free  transition at x/c =  0.9682   74
 Side 2  free  transition at x/c =  0.6110   61

  14   rms: 0.1434E-05   max: 0.1225E-04   D at    4  2
       a = -4.000      CL = -0.0145
      Cm = -0.1145     CD =  0.01284   =>   CDf =  0.00441    CDp =  0.00842
 plradd ia,ip,cpol            1           0  2.38925200E-02

 Point added to stored polar  1
 Point written to save file  sc20714_Re400k.base.pol                         
 Dump file unspecified or not available
 Calculating wake trajectory ...
 Calculating source influence matrix ...

 Solving BL system ...

 Side 1  free  transition at x/c =  0.9682   74
 Side 2  free  transition at x/c =  0.6110   61

   1   rms: 0.9794E-01   max: -.4253E+00   T at   61  2
       a = -3.500      CL =  0.0624
      Cm = -0.1187     CD =  0.01322   =>   CDf =  0.00437    CDp =  0.00885

 Side 1  free  transition at x/c =  0.9664   74
 Side 2  free  transition at x/c =  0.6342   61

   2   rms: 0.2709E+00   max: 0.3203E+01   T at   74  1   RLX: 0.251
       a = -3.500      CL =  0.0085
      Cm = -0.1074     CD =  0.01296   =>   CDf =  0.00443    CDp =  0.00852

 Side 1  free  transition at x/c =  0.9520   73
 Side 2  free  transition at x/c =  0.6263   61

   3   rms: 0.4015E+00   max: 0.4788E+01   T at   73  1   RLX: 0.169
       a = -3.500      CL = -0.0386
      Cm = -0.0981     CD =  0.01517   =>   CDf =  0.00440    CDp =  0.01078

 Side 1  free  transition at x/c =  0.9373   72
 Side 2  free  transition at x/c =  0.6210   61
 idif Ue xi dudx           1  0.14769429      2.86710262E-03   51.513432    
 Uenew xinew           2  1.93069261E-02  3.74794006E-04

   4   rms: 0.2698E+00   max: 0.3003E+01   T at   72  1   RLX: 0.259
       a = -3.500      CL = -0.0741
      Cm = -0.0912     CD =  0.01728   =>   CDf =  0.00446    CDp =  0.01283

 Side 1  free  transition at x/c =  0.9239   71
 Side 2  free  transition at x/c =  0.6180   62

   5   rms: 0.1394E+00   max: -.8042E+00   T at   71  1   RLX: 0.622
       a = -3.500      CL = -0.0381
      Cm = -0.0984     CD =  0.01719   =>   CDf =  0.00436    CDp =  0.01282

 Side 1  free  transition at x/c =  0.9326   72
 Side 2  free  transition at x/c =  0.6223   61

   6   rms: 0.1812E+00   max: -.1903E+01   T at   72  1   RLX: 0.263
       a = -3.500      CL = -0.0071
      Cm = -0.1039     CD =  0.01908   =>   CDf =  0.00437    CDp =  0.01471

 Side 1  free  transition at x/c =  0.9437   73
 Side 2  free  transition at x/c =  0.6253   61

   7   rms: 0.7572E-01   max: -.5483E+00   T at   73  1   RLX: 0.912
       a = -3.500      CL =  0.0298
      Cm = -0.1118     CD =  0.01394   =>   CDf =  0.00438    CDp =  0.00956

 Side 1  free  transition at x/c =  0.9564   74
 Side 2  free  transition at x/c =  0.6289   61

   8   rms: 0.1800E-01   max: -.1190E+00   T at   74  1
       a = -3.500      CL =  0.0377
      Cm = -0.1133     CD =  0.01329   =>   CDf =  0.00440    CDp =  0.00889

 Side 1  free  transition at x/c =  0.9594   74
 Side 2  free  transition at x/c =  0.6298   61

   9   rms: 0.2383E-02   max: -.1382E-01   D at   75  1
       a = -3.500      CL =  0.0386
      Cm = -0.1135     CD =  0.01330   =>   CDf =  0.00440    CDp =  0.00890

 Side 1  free  transition at x/c =  0.9597   74
 Side 2  free  transition at x/c =  0.6298   61

  10   rms: 0.2566E-04   max: 0.1882E-03   D at   62  2
       a = -3.500      CL =  0.0386
      Cm = -0.1135     CD =  0.01330   =>   CDf =  0.00441    CDp =  0.00890
 plradd ia,ip,cpol            2           0  2.78119557E-02

 Point added to stored polar  1
 Point written to save file  sc20714_Re400k.base.pol                         
 Dump file unspecified or not available
 Calculating wake trajectory ...
 Calculating source influence matrix ...

 Solving BL system ...

 Side 1  free  transition at x/c =  0.9597   74
 Side 2  free  transition at x/c =  0.6298   61

   1   rms: 0.9005E-01   max: -.4339E+00   T at   61  2
       a = -3.000      CL =  0.1077
      Cm = -0.1161     CD =  0.01367   =>   CDf =  0.00436    CDp =  0.00932

 Side 1  free  transition at x/c =  0.9547   75
 Side 2  free  transition at x/c =  0.6447   61

   2   rms: 0.2491E-01   max: 0.2925E+00   D at   62  2
       a = -3.000      CL =  0.1048
      Cm = -0.1150     CD =  0.01365   =>   CDf =  0.00435    CDp =  0.00930

 Side 1  free  transition at x/c =  0.9557   75
 Side 2  free  transition at x/c =  0.6427   61

   3   rms: 0.2843E-02   max: 0.4269E-01   D at   62  2
       a = -3.000      CL =  0.1042
      Cm = -0.1148     CD =  0.01368   =>   CDf =  0.00436    CDp =  0.00932

 Side 1  free  transition at x/c =  0.9557   75
 Side 2  free  transition at x/c =  0.6420   61

   4   rms: 0.4186E-04   max: -.5208E-03   D at   61  2
       a = -3.000      CL =  0.1042
      Cm = -0.1148     CD =  0.01368   =>   CDf =  0.00437    CDp =  0.00932
 plradd ia,ip,cpol            3           0  2.78119557E-02

 Point added to stored polar  1
 Point written to save file  sc20714_Re400k.base.pol                         
 Dump file unspecified or not available
 Calculating wake trajectory ...
 Calculating source influence matrix ...

 Solving BL system ...

 Side 1  free  transition at x/c =  0.9557   75
 Side 2  free  transition at x/c =  0.6420   61

   1   rms: 0.8801E-01   max: -.2571E+00   T at   61  2
       a = -2.500      CL =  0.1738
      Cm = -0.1169     CD =  0.01399   =>   CDf =  0.00432    CDp =  0.00967

 Side 1  free  transition at x/c =  0.9507   75
 Side 2  free  transition at x/c =  0.6533   61
 idif Ue xi dudx           1  0.15815720      2.99263000E-03   52.848900    
 Uenew xinew           2  3.12042944E-02  5.90443611E-04

   2   rms: 0.7892E-01   max: 0.8553E+00   T at   75  1   RLX: 0.939
       a = -2.500      CL =  0.1201
      Cm = -0.1066     CD =  0.01402   =>   CDf =  0.00442    CDp =  0.00960

 Side 1  free  transition at x/c =  0.9342   73
 Side 2  free  transition at x/c =  0.6533   62

   3   rms: 0.2544E+00   max: -.2759E+01   T at   73  1   RLX: 0.181
       a = -2.500      CL =  0.1527
      Cm = -0.1121     CD =  0.01696   =>   CDf =  0.00439    CDp =  0.01256

 Side 1  free  transition at x/c =  0.9474   74
 Side 2  free  transition at x/c =  0.6546   62

   4   rms: 0.2831E-01   max: 0.4330E+00   D at   74  1
       a = -2.500      CL =  0.1688
      Cm = -0.1160     CD =  0.01393   =>   CDf =  0.00431    CDp =  0.00961

 Side 1  free  transition at x/c =  0.9491   75
 Side 2  free  transition at x/c =  0.6545   61

   5   rms: 0.3494E-02   max: 0.3529E-01   T at   75  1
       a = -2.500      CL =  0.1664
      Cm = -0.1155     CD =  0.01394   =>   CDf =  0.00437    CDp =  0.00958

 Side 1  free  transition at x/c =  0.9481   75
 Side 2  free  transition at x/c =  0.6544   61

   6   rms: 0.5213E-03   max: -.3999E-02   T at   75  1
       a = -2.500      CL =  0.1668
      Cm = -0.1156     CD =  0.01394   =>   CDf =  0.00437    CDp =  0.00958

 Side 1  free  transition at x/c =  0.9483   75
 Side 2  free  transition at x/c =  0.6544   61

   7   rms: 0.6174E-05   max: -.3926E-04   T at   75  1
       a = -2.500      CL =  0.1668
      Cm = -0.1156     CD =  0.01394   =>   CDf =  0.00437    CDp =  0.00958
 plradd ia,ip,cpol            4           0  3.21319401E-02

 Point added to stored polar  1
 Point written to save file  sc20714_Re400k.base.pol                         
 Dump file unspecified or not available
 Calculating wake trajectory ...
 Calculating source influence matrix ...

 Solving BL system ...

 Side 1  free  transition at x/c =  0.9483   75
 Side 2  free  transition at x/c =  0.6544   61

   1   rms: 0.8618E-01   max: 0.5181E+00   T at   75  1
       a = -2.000      CL =  0.2092
      Cm = -0.1111     CD =  0.01432   =>   CDf =  0.00437    CDp =  0.00996

 Side 1  free  transition at x/c =  0.9337   74
 Side 2  free  transition at x/c =  0.6644   61

   2   rms: 0.9669E-01   max: -.9319E+00   T at   74  1   RLX: 0.537
       a = -2.000      CL =  0.2456
      Cm = -0.1176     CD =  0.01496   =>   CDf =  0.00423    CDp =  0.01073

 Side 1  free  transition at x/c =  0.9488   75
 Side 2  free  transition at x/c =  0.6657   61

   3   rms: 0.6870E-01   max: 0.5368E+00   D at   77  1
       a = -2.000      CL =  0.2303
      Cm = -0.1149     CD =  0.01439   =>   CDf =  0.00423    CDp =  0.01016

 Side 1  free  transition at x/c =  0.9414   75
 Side 2  free  transition at x/c =  0.6642   61

   4   rms: 0.4418E-02   max: 0.3763E-01   D at   79  1
       a = -2.000      CL =  0.2299
      Cm = -0.1149     CD =  0.01436   =>   CDf =  0.00422    CDp =  0.01014

 Side 1  free  transition at x/c =  0.9408   75
 Side 2  free  transition at x/c =  0.6646   61

   5   rms: 0.4437E-03   max: -.3160E-02   T at   75  1
       a = -2.000      CL =  0.2301
      Cm = -0.1149     CD =  0.01436   =>   CDf =  0.00422    CDp =  0.01013

 Side 1  free  transition at x/c =  0.9408   75
 Side 2  free  transition at x/c =  0.6646   61

   6   rms: 0.4831E-05   max: 0.4604E-04   T at   61  2
       a = -2.000      CL =  0.2301
      Cm = -0.1149     CD =  0.01436   =>   CDf =  0.00422    CDp =  0.01013
 plradd ia,ip,cpol            5           0  3.21319401E-02

 Point added to stored polar  1
 Point written to save file  sc20714_Re400k.base.pol                         
 Dump file unspecified or not available
 Calculating wake trajectory ...
 Calculating source influence matrix ...

 Solving BL system ...

 Side 1  free  transition at x/c =  0.9408   75
 Side 2  free  transition at x/c =  0.6646   61

   1   rms: 0.1045E+00   max: -.4715E+00   T at   61  2
       a = -1.500      CL =  0.3118
      Cm = -0.1184     CD =  0.01438   =>   CDf =  0.00417    CDp =  0.01021

 Side 1  free  transition at x/c =  0.9257   75
 Side 2  free  transition at x/c =  0.6736   61

   2   rms: 0.5152E-01   max: -.3837E+00   D at   75  1
       a = -1.500      CL =  0.3200
      Cm = -0.1198     CD =  0.01380   =>   CDf =  0.00415    CDp =  0.00965

 Side 1  free  transition at x/c =  0.9341   75
 Side 2  free  transition at x/c =  0.6754   61

   3   rms: 0.2240E-01   max: 0.1446E+00   D at   79  1
       a = -1.500      CL =  0.3041
      Cm = -0.1165     CD =  0.01404   =>   CDf =  0.00416    CDp =  0.00988

 Side 1  free  transition at x/c =  0.9291   75
 Side 2  free  transition at x/c =  0.6743   61

   4   rms: 0.9362E-02   max: -.6053E-01   D at   77  1
       a = -1.500      CL =  0.3097
      Cm = -0.1176     CD =  0.01395   =>   CDf =  0.00416    CDp =  0.00979

 Side 1  free  transition at x/c =  0.9307   75
 Side 2  free  transition at x/c =  0.6745   61

   5   rms: 0.7910E-03   max: -.6731E-02   D at   78  1
       a = -1.500      CL =  0.3101
      Cm = -0.1177     CD =  0.01394   =>   CDf =  0.00417    CDp =  0.00978

 Side 1  free  transition at x/c =  0.9309   75
 Side 2  free  transition at x/c =  0.6745   61

   6   rms: 0.1117E-04   max: 0.8942E-04   T at   61  2
       a = -1.500      CL =  0.3101
      Cm = -0.1177     CD =  0.01394   =>   CDf =  0.00417    CDp =  0.00978
 plradd ia,ip,cpol            6           0  3.20988595E-02

 Point added to stored polar  1
 Point written to save file  sc20714_Re400k.base.pol                         
 Dump file unspecified or not available
 Calculating wake trajectory ...
 Calculating source influence matrix ...

 Solving BL system ...

 Side 1  free  transition at x/c =  0.9309   75
 Side 2  free  transition at x/c =  0.6745   61

   1   rms: 0.1013E+00   max: 0.2108E+00   D at   64  2
       a = -1.000      CL =  0.3800
      Cm = -0.1178     CD =  0.01341   =>   CDf =  0.00411    CDp =  0.00930

 Side 1  free  transition at x/c =  0.9202   75
 Side 2  free  transition at x/c =  0.6737   60

   2   rms: 0.5410E-01   max: -.2858E+00   D at   60  2
       a = -1.000      CL =  0.3998
      Cm = -0.1221     CD =  0.01317   =>   CDf =  0.00406    CDp =  0.00911

 Side 1  free  transition at x/c =  0.9280   76
 Side 2  free  transition at x/c =  0.6770   60

   3   rms: 0.3226E-01   max: 0.2984E+00   D at   77  1
       a = -1.000      CL =  0.3958
      Cm = -0.1217     CD =  0.01296   =>   CDf =  0.00411    CDp =  0.00884

 Side 1  free  transition at x/c =  0.9233   76
 Side 2  free  transition at x/c =  0.6779   60

   4   rms: 0.5988E-02   max: 0.4299E-01   T at   76  1
       a = -1.000      CL =  0.3921
      Cm = -0.1209     CD =  0.01309   =>   CDf =  0.00412    CDp =  0.00897

 Side 1  free  transition at x/c =  0.9222   76
 Side 2  free  transition at x/c =  0.6780   60

   5   rms: 0.3759E-03   max: -.3442E-02   D at   84  2
       a = -1.000      CL =  0.3919
      Cm = -0.1208     CD =  0.01309   =>   CDf =  0.00412    CDp =  0.00897

 Side 1  free  transition at x/c =  0.9222   76
 Side 2  free  transition at x/c =  0.6780   60

   6   rms: 0.3387E-05   max: 0.2106E-04   T at   60  2
       a = -1.000      CL =  0.3919
      Cm = -0.1208     CD =  0.01309   =>   CDf =  0.00412    CDp =  0.00897
 plradd ia,ip,cpol            7           0  3.20988595E-02

 Point added to stored polar  1
 Point written to save file  sc20714_Re400k.base.pol                         
 Dump file unspecified or not available
 Calculating wake trajectory ...
 Calculating source influence matrix ...

 Solving BL system ...

 Side 1  free  transition at x/c =  0.9222   76
 Side 2  free  transition at x/c =  0.6780   60

   1   rms: 0.1086E+00   max: -.4449E+00   D at   79  1
       a = -0.500      CL =  0.4742
      Cm = -0.1245     CD =  0.01222   =>   CDf =  0.00408    CDp =  0.00815

 MRCHDU: Convergence failed at  77  side 1    Res =  0.3961E+01
 MRCHDU: Convergence failed at  78  side 1    Res =  0.3051E+01
 MRCHDU: Convergence failed at  79  side 1    Res =  0.3726E+01
 MRCHDU: Convergence failed at  80  side 1    Res =  0.5025E+01
 MRCHDU: Convergence failed at  81  side 1    Res =  0.4955E+01
 MRCHDU: Convergence failed at  82  side 1    Res =  0.5556E+01
 Side 1  free  transition at x/c =  0.9233   77
 Side 2  free  transition at x/c =  0.6804   59

   2   rms: 0.1604E+00   max: 0.1310E+01   C at   77  1
       a = -0.500      CL =  0.4287
      Cm = -0.1159     CD =  0.01132   =>   CDf =  0.00402    CDp =  0.00730

 Side 1  free  transition at x/c =  0.9010   75
 Side 2  free  transition at x/c =  0.6828   59

   3   rms: 0.7176E+00   max: -.4204E+01   D at   80  1   RLX: 0.119
       a = -0.500      CL =  0.5029
      Cm = -0.1308     CD =  0.01318   =>   CDf =  0.00406    CDp =  0.00912

 MRCHDU: Convergence failed at  77  side 1    Res =  0.7035E+01
 MRCHDU: Convergence failed at  78  side 1    Res =  0.8444E+01
 MRCHDU: Convergence failed at  79  side 1    Res =  0.4271E+01
 MRCHDU: Convergence failed at  80  side 1    Res =  0.4802E+01
 MRCHDU: Convergence failed at  81  side 1    Res =  0.8882E+01
 MRCHDU: Convergence failed at  82  side 1    Res =  0.1688E+03
 Side 1  free  transition at x/c =  0.9296   77
 Side 2  free  transition at x/c =  0.6818   59

   4   rms: 0.1744E+00   max: 0.1250E+01   C at   77  1
       a = -0.500      CL =  0.4294
      Cm = -0.1164     CD =  0.01111   =>   CDf =  0.00403    CDp =  0.00708

 Side 1  free  transition at x/c =  0.9014   75
 Side 2  free  transition at x/c =  0.6829   59
 idif Ue xi dudx           1  0.25416544      4.92691994E-03   51.587086    
 Uenew xinew           2  0.12530547      2.42900848E-03

   5   rms: 0.1906E+02   max: 0.1054E+03   D at   80  1   RLX: 0.011
       a = -0.500      CL =  0.2380
      Cm = -0.0782     CD =  0.01700   =>   CDf =  0.00412    CDp =  0.01288

 MRCHDU: Convergence failed at  74  side 1    Res =  0.2348E+02
 Side 1  free  transition at x/c =  0.8729   73
 Side 2  free  transition at x/c =  0.6855   60

   6   rms: 0.2899E+00   max: -.1380E+01   D at    2  1   RLX: 0.362
       a = -0.500      CL =  0.3315
      Cm = -0.0983     CD =  0.01841   =>   CDf =  0.00410    CDp =  0.01431

 Side 1  free  transition at x/c =  0.8885   74
 Side 2  free  transition at x/c =  0.6855   60

   7   rms: 0.2033E+00   max: -.8284E+00   D at   91  2   RLX: 0.604
       a = -0.500      CL =  0.3928
      Cm = -0.1087     CD =  0.01467   =>   CDf =  0.00411    CDp =  0.01056

 Side 1  free  transition at x/c =  0.8974   74
 Side 2  free  transition at x/c =  0.6849   60

   8   rms: 0.6250E+00   max: -.4505E+01   T at   74  1   RLX: 0.111
       a = -0.500      CL =  0.4458
      Cm = -0.1187     CD =  0.01533   =>   CDf =  0.00403    CDp =  0.01131

 Side 1  free  transition at x/c =  0.9210   76
 Side 2  free  transition at x/c =  0.6842   59

   9   rms: 0.2074E+00   max: -.1342E+01   D at   81  1   RLX: 0.372
       a = -0.500      CL =  0.5124
      Cm = -0.1350     CD =  0.01213   =>   CDf =  0.00411    CDp =  0.00802

 MRCHDU: Convergence failed at  78  side 1    Res =  0.5151E+02
 MRCHDU: Convergence failed at  79  side 1    Res =  0.3428E+01
 MRCHDU: Convergence failed at  80  side 1    Res =  0.3030E+01
 MRCHDU: Convergence failed at  81  side 1    Res =  0.6335E+01
 MRCHDU: Convergence failed at  82  side 1    Res =  0.1372E+02
 Side 1  free  transition at x/c =  0.9355   77
 Side 2  free  transition at x/c =  0.6826   59

  10   rms: 0.1719E+00   max: 0.2123E+01   C at   77  1   RLX: 0.707
       a = -0.500      CL =  0.4922
      Cm = -0.1323     CD =  0.01026   =>   CDf =  0.00408    CDp =  0.00617

 Side 1  free  transition at x/c =  0.9224   77
 Side 2  free  transition at x/c =  0.6823   59

  11   rms: 0.4557E-01   max: 0.3146E+00   T at   77  1
       a = -0.500      CL =  0.4677
      Cm = -0.1238     CD =  0.01226   =>   CDf =  0.00411    CDp =  0.00815

 Side 1  free  transition at x/c =  0.9128   76
 Side 2  free  transition at x/c =  0.6823   59

  12   rms: 0.2316E-01   max: 0.1854E+00   D at   77  1
       a = -0.500      CL =  0.4484
      Cm = -0.1200     CD =  0.01273   =>   CDf =  0.00408    CDp =  0.00865

 Side 1  free  transition at x/c =  0.9041   75
 Side 2  free  transition at x/c =  0.6825   59

  13   rms: 0.2189E-01   max: -.2062E+00   D at   77  1
       a = -0.500      CL =  0.4628
      Cm = -0.1227     CD =  0.01242   =>   CDf =  0.00410    CDp =  0.00832

 Side 1  free  transition at x/c =  0.9136   76
 Side 2  free  transition at x/c =  0.6823   59

  14   rms: 0.3125E-01   max: 0.2886E+00   C at   76  1
       a = -0.500      CL =  0.4622
      Cm = -0.1228     CD =  0.01240   =>   CDf =  0.00408    CDp =  0.00832

 Side 1  free  transition at x/c =  0.9091   76
 Side 2  free  transition at x/c =  0.6823   59

  15   rms: 0.1114E-01   max: -.8926E-01   D at   83  2
       a = -0.500      CL =  0.4549
      Cm = -0.1213     CD =  0.01259   =>   CDf =  0.00408    CDp =  0.00851

 Side 1  free  transition at x/c =  0.9068   76
 Side 2  free  transition at x/c =  0.6824   59

  16   rms: 0.1286E-02   max: -.1508E-01   D at   83  2
       a = -0.500      CL =  0.4538
      Cm = -0.1210     CD =  0.01260   =>   CDf =  0.00409    CDp =  0.00851

 Side 1  free  transition at x/c =  0.9067   76
 Side 2  free  transition at x/c =  0.6824   59

  17   rms: 0.1470E-04   max: -.2333E-03   D at   83  2
       a = -0.500      CL =  0.4538
      Cm = -0.1210     CD =  0.01260   =>   CDf =  0.00409    CDp =  0.00851
 plradd ia,ip,cpol            8           0  2.78145634E-02

 Point added to stored polar  1
 Point written to save file  sc20714_Re400k.base.pol                         
 Dump file unspecified or not available
 Calculating wake trajectory ...
 Calculating source influence matrix ...

 Solving BL system ...

 Side 1  free  transition at x/c =  0.9067   76
 Side 2  free  transition at x/c =  0.6824   59

   1   rms: 0.1054E+00   max: -.2077E+00   T at   59  2
       a =  0.000      CL =  0.5340
      Cm = -0.1252     CD =  0.01172   =>   CDf =  0.00404    CDp =  0.00768

 Side 1  free  transition at x/c =  0.8893   76
 Side 2  free  transition at x/c =  0.6872   58

   2   rms: 0.3845E-01   max: -.1822E+00   D at   82  2
       a =  0.000      CL =  0.5331
      Cm = -0.1260     CD =  0.01176   =>   CDf =  0.00406    CDp =  0.00770

 Side 1  free  transition at x/c =  0.8830   75
 Side 2  free  transition at x/c =  0.6901   59

   3   rms: 0.8920E-02   max: 0.4467E-01   D at   58  2
       a =  0.000      CL =  0.5268
      Cm = -0.1247     CD =  0.01180   =>   CDf =  0.00417    CDp =  0.00763

 Side 1  free  transition at x/c =  0.8819   75
 Side 2  free  transition at x/c =  0.6900   59

   4   rms: 0.4447E-03   max: 0.2929E-02   T at   59  2
       a =  0.000      CL =  0.5268
      Cm = -0.1247     CD =  0.01181   =>   CDf =  0.00416    CDp =  0.00766

 Side 1  free  transition at x/c =  0.8819   75
 Side 2  free  transition at x/c =  0.6900   59

   5   rms: 0.3717E-05   max: -.2093E-04   D at   69  2
       a =  0.000      CL =  0.5268
      Cm = -0.1247     CD =  0.01181   =>   CDf =  0.00416    CDp =  0.00766
 plradd ia,ip,cpol            9           0  2.78145634E-02

 Point added to stored polar  1
 Point written to save file  sc20714_Re400k.base.pol                         
 Dump file unspecified or not available
 Calculating wake trajectory ...
 Calculating source influence matrix ...

 Solving BL system ...

 Side 1  free  transition at x/c =  0.8819   75
 Side 2  free  transition at x/c =  0.6900   59

   1   rms: 0.8114E-01   max: -.2207E+00   T at   59  2
       a =  0.500      CL =  0.5780
      Cm = -0.1228     CD =  0.01130   =>   CDf =  0.00416    CDp =  0.00714

 Side 1  free  transition at x/c =  0.8384   73
 Side 2  free  transition at x/c =  0.6933   59

   2   rms: 0.2776E-01   max: -.4149E+00   D at   74  1
       a =  0.500      CL =  0.5860
      Cm = -0.1242     CD =  0.01140   =>   CDf =  0.00418    CDp =  0.00722

 Side 1  free  transition at x/c =  0.8495   73
 Side 2  free  transition at x/c =  0.6924   59

   3   rms: 0.1113E-01   max: 0.1220E+00   C at   73  1
       a =  0.500      CL =  0.5840
      Cm = -0.1238     CD =  0.01146   =>   CDf =  0.00412    CDp =  0.00734

 Side 1  free  transition at x/c =  0.8454   73
 Side 2  free  transition at x/c =  0.6924   59

   4   rms: 0.8620E-03   max: -.1034E-01   D at   82  2
       a =  0.500      CL =  0.5831
      Cm = -0.1236     CD =  0.01147   =>   CDf =  0.00415    CDp =  0.00732

 Side 1  free  transition at x/c =  0.8453   73
 Side 2  free  transition at x/c =  0.6924   59

   5   rms: 0.4901E-05   max: -.8491E-04   D at   82  2
       a =  0.500      CL =  0.5831
      Cm = -0.1236     CD =  0.01147   =>   CDf =  0.00415    CDp =  0.00732
 plradd ia,ip,cpol           10           0  2.78145634E-02

 Point added to stored polar  1
 Point written to save file  sc20714_Re400k.base.pol                         
 Dump file unspecified or not available
 Calculating wake trajectory ...
 Calculating source influence matrix ...

 Solving BL system ...

 Side 1  free  transition at x/c =  0.8453   73
 Side 2  free  transition at x/c =  0.6924   59

   1   rms: 0.8704E-01   max: -.3760E+00   D at   74  1
       a =  1.000      CL =  0.6378
      Cm = -0.1221     CD =  0.01131   =>   CDf =  0.00410    CDp =  0.00721

 Side 1  free  transition at x/c =  0.7444   68
 Side 2  free  transition at x/c =  0.6951   58

   2   rms: 0.2467E-01   max: -.3168E+00   C at   68  1
       a =  1.000      CL =  0.6370
      Cm = -0.1218     CD =  0.01152   =>   CDf =  0.00450    CDp =  0.00702

 Side 1  free  transition at x/c =  0.7616   69
 Side 2  free  transition at x/c =  0.6951   58

   3   rms: 0.4834E-02   max: 0.7780E-01   C at   69  1
       a =  1.000      CL =  0.6370
      Cm = -0.1218     CD =  0.01154   =>   CDf =  0.00438    CDp =  0.00716

 Side 1  free  transition at x/c =  0.7582   69
 Side 2  free  transition at x/c =  0.6951   58

   4   rms: 0.1208E-03   max: -.2055E-02   C at   69  1
       a =  1.000      CL =  0.6370
      Cm = -0.1218     CD =  0.01154   =>   CDf =  0.00440    CDp =  0.00714

 Side 1  free  transition at x/c =  0.7582   69
 Side 2  free  transition at x/c =  0.6951   58

   5   rms: 0.7254E-06   max: 0.4105E-05   C at   69  1
       a =  1.000      CL =  0.6370
      Cm = -0.1218     CD =  0.01154   =>   CDf =  0.00440    CDp =  0.00714
 plradd ia,ip,cpol           11           0  1.71263516E-02

 Point added to stored polar  1
 Point written to save file  sc20714_Re400k.base.pol                         
 Dump file unspecified or not available
 Calculating wake trajectory ...
 Calculating source influence matrix ...

 Solving BL system ...

 Side 1  free  transition at x/c =  0.7582   69
 Side 2  free  transition at x/c =  0.6951   58

   1   rms: 0.1611E+00   max: 0.2698E+01   C at   69  1   RLX: 0.556
       a =  1.500      CL =  0.6631
      Cm = -0.1200     CD =  0.01183   =>   CDf =  0.00441    CDp =  0.00743

 Side 1  free  transition at x/c =  0.5853   59
 Side 2  free  transition at x/c =  0.6967   58

   2   rms: 0.9443E-01   max: 0.1812E+01   C at   59  1   RLX: 0.828
       a =  1.500      CL =  0.6665
      Cm = -0.1165     CD =  0.01313   =>   CDf =  0.00529    CDp =  0.00784

 Side 1  free  transition at x/c =  0.4966   54
 Side 2  free  transition at x/c =  0.6978   58

   3   rms: 0.1020E-01   max: 0.8709E-01   D at   58  1
       a =  1.500      CL =  0.6667
      Cm = -0.1158     CD =  0.01331   =>   CDf =  0.00572    CDp =  0.00758

 Side 1  free  transition at x/c =  0.4889   54
 Side 2  free  transition at x/c =  0.6982   58

   4   rms: 0.1670E-02   max: -.3303E-01   C at   54  1
       a =  1.500      CL =  0.6666
      Cm = -0.1158     CD =  0.01333   =>   CDf =  0.00576    CDp =  0.00757

 Side 1  free  transition at x/c =  0.4899   54
 Side 2  free  transition at x/c =  0.6982   58

   5   rms: 0.5401E-05   max: -.6648E-04   D at   56  1
       a =  1.500      CL =  0.6666
      Cm = -0.1158     CD =  0.01333   =>   CDf =  0.00575    CDp =  0.00758
 plradd ia,ip,cpol           12           0  1.41833117E-02

 Point added to stored polar  1
 Point written to save file  sc20714_Re400k.base.pol                         
 Dump file unspecified or not available
 Calculating wake trajectory ...
 Calculating source influence matrix ...

 Solving BL system ...

 Side 1  free  transition at x/c =  0.4899   54
 Side 2  free  transition at x/c =  0.6982   58

   1   rms: 0.3627E+00   max: 0.7349E+01   C at   54  1   RLX: 0.204
       a =  2.000      CL =  0.6723
      Cm = -0.1147     CD =  0.01379   =>   CDf =  0.00570    CDp =  0.00808

 Side 1  free  transition at x/c =  0.4354   52
 Side 2  free  transition at x/c =  0.6988   57

   2   rms: 0.2251E+00   max: 0.4555E+01   C at   52  1   RLX: 0.329
       a =  2.000      CL =  0.6820
      Cm = -0.1139     CD =  0.01421   =>   CDf =  0.00602    CDp =  0.00819

 Side 1  free  transition at x/c =  0.3748   49
 Side 2  free  transition at x/c =  0.6996   57

   3   rms: 0.1356E+00   max: 0.2699E+01   C at   49  1   RLX: 0.556
       a =  2.000      CL =  0.6942
      Cm = -0.1133     CD =  0.01472   =>   CDf =  0.00632    CDp =  0.00840

 Side 1  free  transition at x/c =  0.3081   45
 Side 2  free  transition at x/c =  0.7006   57

   4   rms: 0.5502E-01   max: 0.1097E+01   C at   45  1
       a =  2.000      CL =  0.7059
      Cm = -0.1132     CD =  0.01504   =>   CDf =  0.00665    CDp =  0.00839

 Side 1  free  transition at x/c =  0.2623   42
 Side 2  free  transition at x/c =  0.7016   57

   5   rms: 0.8957E-02   max: -.1644E+00   C at   42  1
       a =  2.000      CL =  0.7053
      Cm = -0.1131     CD =  0.01511   =>   CDf =  0.00691    CDp =  0.00820

 Side 1  free  transition at x/c =  0.2656   43
 Side 2  free  transition at x/c =  0.7016   57

   6   rms: 0.9512E-03   max: -.1498E-01   C at   43  1
       a =  2.000      CL =  0.7055
      Cm = -0.1131     CD =  0.01509   =>   CDf =  0.00688    CDp =  0.00821

 Side 1  free  transition at x/c =  0.2656   43
 Side 2  free  transition at x/c =  0.7016   57

   7   rms: 0.1857E-04   max: -.3667E-03   C at   43  1
       a =  2.000      CL =  0.7055
      Cm = -0.1131     CD =  0.01509   =>   CDf =  0.00688    CDp =  0.00821
 plradd ia,ip,cpol           13           0  1.41833117E-02

 Point added to stored polar  1
 Point written to save file  sc20714_Re400k.base.pol                         
 Dump file unspecified or not available
 Calculating wake trajectory ...
 Calculating source influence matrix ...

 Solving BL system ...

 Side 1  free  transition at x/c =  0.2656   43
 Side 2  free  transition at x/c =  0.7016   57

   1   rms: 0.2707E+00   max: 0.5414E+01   C at   43  1   RLX: 0.277
       a =  2.500      CL =  0.7171
      Cm = -0.1127     CD =  0.01559   =>   CDf =  0.00688    CDp =  0.00871

 Side 1  free  transition at x/c =  0.2215   40
 Side 2  free  transition at x/c =  0.7028   57

   2   rms: 0.1453E+00   max: 0.2943E+01   C at   40  1   RLX: 0.510
       a =  2.500      CL =  0.7368
      Cm = -0.1127     CD =  0.01586   =>   CDf =  0.00711    CDp =  0.00875

 Side 1  free  transition at x/c =  0.1752   37
 Side 2  free  transition at x/c =  0.7044   57

   3   rms: 0.3562E-01   max: -.2461E+00   D at   37  1
       a =  2.500      CL =  0.7584
      Cm = -0.1133     CD =  0.01609   =>   CDf =  0.00733    CDp =  0.00876

 Side 1  free  transition at x/c =  0.1463   37
 Side 2  free  transition at x/c =  0.7060   56

   4   rms: 0.4844E-02   max: -.4829E-01   D at   36  1
       a =  2.500      CL =  0.7571
      Cm = -0.1132     CD =  0.01626   =>   CDf =  0.00758    CDp =  0.00868

 Side 1  free  transition at x/c =  0.1470   37
 Side 2  free  transition at x/c =  0.7061   56

   5   rms: 0.5620E-03   max: 0.8333E-02   C at   37  1
       a =  2.500      CL =  0.7571
      Cm = -0.1132     CD =  0.01627   =>   CDf =  0.00757    CDp =  0.00870

 Side 1  free  transition at x/c =  0.1468   37
 Side 2  free  transition at x/c =  0.7061   56

   6   rms: 0.5323E-05   max: 0.5147E-04   C at   37  1
       a =  2.500      CL =  0.7571
      Cm = -0.1132     CD =  0.01627   =>   CDf =  0.00757    CDp =  0.00870
 plradd ia,ip,cpol           14           0  1.41833117E-02

 Point added to stored polar  1
 Point written to save file  sc20714_Re400k.base.pol                         
 Dump file unspecified or not available
 Calculating wake trajectory ...
 Calculating source influence matrix ...

 Solving BL system ...

 Side 1  free  transition at x/c =  0.1468   37
 Side 2  free  transition at x/c =  0.7061   56

   1   rms: 0.1431E+00   max: 0.1677E+01   C at   37  1   RLX: 0.417
       a =  3.000      CL =  0.7801
      Cm = -0.1135     CD =  0.01674   =>   CDf =  0.00757    CDp =  0.00917

 Side 1  free  transition at x/c =  0.1282   35
 Side 2  free  transition at x/c =  0.7078   56

   2   rms: 0.6190E-01   max: -.3727E+00   C at   35  1
       a =  3.000      CL =  0.8194
      Cm = -0.1151     CD =  0.01679   =>   CDf =  0.00773    CDp =  0.00906

 Side 1  free  transition at x/c =  0.1085   34
 Side 2  free  transition at x/c =  0.7105   57

   3   rms: 0.2774E-01   max: -.2981E+00   D at   34  1
       a =  3.000      CL =  0.8164
      Cm = -0.1145     CD =  0.01688   =>   CDf =  0.00787    CDp =  0.00901

 Side 1  free  transition at x/c =  0.1097   34
 Side 2  free  transition at x/c =  0.7098   57

   4   rms: 0.3458E-02   max: 0.5523E-01   C at   34  1
       a =  3.000      CL =  0.8159
      Cm = -0.1144     CD =  0.01696   =>   CDf =  0.00784    CDp =  0.00911

 Side 1  free  transition at x/c =  0.1089   34
 Side 2  free  transition at x/c =  0.7098   57

   5   rms: 0.7614E-04   max: -.1052E-02   D at   35  1
       a =  3.000      CL =  0.8159
      Cm = -0.1144     CD =  0.01695   =>   CDf =  0.00785    CDp =  0.00910
 plradd ia,ip,cpol           15           0  1.15409568E-02

 Point added to stored polar  1
 Point written to save file  sc20714_Re400k.base.pol                         
 Dump file unspecified or not available
 Calculating wake trajectory ...
 Calculating source influence matrix ...

 Solving BL system ...

 Side 1  free  transition at x/c =  0.1089   34
 Side 2  free  transition at x/c =  0.7098   57

   1   rms: 0.8933E-01   max: 0.4894E+00   T at   34  1
       a =  3.500      CL =  0.8677
      Cm = -0.1136     CD =  0.01751   =>   CDf =  0.00775    CDp =  0.00975

 Side 1  free  transition at x/c =  0.0926   34
 Side 2  free  transition at x/c =  0.7122   56

   2   rms: 0.5364E-01   max: -.5405E+00   D at   34  1   RLX: 0.925
       a =  3.500      CL =  0.8672
      Cm = -0.1135     CD =  0.01745   =>   CDf =  0.00789    CDp =  0.00957

 Side 1  free  transition at x/c =  0.0937   34
 Side 2  free  transition at x/c =  0.7119   56

   3   rms: 0.6527E-02   max: -.9346E-01   D at   35  1
       a =  3.500      CL =  0.8662
      Cm = -0.1133     CD =  0.01761   =>   CDf =  0.00792    CDp =  0.00969

 Side 1  free  transition at x/c =  0.0924   34
 Side 2  free  transition at x/c =  0.7118   56

   4   rms: 0.3626E-03   max: -.6120E-02   D at   35  1
       a =  3.500      CL =  0.8660
      Cm = -0.1133     CD =  0.01762   =>   CDf =  0.00795    CDp =  0.00967

 Side 1  free  transition at x/c =  0.0923   34
 Side 2  free  transition at x/c =  0.7118   56

   5   rms: 0.2003E-05   max: -.1801E-04   D at   35  1
       a =  3.500      CL =  0.8660
      Cm = -0.1133     CD =  0.01762   =>   CDf =  0.00795    CDp =  0.00967
 plradd ia,ip,cpol           16           0  1.15409568E-02

 Point added to stored polar  1
 Point written to save file  sc20714_Re400k.base.pol                         
 Dump file unspecified or not available
 Calculating wake trajectory ...
 Calculating source influence matrix ...

 Solving BL system ...

 Side 1  free  transition at x/c =  0.0923   34
 Side 2  free  transition at x/c =  0.7118   56

   1   rms: 0.8855E-01   max: -.4960E+00   D at   34  1
       a =  4.000      CL =  0.9138
      Cm = -0.1117     CD =  0.01860   =>   CDf =  0.00795    CDp =  0.01066

 MRCHDU: Convergence failed at  34  side 1    Res =  0.2405E+01
 Side 1  free  transition at x/c =  0.0830   33
 Side 2  free  transition at x/c =  0.7144   56

   2   rms: 0.4810E-01   max: -.5897E+00   D at   34  1   RLX: 0.848
       a =  4.000      CL =  0.9155
      Cm = -0.1117     CD =  0.01833   =>   CDf =  0.00781    CDp =  0.01052

 Side 1  free  transition at x/c =  0.0831   33
 Side 2  free  transition at x/c =  0.7141   56

   3   rms: 0.4539E-02   max: -.7504E-01   D at   33  1
       a =  4.000      CL =  0.9156
      Cm = -0.1119     CD =  0.01830   =>   CDf =  0.00794    CDp =  0.01036

 Side 1  free  transition at x/c =  0.0824   33
 Side 2  free  transition at x/c =  0.7141   56

   4   rms: 0.2584E-03   max: 0.2996E-02   D at   34  1
       a =  4.000      CL =  0.9156
      Cm = -0.1119     CD =  0.01831   =>   CDf =  0.00795    CDp =  0.01035

 Side 1  free  transition at x/c =  0.0824   33
 Side 2  free  transition at x/c =  0.7141   56

   5   rms: 0.3409E-05   max: 0.2975E-04   D at    4  2
       a =  4.000      CL =  0.9156
      Cm = -0.1119     CD =  0.01831   =>   CDf =  0.00795    CDp =  0.01035
 plradd ia,ip,cpol           17           0  1.15409568E-02

 Point added to stored polar  1
 Point written to save file  sc20714_Re400k.base.pol                         
 Dump file unspecified or not available
 Calculating wake trajectory ...
 Calculating source influence matrix ...

 Solving BL system ...

 Side 1  free  transition at x/c =  0.0824   33
 Side 2  free  transition at x/c =  0.7141   56

   1   rms: 0.1036E+00   max: -.1282E+01   T at    2  2   RLX: 0.390
       a =  4.500      CL =  0.9345
      Cm = -0.1113     CD =  0.01862   =>   CDf =  0.00782    CDp =  0.01081

 Side 1  free  transition at x/c =  0.0794   34
 Side 2  free  transition at x/c =  0.7150   55

   2   rms: 0.5673E-01   max: 0.2675E+00   T at   34  1
       a =  4.500      CL =  0.9590
      Cm = -0.1095     CD =  0.01973   =>   CDf =  0.00799    CDp =  0.01174

 Side 1  free  transition at x/c =  0.0750   33
 Side 2  free  transition at x/c =  0.7165   55

   3   rms: 0.3673E-01   max: -.3598E+00   D at   33  1
       a =  4.500      CL =  0.9636
      Cm = -0.1103     CD =  0.01908   =>   CDf =  0.00795    CDp =  0.01113

 Side 1  free  transition at x/c =  0.0757   33
 Side 2  free  transition at x/c =  0.7168   55

   4   rms: 0.2623E-02   max: 0.2921E-01   D at   33  1
       a =  4.500      CL =  0.9646
      Cm = -0.1105     CD =  0.01912   =>   CDf =  0.00795    CDp =  0.01116

 Side 1  free  transition at x/c =  0.0754   33
 Side 2  free  transition at x/c =  0.7167   55

   5   rms: 0.2154E-04   max: -.1736E-03   D at   34  1
       a =  4.500      CL =  0.9646
      Cm = -0.1105     CD =  0.01912   =>   CDf =  0.00796    CDp =  0.01116
 plradd ia,ip,cpol           18           0  1.15409568E-02

 Point added to stored polar  1
 Point written to save file  sc20714_Re400k.base.pol                         
 Dump file unspecified or not available
 Calculating wake trajectory ...
 Calculating source influence matrix ...

 Solving BL system ...

 Side 1  free  transition at x/c =  0.0754   33
 Side 2  free  transition at x/c =  0.7167   55

   1   rms: 0.7547E-01   max: 0.3778E+00   T at   33  1
       a =  5.000      CL =  1.0163
      Cm = -0.1097     CD =  0.01976   =>   CDf =  0.00780    CDp =  0.01196

 Side 1  free  transition at x/c =  0.0695   33
 Side 2  free  transition at x/c =  0.7195   54

   2   rms: 0.7692E-02   max: -.4661E-01   D at   34  1
       a =  5.000      CL =  1.0129
      Cm = -0.1092     CD =  0.02010   =>   CDf =  0.00802    CDp =  0.01208

 Side 1  free  transition at x/c =  0.0693   33
 Side 2  free  transition at x/c =  0.7195   54

   3   rms: 0.4379E-03   max: -.4791E-02   D at    4  1
       a =  5.000      CL =  1.0129
      Cm = -0.1092     CD =  0.02010   =>   CDf =  0.00802    CDp =  0.01209

 Side 1  free  transition at x/c =  0.0693   33
 Side 2  free  transition at x/c =  0.7194   54

   4   rms: 0.8412E-06   max: 0.5684E-05   T at   54  2
       a =  5.000      CL =  1.0129
      Cm = -0.1092     CD =  0.02011   =>   CDf =  0.00802    CDp =  0.01209
 plradd ia,ip,cpol           19           0  9.18894261E-03

 Point added to stored polar  1
 Point written to save file  sc20714_Re400k.base.pol                         
 Dump file unspecified or not available
 Calculating wake trajectory ...
 Calculating source influence matrix ...

 Solving BL system ...

 Side 1  free  transition at x/c =  0.0693   33
 Side 2  free  transition at x/c =  0.7194   54

   1   rms: 0.7566E-01   max: 0.4081E+00   T at   33  1
       a =  5.500      CL =  1.0665
      Cm = -0.1087     CD =  0.02058   =>   CDf =  0.00802    CDp =  0.01256

 Side 1  free  transition at x/c =  0.0650   33
 Side 2  free  transition at x/c =  0.7225   54

   2   rms: 0.5931E-02   max: -.4632E-01   D at   33  1
       a =  5.500      CL =  1.0649
      Cm = -0.1085     CD =  0.02078   =>   CDf =  0.00795    CDp =  0.01283

 Side 1  free  transition at x/c =  0.0648   33
 Side 2  free  transition at x/c =  0.7226   54

   3   rms: 0.9376E-04   max: 0.7928E-03   D at   57  2
       a =  5.500      CL =  1.0649
      Cm = -0.1085     CD =  0.02079   =>   CDf =  0.00796    CDp =  0.01283
 plradd ia,ip,cpol           20           0  9.18894261E-03

 Point added to stored polar  1
 Point written to save file  sc20714_Re400k.base.pol                         
 Dump file unspecified or not available
 Calculating wake trajectory ...
 Calculating source influence matrix ...

 Solving BL system ...

 Side 1  free  transition at x/c =  0.0648   33
 Side 2  free  transition at x/c =  0.7226   54

   1   rms: 0.7683E-01   max: 0.3965E+00   T at   33  1
       a =  6.000      CL =  1.1163
      Cm = -0.1079     CD =  0.02160   =>   CDf =  0.00776    CDp =  0.01384

 Side 1  free  transition at x/c =  0.0606   33
 Side 2  free  transition at x/c =  0.7260   53

   2   rms: 0.1842E-01   max: -.1172E+00   D at   35  1
       a =  6.000      CL =  1.1141
      Cm = -0.1076     CD =  0.02188   =>   CDf =  0.00800    CDp =  0.01388

 Side 1  free  transition at x/c =  0.0602   33
 Side 2  free  transition at x/c =  0.7262   53

   3   rms: 0.9648E-03   max: 0.7716E-02   T at   33  1
       a =  6.000      CL =  1.1146
      Cm = -0.1077     CD =  0.02191   =>   CDf =  0.00799    CDp =  0.01392

 Side 1  free  transition at x/c =  0.0602   33
 Side 2  free  transition at x/c =  0.7262   53

   4   rms: 0.8504E-05   max: 0.4013E-04   D at   75  2
       a =  6.000      CL =  1.1146
      Cm = -0.1077     CD =  0.02191   =>   CDf =  0.00799    CDp =  0.01392
 plradd ia,ip,cpol           21           0  9.18894261E-03

 Point added to stored polar  1
 Point written to save file  sc20714_Re400k.base.pol                         
 Dump file unspecified or not available
 Calculating wake trajectory ...
 Calculating source influence matrix ...

 Solving BL system ...

 Side 1  free  transition at x/c =  0.0602   33
 Side 2  free  transition at x/c =  0.7262   53

   1   rms: 0.7749E-01   max: 0.4311E+00   T at   33  1
       a =  6.500      CL =  1.1690
      Cm = -0.1076     CD =  0.02252   =>   CDf =  0.00777    CDp =  0.01475

 Side 1  free  transition at x/c =  0.0558   34
 Side 2  free  transition at x/c =  0.7302   53

   2   rms: 0.1884E-01   max: -.1210E+00   D at   34  1
       a =  6.500      CL =  1.1652
      Cm = -0.1070     CD =  0.02270   =>   CDf =  0.00798    CDp =  0.01471

 Side 1  free  transition at x/c =  0.0560   34
 Side 2  free  transition at x/c =  0.7295   53

   3   rms: 0.9371E-03   max: -.6196E-02   D at    4  1
       a =  6.500      CL =  1.1657
      Cm = -0.1071     CD =  0.02271   =>   CDf =  0.00796    CDp =  0.01475

 Side 1  free  transition at x/c =  0.0560   34
 Side 2  free  transition at x/c =  0.7295   53

   4   rms: 0.5080E-05   max: 0.1659E-04   D at   90  1
       a =  6.500      CL =  1.1657
      Cm = -0.1071     CD =  0.02271   =>   CDf =  0.00797    CDp =  0.01474
 plradd ia,ip,cpol           22           0  9.18894261E-03

 Point added to stored polar  1
 Point written to save file  sc20714_Re400k.base.pol                         
 Dump file unspecified or not available
 Calculating wake trajectory ...
 Calculating source influence matrix ...

 Solving BL system ...

 Side 1  free  transition at x/c =  0.0560   34
 Side 2  free  transition at x/c =  0.7295   53

   1   rms: 0.7424E-01   max: 0.4062E+00   T at   34  1
       a =  7.000      CL =  1.2106
      Cm = -0.1051     CD =  0.02367   =>   CDf =  0.00797    CDp =  0.01570

 Side 1  free  transition at x/c =  0.0532   33
 Side 2  free  transition at x/c =  0.7322   53

   2   rms: 0.1595E-01   max: -.1185E+00   D at   35  1
       a =  7.000      CL =  1.2082
      Cm = -0.1046     CD =  0.02398   =>   CDf =  0.00792    CDp =  0.01606

 Side 1  free  transition at x/c =  0.0526   33
 Side 2  free  transition at x/c =  0.7319   53

   3   rms: 0.1001E-02   max: 0.9275E-02   D at   33  1
       a =  7.000      CL =  1.2086
      Cm = -0.1047     CD =  0.02402   =>   CDf =  0.00790    CDp =  0.01612

 Side 1  free  transition at x/c =  0.0526   33
 Side 2  free  transition at x/c =  0.7319   53

   4   rms: 0.1637E-04   max: 0.7401E-04   D at   74  2
       a =  7.000      CL =  1.2086
      Cm = -0.1047     CD =  0.02402   =>   CDf =  0.00790    CDp =  0.01612
 plradd ia,ip,cpol           23           0  7.12130126E-03

 Point added to stored polar  1
 Point written to save file  sc20714_Re400k.base.pol                         
 Dump file unspecified or not available
 Calculating wake trajectory ...
 Calculating source influence matrix ...

 Solving BL system ...

 Side 1  free  transition at x/c =  0.0526   33
 Side 2  free  transition at x/c =  0.7319   53

   1   rms: 0.7076E-01   max: 0.3566E+00   T at   33  1
       a =  7.500      CL =  1.2539
      Cm = -0.1026     CD =  0.02499   =>   CDf =  0.00765    CDp =  0.01734

 Side 1  free  transition at x/c =  0.0492   34
 Side 2  free  transition at x/c =  0.7341   52

   2   rms: 0.1846E-01   max: -.1322E+00   D at   34  1
       a =  7.500      CL =  1.2516
      Cm = -0.1023     CD =  0.02503   =>   CDf =  0.00781    CDp =  0.01722

 Side 1  free  transition at x/c =  0.0495   34
 Side 2  free  transition at x/c =  0.7344   52

   3   rms: 0.1219E-02   max: -.6296E-02   D at    4  1
       a =  7.500      CL =  1.2526
      Cm = -0.1025     CD =  0.02504   =>   CDf =  0.00781    CDp =  0.01724

 Side 1  free  transition at x/c =  0.0495   34
 Side 2  free  transition at x/c =  0.7344   52

   4   rms: 0.6759E-05   max: 0.3653E-04   D at   73  2
       a =  7.500      CL =  1.2526
      Cm = -0.1025     CD =  0.02504   =>   CDf =  0.00781    CDp =  0.01724
 plradd ia,ip,cpol           24           0  7.12130126E-03

 Point added to stored polar  1
 Point written to save file  sc20714_Re400k.base.pol                         
 Dump file unspecified or not available
 Calculating wake trajectory ...
 Calculating source influence matrix ...

 Solving BL system ...

 Side 1  free  transition at x/c =  0.0495   34
 Side 2  free  transition at x/c =  0.7344   52

   1   rms: 0.7099E-01   max: 0.3574E+00   T at   34  1
       a =  8.000      CL =  1.2959
      Cm = -0.1003     CD =  0.02614   =>   CDf =  0.00781    CDp =  0.01833

 Side 1  free  transition at x/c =  0.0471   33
 Side 2  free  transition at x/c =  0.7371   52

   2   rms: 0.1346E-01   max: -.9784E-01   D at   35  1
       a =  8.000      CL =  1.2942
      Cm = -0.1002     CD =  0.02660   =>   CDf =  0.00779    CDp =  0.01881

 Side 1  free  transition at x/c =  0.0468   33
 Side 2  free  transition at x/c =  0.7372   52

   3   rms: 0.8169E-03   max: 0.5838E-02   T at   33  1
       a =  8.000      CL =  1.2948
      Cm = -0.1003     CD =  0.02663   =>   CDf =  0.00778    CDp =  0.01885

 Side 1  free  transition at x/c =  0.0468   33
 Side 2  free  transition at x/c =  0.7372   52

   4   rms: 0.2502E-04   max: 0.1458E-03   D at   73  2
       a =  8.000      CL =  1.2948
      Cm = -0.1003     CD =  0.02663   =>   CDf =  0.00778    CDp =  0.01885
 plradd ia,ip,cpol           25           0  7.12130126E-03

 Point added to stored polar  1
 Point written to save file  sc20714_Re400k.base.pol                         
 Dump file unspecified or not available
 Calculating wake trajectory ...
 Calculating source influence matrix ...

 Solving BL system ...

 Side 1  free  transition at x/c =  0.0468   33
 Side 2  free  transition at x/c =  0.7372   52

   1   rms: 0.6926E-01   max: 0.3660E+00   T at   33  1
       a =  8.500      CL =  1.3384
      Cm = -0.0981     CD =  0.02767   =>   CDf =  0.00750    CDp =  0.02018

 Side 1  free  transition at x/c =  0.0443   34
 Side 2  free  transition at x/c =  0.7404   51

   2   rms: 0.7962E-02   max: -.7663E-01   D at   35  1
       a =  8.500      CL =  1.3365
      Cm = -0.0979     CD =  0.02786   =>   CDf =  0.00761    CDp =  0.02025

 Side 1  free  transition at x/c =  0.0444   34
 Side 2  free  transition at x/c =  0.7405   51

   3   rms: 0.6056E-03   max: -.4527E-02   D at    4  1
       a =  8.500      CL =  1.3368
      Cm = -0.0979     CD =  0.02787   =>   CDf =  0.00762    CDp =  0.02025

 Side 1  free  transition at x/c =  0.0444   34
 Side 2  free  transition at x/c =  0.7405   51

   4   rms: 0.1093E-04   max: -.3985E-04   T at   72  2
       a =  8.500      CL =  1.3368
      Cm = -0.0979     CD =  0.02787   =>   CDf =  0.00762    CDp =  0.02025
 plradd ia,ip,cpol           26           0  7.12130126E-03

 Point added to stored polar  1
 Point written to save file  sc20714_Re400k.base.pol                         
 Dump file unspecified or not available
 Calculating wake trajectory ...
 Calculating source influence matrix ...

 Solving BL system ...

 Side 1  free  transition at x/c =  0.0444   34
 Side 2  free  transition at x/c =  0.7405   51

   1   rms: 0.6869E-01   max: 0.2730E+00   T at   34  1
       a =  9.000      CL =  1.3784
      Cm = -0.0957     CD =  0.02921   =>   CDf =  0.00762    CDp =  0.02159

 Side 1  free  transition at x/c =  0.0424   34
 Side 2  free  transition at x/c =  0.7440   51

   2   rms: 0.1779E-01   max: -.1200E+00   D at   34  1
       a =  9.000      CL =  1.3756
      Cm = -0.0953     CD =  0.02930   =>   CDf =  0.00760    CDp =  0.02170

 Side 1  free  transition at x/c =  0.0425   34
 Side 2  free  transition at x/c =  0.7442   51

   3   rms: 0.1676E-02   max: -.7096E-02   D at   93  1
       a =  9.000      CL =  1.3772
      Cm = -0.0956     CD =  0.02934   =>   CDf =  0.00760    CDp =  0.02173

 Side 1  free  transition at x/c =  0.0425   34
 Side 2  free  transition at x/c =  0.7442   51

   4   rms: 0.3180E-04   max: 0.2620E-03   D at   71  2
       a =  9.000      CL =  1.3772
      Cm = -0.0956     CD =  0.02934   =>   CDf =  0.00761    CDp =  0.02173
 plradd ia,ip,cpol           27           0  7.12130126E-03

 Point added to stored polar  1
 Point written to save file  sc20714_Re400k.base.pol                         
 Dump file unspecified or not available
 Calculating wake trajectory ...
 Calculating source influence matrix ...

 Solving BL system ...

 Side 1  free  transition at x/c =  0.0425   34
 Side 2  free  transition at x/c =  0.7442   51

   1   rms: 0.7497E-01   max: 0.3460E+00   T at   34  1
       a =  9.500      CL =  1.4198
      Cm = -0.0940     CD =  0.03137   =>   CDf =  0.00729    CDp =  0.02408

 Side 1  free  transition at x/c =  0.0412   34
 Side 2  free  transition at x/c =  0.7478   51

   2   rms: 0.1037E-01   max: 0.1120E+00   D at   35  1
       a =  9.500      CL =  1.4176
      Cm = -0.0935     CD =  0.03160   =>   CDf =  0.00747    CDp =  0.02414

 Side 1  free  transition at x/c =  0.0408   34
 Side 2  free  transition at x/c =  0.7477   51

   3   rms: 0.2681E-02   max: 0.1682E-01   D at   35  1
       a =  9.500      CL =  1.4179
      Cm = -0.0936     CD =  0.03159   =>   CDf =  0.00746    CDp =  0.02412

 Side 1  free  transition at x/c =  0.0408   34
 Side 2  free  transition at x/c =  0.7477   51

   4   rms: 0.1535E-03   max: 0.6765E-03   D at   94  1
       a =  9.500      CL =  1.4178
      Cm = -0.0935     CD =  0.03158   =>   CDf =  0.00746    CDp =  0.02413

 Side 1  free  transition at x/c =  0.0408   34
 Side 2  free  transition at x/c =  0.7477   51

   5   rms: 0.1489E-05   max: -.1183E-04   T at   51  2
       a =  9.500      CL =  1.4178
      Cm = -0.0935     CD =  0.03158   =>   CDf =  0.00746    CDp =  0.02413
 plradd ia,ip,cpol           28           0  7.12130126E-03

 Point added to stored polar  1
 Point written to save file  sc20714_Re400k.base.pol                         
 Dump file unspecified or not available
 Calculating wake trajectory ...
 Calculating source influence matrix ...

 Solving BL system ...

 Side 1  free  transition at x/c =  0.0408   34
 Side 2  free  transition at x/c =  0.7477   51

   1   rms: 0.6581E-01   max: 0.2520E+00   T at   34  1
       a = 10.000      CL =  1.4515
      Cm = -0.0898     CD =  0.03319   =>   CDf =  0.00713    CDp =  0.02606

 Side 1  free  transition at x/c =  0.0392   35
 Side 2  free  transition at x/c =  0.7510   50
 idif Ue xi dudx           1  7.92008787E-02  4.71258163E-03   16.806261    
 Uenew xinew           2  4.86841367E-04  2.89678574E-05

   2   rms: 0.2973E+00   max: -.5270E+01   D at    2  1   RLX: 0.095
       a = 10.000      CL =  1.4503
      Cm = -0.0896     CD =  0.03370   =>   CDf =  0.00748    CDp =  0.02622

 Side 1  free  transition at x/c =  0.0392   34
 Side 2  free  transition at x/c =  0.7510   51

   3   rms: 0.3351E-01   max: -.5473E+00   D at    2  2   RLX: 0.914
       a = 10.000      CL =  1.4435
      Cm = -0.0884     CD =  0.03325   =>   CDf =  0.00717    CDp =  0.02608

 Side 1  free  transition at x/c =  0.0394   34
 Side 2  free  transition at x/c =  0.7506   51

   4   rms: 0.2114E-02   max: -.2233E-01   D at    4  2
       a = 10.000      CL =  1.4443
      Cm = -0.0886     CD =  0.03323   =>   CDf =  0.00719    CDp =  0.02604

 Side 1  free  transition at x/c =  0.0394   34
 Side 2  free  transition at x/c =  0.7506   51

   5   rms: 0.5613E-04   max: -.2251E-03   D at   94  1
       a = 10.000      CL =  1.4444
      Cm = -0.0886     CD =  0.03323   =>   CDf =  0.00720    CDp =  0.02604
 plradd ia,ip,cpol           29           0  7.12130126E-03

 Point added to stored polar  1
 Point written to save file  sc20714_Re400k.base.pol                         
 Dump file unspecified or not available

.OPERva   c>  
 Solving BL system ...

 Side 1  free  transition at x/c =  0.0394   34
 Side 2  free  transition at x/c =  0.7506   51

   1   rms: 0.1173E-05   max: 0.1144E-04   D at    4  2
       a = 10.000      CL =  1.4444
      Cm = -0.0886     CD =  0.03323   =>   CDf =  0.00720    CDp =  0.02604
 plradd ia,ip,cpol           30         182  7.12130126E-03

 Point added to stored polar  1
 Point written to save file  sc20714_Re400k.base.pol                         
 Dump file unspecified or not available
 Calculating wake trajectory ...
 Calculating source influence matrix ...

 Solving BL system ...

 Side 1  free  transition at x/c =  0.0394   34
 Side 2  free  transition at x/c =  0.7506   51

   1   rms: 0.3049E-01   max: 0.1055E+00   T at   34  1
       a = 10.250      CL =  1.4576
      Cm = -0.0862     CD =  0.03413   =>   CDf =  0.00686    CDp =  0.02727

 Side 1  free  transition at x/c =  0.0386   35
 Side 2  free  transition at x/c =  0.7520   50

   2   rms: 0.4318E-02   max: -.2625E-01   D at    3  1
       a = 10.250      CL =  1.4574
      Cm = -0.0862     CD =  0.03409   =>   CDf =  0.00708    CDp =  0.02701

 Side 1  free  transition at x/c =  0.0387   35
 Side 2  free  transition at x/c =  0.7521   50

   3   rms: 0.5745E-03   max: -.5980E-02   D at    4  1
       a = 10.250      CL =  1.4576
      Cm = -0.0863     CD =  0.03410   =>   CDf =  0.00709    CDp =  0.02701

 Side 1  free  transition at x/c =  0.0386   35
 Side 2  free  transition at x/c =  0.7521   50

   4   rms: 0.2233E-05   max: 0.1465E-04   D at   52  2
       a = 10.250      CL =  1.4576
      Cm = -0.0863     CD =  0.03410   =>   CDf =  0.00709    CDp =  0.02701
 plradd ia,ip,cpol           31           0  5.33975055E-03

 Point added to stored polar  1
 Point written to save file  sc20714_Re400k.base.pol                         
 Dump file unspecified or not available
 Calculating wake trajectory ...
 Calculating source influence matrix ...

 Solving BL system ...

 Side 1  free  transition at x/c =  0.0386   35
 Side 2  free  transition at x/c =  0.7521   50

   1   rms: 0.3043E-01   max: 0.1087E+00   T at   35  1
       a = 10.500      CL =  1.4716
      Cm = -0.0841     CD =  0.03498   =>   CDf =  0.00710    CDp =  0.02788

 Side 1  free  transition at x/c =  0.0379   35
 Side 2  free  transition at x/c =  0.7535   50

   2   rms: 0.4132E-02   max: -.2249E-01   D at   35  1
       a = 10.500      CL =  1.4710
      Cm = -0.0841     CD =  0.03494   =>   CDf =  0.00702    CDp =  0.02792

 Side 1  free  transition at x/c =  0.0380   35
 Side 2  free  transition at x/c =  0.7536   50

   3   rms: 0.2923E-03   max: -.1303E-02   D at   94  1
       a = 10.500      CL =  1.4713
      Cm = -0.0841     CD =  0.03495   =>   CDf =  0.00703    CDp =  0.02792

 Side 1  free  transition at x/c =  0.0380   35
 Side 2  free  transition at x/c =  0.7536   50

   4   rms: 0.2473E-05   max: 0.2546E-04   D at   52  2
       a = 10.500      CL =  1.4713
      Cm = -0.0841     CD =  0.03495   =>   CDf =  0.00703    CDp =  0.02792
 plradd ia,ip,cpol           32           0  5.33975055E-03

 Point added to stored polar  1
 Point written to save file  sc20714_Re400k.base.pol                         
 Dump file unspecified or not available
 Calculating wake trajectory ...
 Calculating source influence matrix ...

 Solving BL system ...

 Side 1  free  transition at x/c =  0.0380   35
 Side 2  free  transition at x/c =  0.7536   50

   1   rms: 0.3060E-01   max: 0.1107E+00   T at   35  1
       a = 10.750      CL =  1.4853
      Cm = -0.0821     CD =  0.03586   =>   CDf =  0.00703    CDp =  0.02883

 Side 1  free  transition at x/c =  0.0374   35
 Side 2  free  transition at x/c =  0.7552   50

   2   rms: 0.2932E-02   max: -.1634E-01   D at   35  1
       a = 10.750      CL =  1.4851
      Cm = -0.0822     CD =  0.03587   =>   CDf =  0.00698    CDp =  0.02889

 Side 1  free  transition at x/c =  0.0374   35
 Side 2  free  transition at x/c =  0.7552   50

   3   rms: 0.2023E-03   max: -.9097E-03   D at   93  1
       a = 10.750      CL =  1.4853
      Cm = -0.0822     CD =  0.03587   =>   CDf =  0.00699    CDp =  0.02888

 Side 1  free  transition at x/c =  0.0374   35
 Side 2  free  transition at x/c =  0.7552   50

   4   rms: 0.2604E-05   max: 0.2721E-04   D at   52  2
       a = 10.750      CL =  1.4853
      Cm = -0.0822     CD =  0.03587   =>   CDf =  0.00699    CDp =  0.02888
 plradd ia,ip,cpol           33           0  5.33975055E-03

 Point added to stored polar  1
 Point written to save file  sc20714_Re400k.base.pol                         
 Dump file unspecified or not available
 Calculating wake trajectory ...
 Calculating source influence matrix ...

 Solving BL system ...

 Side 1  free  transition at x/c =  0.0374   35
 Side 2  free  transition at x/c =  0.7552   50

   1   rms: 0.3151E-01   max: 0.1237E+00   T at   35  1
       a = 11.000      CL =  1.5000
      Cm = -0.0804     CD =  0.03691   =>   CDf =  0.00700    CDp =  0.02992

 Side 1  free  transition at x/c =  0.0369   35
 Side 2  free  transition at x/c =  0.7569   50

   2   rms: 0.1729E-02   max: 0.1393E-01   T at   35  1
       a = 11.000      CL =  1.5004
      Cm = -0.0806     CD =  0.03709   =>   CDf =  0.00696    CDp =  0.03012

 Side 1  free  transition at x/c =  0.0368   35
 Side 2  free  transition at x/c =  0.7570   50

   3   rms: 0.6905E-04   max: 0.4876E-03   T at   35  1
       a = 11.000      CL =  1.5004
      Cm = -0.0806     CD =  0.03710   =>   CDf =  0.00698    CDp =  0.03012
 plradd ia,ip,cpol           34           0  5.33975055E-03

 Point added to stored polar  1
 Point written to save file  sc20714_Re400k.base.pol                         
 Dump file unspecified or not available
 Calculating wake trajectory ...
 Calculating source influence matrix ...

 Solving BL system ...

 Side 1  free  transition at x/c =  0.0368   35
 Side 2  free  transition at x/c =  0.7570   50

   1   rms: 0.3688E-01   max: 0.1535E+00   T at   35  1
       a = 11.250      CL =  1.5178
      Cm = -0.0794     CD =  0.03873   =>   CDf =  0.00661    CDp =  0.03211

 Side 1  free  transition at x/c =  0.0363   35
 Side 2  free  transition at x/c =  0.7587   49

   2   rms: 0.6010E-02   max: 0.5696E-01   D at   36  1
       a = 11.250      CL =  1.5151
      Cm = -0.0791     CD =  0.03902   =>   CDf =  0.00687    CDp =  0.03214

 Side 1  free  transition at x/c =  0.0362   35
 Side 2  free  transition at x/c =  0.7588   49

   3   rms: 0.9057E-03   max: -.6967E-02   D at    4  1
       a = 11.250      CL =  1.5148
      Cm = -0.0790     CD =  0.03901   =>   CDf =  0.00687    CDp =  0.03214

 Side 1  free  transition at x/c =  0.0362   35
 Side 2  free  transition at x/c =  0.7588   49

   4   rms: 0.3591E-04   max: -.1883E-03   D at   51  2
       a = 11.250      CL =  1.5148
      Cm = -0.0790     CD =  0.03901   =>   CDf =  0.00687    CDp =  0.03214
 plradd ia,ip,cpol           35           0  5.33975055E-03

 Point added to stored polar  1
 Point written to save file  sc20714_Re400k.base.pol                         
 Dump file unspecified or not available
 Calculating wake trajectory ...
 Calculating source influence matrix ...

 Solving BL system ...

 Side 1  free  transition at x/c =  0.0362   35
 Side 2  free  transition at x/c =  0.7588   49

   1   rms: 0.2953E-01   max: 0.1042E+00   T at   35  1   RLX: 0.990
       a = 11.500      CL =  1.5235
      Cm = -0.0764     CD =  0.04023   =>   CDf =  0.00687    CDp =  0.03336

 Side 1  free  transition at x/c =  0.0359   35
 Side 2  free  transition at x/c =  0.7606   49

   2   rms: 0.1374E-02   max: -.1052E-01   D at   51  2
       a = 11.500      CL =  1.5225
      Cm = -0.0763     CD =  0.04031   =>   CDf =  0.00668    CDp =  0.03363

 Side 1  free  transition at x/c =  0.0359   35
 Side 2  free  transition at x/c =  0.7607   49

   3   rms: 0.3138E-04   max: -.2693E-03   D at   51  2
       a = 11.500      CL =  1.5225
      Cm = -0.0764     CD =  0.04031   =>   CDf =  0.00668    CDp =  0.03363
 plradd ia,ip,cpol           36           0  5.33975055E-03

 Point added to stored polar  1
 Point written to save file  sc20714_Re400k.base.pol                         
 Dump file unspecified or not available
 Calculating wake trajectory ...
 Calculating source influence matrix ...

 Solving BL system ...

 Side 1  free  transition at x/c =  0.0359   35
 Side 2  free  transition at x/c =  0.7607   49

   1   rms: 0.3057E-01   max: 0.9596E-01   T at   35  1   RLX: 0.950
       a = 11.750      CL =  1.5309
      Cm = -0.0740     CD =  0.04170   =>   CDf =  0.00668    CDp =  0.03502

 Side 1  free  transition at x/c =  0.0355   35
 Side 2  free  transition at x/c =  0.7625   49

   2   rms: 0.2204E-02   max: 0.1580E-01   D at   92  1
       a = 11.750      CL =  1.5295
      Cm = -0.0738     CD =  0.04183   =>   CDf =  0.00649    CDp =  0.03534

 Side 1  free  transition at x/c =  0.0355   35
 Side 2  free  transition at x/c =  0.7626   49

   3   rms: 0.6075E-04   max: -.6903E-03   D at   51  2
       a = 11.750      CL =  1.5295
      Cm = -0.0738     CD =  0.04182   =>   CDf =  0.00649    CDp =  0.03534
 plradd ia,ip,cpol           37           0  5.33975055E-03

 Point added to stored polar  1
 Point written to save file  sc20714_Re400k.base.pol                         
 Dump file unspecified or not available
 Calculating wake trajectory ...
 Calculating source influence matrix ...

 Solving BL system ...

 Side 1  free  transition at x/c =  0.0355   35
 Side 2  free  transition at x/c =  0.7626   49

   1   rms: 0.3098E-01   max: 0.8675E-01   T at   35  1   RLX: 0.910
       a = 12.000      CL =  1.5366
      Cm = -0.0716     CD =  0.04333   =>   CDf =  0.00649    CDp =  0.03684

 Side 1  free  transition at x/c =  0.0351   35
 Side 2  free  transition at x/c =  0.7642   49

   2   rms: 0.2924E-02   max: -.1499E-01   D at   51  2
       a = 12.000      CL =  1.5355
      Cm = -0.0712     CD =  0.04350   =>   CDf =  0.00632    CDp =  0.03719

 Side 1  free  transition at x/c =  0.0350   35
 Side 2  free  transition at x/c =  0.7645   49

   3   rms: 0.8825E-04   max: 0.9111E-03   D at   91  1
       a = 12.000      CL =  1.5355
      Cm = -0.0712     CD =  0.04350   =>   CDf =  0.00631    CDp =  0.03719
 plradd ia,ip,cpol           38           0  5.33975055E-03

 Point added to stored polar  1
 Point written to save file  sc20714_Re400k.base.pol                         
 Dump file unspecified or not available
 Calculating wake trajectory ...
 Calculating source influence matrix ...

 Solving BL system ...

 Side 1  free  transition at x/c =  0.0350   35
 Side 2  free  transition at x/c =  0.7645   49

   1   rms: 0.3108E-01   max: -.8268E-01   T at   49  2   RLX: 0.871
       a = 12.250      CL =  1.5412
      Cm = -0.0692     CD =  0.04509   =>   CDf =  0.00631    CDp =  0.03878

 Side 1  free  transition at x/c =  0.0347   35
 Side 2  free  transition at x/c =  0.7661   50

   2   rms: 0.6179E-02   max: 0.6054E-01   D at   50  2
       a = 12.250      CL =  1.5398
      Cm = -0.0686     CD =  0.04529   =>   CDf =  0.00615    CDp =  0.03914

 Side 1  free  transition at x/c =  0.0346   35
 Side 2  free  transition at x/c =  0.7660   50

   3   rms: 0.1477E-03   max: 0.1035E-02   D at   53  2
       a = 12.250      CL =  1.5397
      Cm = -0.0686     CD =  0.04527   =>   CDf =  0.00613    CDp =  0.03914

 Side 1  free  transition at x/c =  0.0346   35
 Side 2  free  transition at x/c =  0.7660   50

   4   rms: 0.1927E-05   max: -.1427E-04   T at   50  2
       a = 12.250      CL =  1.5397
      Cm = -0.0686     CD =  0.04527   =>   CDf =  0.00613    CDp =  0.03914
 plradd ia,ip,cpol           39           0  5.33975055E-03

 Point added to stored polar  1
 Point written to save file  sc20714_Re400k.base.pol                         
 Dump file unspecified or not available
 Calculating wake trajectory ...
 Calculating source influence matrix ...

 Solving BL system ...

 Side 1  free  transition at x/c =  0.0346   35
 Side 2  free  transition at x/c =  0.7660   50

   1   rms: 0.3022E-01   max: -.8378E-01   T at   50  2   RLX: 0.832
       a = 12.500      CL =  1.5435
      Cm = -0.0666     CD =  0.04685   =>   CDf =  0.00576    CDp =  0.04109

 Side 1  free  transition at x/c =  0.0343   36
 Side 2  free  transition at x/c =  0.7672   49

   2   rms: 0.4854E-02   max: 0.2271E-01   D at   91  1
       a = 12.500      CL =  1.5423
      Cm = -0.0660     CD =  0.04716   =>   CDf =  0.00597    CDp =  0.04118

 Side 1  free  transition at x/c =  0.0343   36
 Side 2  free  transition at x/c =  0.7674   49

   3   rms: 0.3908E-03   max: -.4446E-02   D at    4  1
       a = 12.500      CL =  1.5422
      Cm = -0.0660     CD =  0.04713   =>   CDf =  0.00595    CDp =  0.04119

 Side 1  free  transition at x/c =  0.0343   36
 Side 2  free  transition at x/c =  0.7674   49

   4   rms: 0.3672E-05   max: -.1870E-04   T at   49  2
       a = 12.500      CL =  1.5422
      Cm = -0.0660     CD =  0.04713   =>   CDf =  0.00595    CDp =  0.04119
 plradd ia,ip,cpol           40           0  5.33975055E-03

 Point added to stored polar  1
 Point written to save file  sc20714_Re400k.base.pol                         
 Dump file unspecified or not available
 Calculating wake trajectory ...
 Calculating source influence matrix ...

 Solving BL system ...

 Side 1  free  transition at x/c =  0.0343   36
 Side 2  free  transition at x/c =  0.7674   49

   1   rms: 0.2943E-01   max: 0.8391E-01   D at   84  1   RLX: 0.795
       a = 12.750      CL =  1.5449
      Cm = -0.0640     CD =  0.04873   =>   CDf =  0.00595    CDp =  0.04278

 Side 1  free  transition at x/c =  0.0340   36
 Side 2  free  transition at x/c =  0.7686   49

   2   rms: 0.5777E-02   max: 0.2832E-01   D at   90  1
       a = 12.750      CL =  1.5437
      Cm = -0.0634     CD =  0.04911   =>   CDf =  0.00581    CDp =  0.04330

 Side 1  free  transition at x/c =  0.0339   36
 Side 2  free  transition at x/c =  0.7689   49

   3   rms: 0.1925E-03   max: 0.2187E-02   D at   78  2
       a = 12.750      CL =  1.5436
      Cm = -0.0634     CD =  0.04908   =>   CDf =  0.00578    CDp =  0.04330

 Side 1  free  transition at x/c =  0.0339   36
 Side 2  free  transition at x/c =  0.7689   49

   4   rms: 0.3792E-05   max: -.2989E-04   D at   50  2
       a = 12.750      CL =  1.5436
      Cm = -0.0634     CD =  0.04908   =>   CDf =  0.00578    CDp =  0.04330
 plradd ia,ip,cpol           41           0  5.33975055E-03

 Point added to stored polar  1
 Point written to save file  sc20714_Re400k.base.pol                         
 Dump file unspecified or not available
 Calculating wake trajectory ...
 Calculating source influence matrix ...

 Solving BL system ...

 Side 1  free  transition at x/c =  0.0339   36
 Side 2  free  transition at x/c =  0.7689   49

   1   rms: 0.2880E-01   max: 0.8556E-01   D at   84  1   RLX: 0.760
       a = 13.000      CL =  1.5452
      Cm = -0.0615     CD =  0.05068   =>   CDf =  0.00579    CDp =  0.04489

 Side 1  free  transition at x/c =  0.0337   36
 Side 2  free  transition at x/c =  0.7701   49

   2   rms: 0.6854E-02   max: 0.2979E-01   D at   89  1
       a = 13.000      CL =  1.5440
      Cm = -0.0609     CD =  0.05117   =>   CDf =  0.00566    CDp =  0.04551

 Side 1  free  transition at x/c =  0.0336   36
 Side 2  free  transition at x/c =  0.7705   49

   3   rms: 0.2745E-03   max: 0.2119E-02   D at   89  1
       a = 13.000      CL =  1.5437
      Cm = -0.0609     CD =  0.05114   =>   CDf =  0.00563    CDp =  0.04551

 Side 1  free  transition at x/c =  0.0336   36
 Side 2  free  transition at x/c =  0.7705   49

   4   rms: 0.8044E-05   max: -.7223E-04   D at   50  2
       a = 13.000      CL =  1.5437
      Cm = -0.0609     CD =  0.05114   =>   CDf =  0.00562    CDp =  0.04551
 plradd ia,ip,cpol           42           0  5.33975055E-03

 Point added to stored polar  1
 Point written to save file  sc20714_Re400k.base.pol                         
 Dump file unspecified or not available
 Calculating wake trajectory ...
 Calculating source influence matrix ...

 Solving BL system ...

 Side 1  free  transition at x/c =  0.0336   36
 Side 2  free  transition at x/c =  0.7705   49

   1   rms: 0.2887E-01   max: 0.9086E-01   D at   83  1   RLX: 0.726
       a = 13.250      CL =  1.5440
      Cm = -0.0592     CD =  0.05281   =>   CDf =  0.00563    CDp =  0.04718

 Side 1  free  transition at x/c =  0.0334   36
 Side 2  free  transition at x/c =  0.7717   49

   2   rms: 0.7806E-02   max: 0.3254E-01   D at   88  1
       a = 13.250      CL =  1.5427
      Cm = -0.0586     CD =  0.05341   =>   CDf =  0.00551    CDp =  0.04790

 Side 1  free  transition at x/c =  0.0333   36
 Side 2  free  transition at x/c =  0.7722   49

   3   rms: 0.3854E-03   max: 0.3904E-02   D at   79  2
       a = 13.250      CL =  1.5424
      Cm = -0.0585     CD =  0.05337   =>   CDf =  0.00547    CDp =  0.04790

 Side 1  free  transition at x/c =  0.0333   36
 Side 2  free  transition at x/c =  0.7723   49

   4   rms: 0.1107E-04   max: -.8764E-04   D at   50  2
       a = 13.250      CL =  1.5424
      Cm = -0.0585     CD =  0.05337   =>   CDf =  0.00547    CDp =  0.04790
 plradd ia,ip,cpol           43           0  5.33975055E-03

 Point added to stored polar  1
 Point written to save file  sc20714_Re400k.base.pol                         
 Dump file unspecified or not available
 Calculating wake trajectory ...
 Calculating source influence matrix ...

 Solving BL system ...

 Side 1  free  transition at x/c =  0.0333   36
 Side 2  free  transition at x/c =  0.7723   49

   1   rms: 0.2866E-01   max: 0.9281E-01   D at   82  1   RLX: 0.695
       a = 13.500      CL =  1.5421
      Cm = -0.0571     CD =  0.05508   =>   CDf =  0.00548    CDp =  0.04960

 Side 1  free  transition at x/c =  0.0331   36
 Side 2  free  transition at x/c =  0.7735   49

   2   rms: 0.8813E-02   max: 0.3613E-01   D at   87  1
       a = 13.500      CL =  1.5406
      Cm = -0.0565     CD =  0.05579   =>   CDf =  0.00537    CDp =  0.05043

 Side 1  free  transition at x/c =  0.0330   36
 Side 2  free  transition at x/c =  0.7741   49

   3   rms: 0.4496E-03   max: -.2921E-02   D at   50  2
       a = 13.500      CL =  1.5402
      Cm = -0.0564     CD =  0.05575   =>   CDf =  0.00532    CDp =  0.05042

 Side 1  free  transition at x/c =  0.0330   36
 Side 2  free  transition at x/c =  0.7741   49

   4   rms: 0.1265E-04   max: -.7966E-04   D at   50  2
       a = 13.500      CL =  1.5402
      Cm = -0.0564     CD =  0.05575   =>   CDf =  0.00532    CDp =  0.05042
 plradd ia,ip,cpol           44           0  5.33975055E-03

 Point added to stored polar  1
 Point written to save file  sc20714_Re400k.base.pol                         
 Dump file unspecified or not available
 Calculating wake trajectory ...
 Calculating source influence matrix ...

 Solving BL system ...

 Side 1  free  transition at x/c =  0.0330   36
 Side 2  free  transition at x/c =  0.7741   49

   1   rms: 0.2890E-01   max: 0.9650E-01   D at   81  1   RLX: 0.665
       a = 13.750      CL =  1.5392
      Cm = -0.0552     CD =  0.05755   =>   CDf =  0.00533    CDp =  0.05222

 Side 1  free  transition at x/c =  0.0329   36
 Side 2  free  transition at x/c =  0.7752   49

   2   rms: 0.1003E-01   max: 0.4223E-01   D at   86  1
       a = 13.750      CL =  1.5372
      Cm = -0.0546     CD =  0.05844   =>   CDf =  0.00523    CDp =  0.05321

 Side 1  free  transition at x/c =  0.0328   36
 Side 2  free  transition at x/c =  0.7759   49

   3   rms: 0.6243E-03   max: 0.3758E-02   D at   80  2
       a = 13.750      CL =  1.5367
      Cm = -0.0546     CD =  0.05838   =>   CDf =  0.00518    CDp =  0.05320

 Side 1  free  transition at x/c =  0.0328   36
 Side 2  free  transition at x/c =  0.7759   49

   4   rms: 0.1259E-04   max: -.1405E-03   D at   51  2
       a = 13.750      CL =  1.5367
      Cm = -0.0546     CD =  0.05838   =>   CDf =  0.00518    CDp =  0.05320
 plradd ia,ip,cpol           45           0  5.33975055E-03

 Point added to stored polar  1
 Point written to save file  sc20714_Re400k.base.pol                         
 Dump file unspecified or not available
 Calculating wake trajectory ...
 Calculating source influence matrix ...

 Solving BL system ...

 Side 1  free  transition at x/c =  0.0328   36
 Side 2  free  transition at x/c =  0.7759   49

   1   rms: 0.2876E-01   max: 0.9762E-01   D at   81  1   RLX: 0.637
       a = 14.000      CL =  1.5355
      Cm = -0.0537     CD =  0.06022   =>   CDf =  0.00519    CDp =  0.05503

 Side 1  free  transition at x/c =  0.0327   36
 Side 2  free  transition at x/c =  0.7770   49

   2   rms: 0.1073E-01   max: 0.4630E-01   D at   85  1
       a = 14.000      CL =  1.5333
      Cm = -0.0532     CD =  0.06124   =>   CDf =  0.00510    CDp =  0.05614

 Side 1  free  transition at x/c =  0.0326   36
 Side 2  free  transition at x/c =  0.7777   49

   3   rms: 0.7851E-03   max: 0.7715E-02   D at   80  2
       a = 14.000      CL =  1.5327
      Cm = -0.0531     CD =  0.06115   =>   CDf =  0.00505    CDp =  0.05610

 Side 1  free  transition at x/c =  0.0326   36
 Side 2  free  transition at x/c =  0.7777   49

   4   rms: 0.3407E-04   max: 0.1742E-03   D at   80  2
       a = 14.000      CL =  1.5327
      Cm = -0.0531     CD =  0.06115   =>   CDf =  0.00505    CDp =  0.05609
 plradd ia,ip,cpol           46           0  5.33975055E-03

 Point added to stored polar  1
 Point written to save file  sc20714_Re400k.base.pol                         
 Dump file unspecified or not available
 Calculating wake trajectory ...
 Calculating source influence matrix ...

 Solving BL system ...

 Side 1  free  transition at x/c =  0.0326   36
 Side 2  free  transition at x/c =  0.7778   49

   1   rms: 0.2925E-01   max: 0.1026E+00   D at   79  1   RLX: 0.611
       a = 14.250      CL =  1.5307
      Cm = -0.0524     CD =  0.06309   =>   CDf =  0.00506    CDp =  0.05803

 Side 1  free  transition at x/c =  0.0325   36
 Side 2  free  transition at x/c =  0.7788   49

   2   rms: 0.1164E-01   max: 0.4427E-01   D at   84  1
       a = 14.250      CL =  1.5282
      Cm = -0.0520     CD =  0.06429   =>   CDf =  0.00459    CDp =  0.05970

 Side 1  free  transition at x/c =  0.0324   37
 Side 2  free  transition at x/c =  0.7795   48

   3   rms: 0.2562E-02   max: -.4042E-01   T at    2  1
       a = 14.250      CL =  1.5272
      Cm = -0.0520     CD =  0.06422   =>   CDf =  0.00492    CDp =  0.05930

 Side 1  free  transition at x/c =  0.0324   37
 Side 2  free  transition at x/c =  0.7795   48

   4   rms: 0.6079E-03   max: -.7798E-02   D at    4  1
       a = 14.250      CL =  1.5272
      Cm = -0.0520     CD =  0.06422   =>   CDf =  0.00492    CDp =  0.05930

 Side 1  free  transition at x/c =  0.0324   37
 Side 2  free  transition at x/c =  0.7795   48

   5   rms: 0.9753E-06   max: 0.5622E-05   T at   48  2
       a = 14.250      CL =  1.5272
      Cm = -0.0520     CD =  0.06422   =>   CDf =  0.00492    CDp =  0.05930
 plradd ia,ip,cpol           47           0  5.33975055E-03

 Point added to stored polar  1
 Point written to save file  sc20714_Re400k.base.pol                         
 Dump file unspecified or not available
 Calculating wake trajectory ...
 Calculating source influence matrix ...

 Solving BL system ...

 Side 1  free  transition at x/c =  0.0324   37
 Side 2  free  transition at x/c =  0.7795   48

   1   rms: 0.2905E-01   max: 0.1021E+00   D at   79  1   RLX: 0.586
       a = 14.500      CL =  1.5253
      Cm = -0.0515     CD =  0.06619   =>   CDf =  0.00493    CDp =  0.06127

 Side 1  free  transition at x/c =  0.0323   37
 Side 2  free  transition at x/c =  0.7805   48

   2   rms: 0.1200E-01   max: 0.4665E-01   D at   83  1
       a = 14.500      CL =  1.5230
      Cm = -0.0512     CD =  0.06751   =>   CDf =  0.00486    CDp =  0.06265

 Side 1  free  transition at x/c =  0.0322   37
 Side 2  free  transition at x/c =  0.7812   48

   3   rms: 0.1032E-02   max: 0.6098E-02   D at   83  1
       a = 14.500      CL =  1.5222
      Cm = -0.0512     CD =  0.06742   =>   CDf =  0.00482    CDp =  0.06260

 Side 1  free  transition at x/c =  0.0322   37
 Side 2  free  transition at x/c =  0.7813   48

   4   rms: 0.4208E-04   max: -.1891E-03   D at   49  2
       a = 14.500      CL =  1.5222
      Cm = -0.0512     CD =  0.06741   =>   CDf =  0.00482    CDp =  0.06259
 plradd ia,ip,cpol           48           0  5.33975055E-03

 Point added to stored polar  1
 Point written to save file  sc20714_Re400k.base.pol                         
 Dump file unspecified or not available
 Calculating wake trajectory ...
 Calculating source influence matrix ...

 Solving BL system ...

 Side 1  free  transition at x/c =  0.0322   37
 Side 2  free  transition at x/c =  0.7813   48

   1   rms: 0.2951E-01   max: 0.1039E+00   D at   78  1   RLX: 0.564
       a = 14.750      CL =  1.5203
      Cm = -0.0509     CD =  0.06949   =>   CDf =  0.00483    CDp =  0.06466

 Side 1  free  transition at x/c =  0.0321   37
 Side 2  free  transition at x/c =  0.7821   48

   2   rms: 0.1445E-01   max: 0.6056E-01   D at   82  1
       a = 14.750      CL =  1.5158
      Cm = -0.0508     CD =  0.07128   =>   CDf =  0.00477    CDp =  0.06652

 Side 1  free  transition at x/c =  0.0320   37
 Side 2  free  transition at x/c =  0.7827   49

   3   rms: 0.2487E-02   max: -.1392E-01   D at   48  2
       a = 14.750      CL =  1.5140
      Cm = -0.0507     CD =  0.07121   =>   CDf =  0.00471    CDp =  0.06650

 Side 1  free  transition at x/c =  0.0320   37
 Side 2  free  transition at x/c =  0.7827   49

   4   rms: 0.8318E-04   max: 0.1052E-02   D at   80  2
       a = 14.750      CL =  1.5140
      Cm = -0.0507     CD =  0.07120   =>   CDf =  0.00471    CDp =  0.06649
 plradd ia,ip,cpol           49           0  5.33975055E-03

 Point added to stored polar  1
 Point written to save file  sc20714_Re400k.base.pol                         
 Dump file unspecified or not available
 Calculating wake trajectory ...
 Calculating source influence matrix ...

 Solving BL system ...

 Side 1  free  transition at x/c =  0.0320   37
 Side 2  free  transition at x/c =  0.7827   49

   1   rms: 0.3306E-01   max: 0.1225E+00   D at   76  1   RLX: 0.538
       a = 15.000      CL =  1.5095
      Cm = -0.0507     CD =  0.07368   =>   CDf =  0.00471    CDp =  0.06897

 Side 1  free  transition at x/c =  0.0319   37
 Side 2  free  transition at x/c =  0.7834   49

   2   rms: 0.1807E-01   max: 0.7262E-01   D at   80  1
       a = 15.000      CL =  1.5016
      Cm = -0.0507     CD =  0.07609   =>   CDf =  0.00462    CDp =  0.07147

 Side 1  free  transition at x/c =  0.0318   37
 Side 2  free  transition at x/c =  0.7839   49

   3   rms: 0.2962E-02   max: 0.1595E-01   D at   80  1
       a = 15.000      CL =  1.4992
      Cm = -0.0507     CD =  0.07594   =>   CDf =  0.00454    CDp =  0.07141

 Side 1  free  transition at x/c =  0.0318   37
 Side 2  free  transition at x/c =  0.7839   49

   4   rms: 0.1088E-03   max: 0.8935E-03   D at   49  2
       a = 15.000      CL =  1.4992
      Cm = -0.0507     CD =  0.07590   =>   CDf =  0.00453    CDp =  0.07137

 Side 1  free  transition at x/c =  0.0318   37
 Side 2  free  transition at x/c =  0.7839   49

   5   rms: 0.3487E-05   max: -.1095E-04   T at   37  1
       a = 15.000      CL =  1.4992
      Cm = -0.0507     CD =  0.07590   =>   CDf =  0.00453    CDp =  0.07137
 plradd ia,ip,cpol           50           0  5.33975055E-03

 Point added to stored polar  1
 Point written to save file  sc20714_Re400k.base.pol                         
 Dump file unspecified or not available
 Calculating wake trajectory ...
 Calculating source influence matrix ...

 Solving BL system ...

 Side 1  free  transition at x/c =  0.0318   37
 Side 2  free  transition at x/c =  0.7839   49

   1   rms: 0.3897E-01   max: 0.1481E+00   D at   74  1   RLX: 0.511
       a = 15.250      CL =  1.4919
      Cm = -0.0510     CD =  0.07894   =>   CDf =  0.00454    CDp =  0.07441

 Side 1  free  transition at x/c =  0.0317   37
 Side 2  free  transition at x/c =  0.7844   49

   2   rms: 0.2434E-01   max: 0.9749E-01   D at   78  1
       a = 15.250      CL =  1.4791
      Cm = -0.0516     CD =  0.08237   =>   CDf =  0.00443    CDp =  0.07794

 Side 1  free  transition at x/c =  0.0317   37
 Side 2  free  transition at x/c =  0.7848   49

   3   rms: 0.3536E-02   max: 0.2217E-01   D at   77  1
       a = 15.250      CL =  1.4768
      Cm = -0.0517     CD =  0.08198   =>   CDf =  0.00431    CDp =  0.07767

 Side 1  free  transition at x/c =  0.0317   37
 Side 2  free  transition at x/c =  0.7848   49

   4   rms: 0.2032E-03   max: 0.8854E-03   D at   52  2
       a = 15.250      CL =  1.4768
      Cm = -0.0517     CD =  0.08195   =>   CDf =  0.00431    CDp =  0.07763

 Side 1  free  transition at x/c =  0.0317   37
 Side 2  free  transition at x/c =  0.7848   49

   5   rms: 0.2462E-04   max: -.7789E-04   T at   37  1
       a = 15.250      CL =  1.4768
      Cm = -0.0517     CD =  0.08195   =>   CDf =  0.00431    CDp =  0.07764
 plradd ia,ip,cpol           51           0  5.33975055E-03

 Point added to stored polar  1
 Point written to save file  sc20714_Re400k.base.pol                         
 Dump file unspecified or not available
 Calculating wake trajectory ...
 Calculating source influence matrix ...

 Solving BL system ...

 Side 1  free  transition at x/c =  0.0317   37
 Side 2  free  transition at x/c =  0.7848   49

   1   rms: 0.4822E-01   max: 0.1840E+00   D at   73  1   RLX: 0.482
       a = 15.500      CL =  1.4664
      Cm = -0.0526     CD =  0.08579   =>   CDf =  0.00432    CDp =  0.08147

 Side 1  free  transition at x/c =  0.0316   36
 Side 2  free  transition at x/c =  0.7852   49

   2   rms: 0.2776E-01   max: 0.1186E+00   D at   76  1
       a = 15.500      CL =  1.4529
      Cm = -0.0542     CD =  0.08971   =>   CDf =  0.00420    CDp =  0.08551

 Side 1  free  transition at x/c =  0.0316   36
 Side 2  free  transition at x/c =  0.7856   49

   3   rms: 0.4242E-02   max: 0.3512E-01   D at   75  1
       a = 15.500      CL =  1.4501
      Cm = -0.0542     CD =  0.08922   =>   CDf =  0.00406    CDp =  0.08516

 Side 1  free  transition at x/c =  0.0316   36
 Side 2  free  transition at x/c =  0.7856   49

   4   rms: 0.2088E-03   max: 0.2863E-02   D at   81  2
       a = 15.500      CL =  1.4501
      Cm = -0.0542     CD =  0.08913   =>   CDf =  0.00406    CDp =  0.08506

 Side 1  free  transition at x/c =  0.0316   36
 Side 2  free  transition at x/c =  0.7857   49

   5   rms: 0.4819E-05   max: -.2483E-04   D at   82  2
       a = 15.500      CL =  1.4501
      Cm = -0.0542     CD =  0.08913   =>   CDf =  0.00406    CDp =  0.08507
 plradd ia,ip,cpol           52           0  5.33975055E-03

 Point added to stored polar  1
 Point written to save file  sc20714_Re400k.base.pol                         
 Dump file unspecified or not available
 Calculating wake trajectory ...
 Calculating source influence matrix ...

 Solving BL system ...

 Side 1  free  transition at x/c =  0.0316   36
 Side 2  free  transition at x/c =  0.7857   49

   1   rms: 0.5098E-01   max: 0.2020E+00   D at   71  1   RLX: 0.457
       a = 15.750      CL =  1.4393
      Cm = -0.0559     CD =  0.09331   =>   CDf =  0.00407    CDp =  0.08924

 Side 1  free  transition at x/c =  0.0316   36
 Side 2  free  transition at x/c =  0.7860   49

   2   rms: 0.3213E-01   max: 0.1385E+00   D at   73  1
       a = 15.750      CL =  1.4234
      Cm = -0.0585     CD =  0.09837   =>   CDf =  0.00394    CDp =  0.09443

 Side 1  free  transition at x/c =  0.0316   36
 Side 2  free  transition at x/c =  0.7864   49

   3   rms: 0.4468E-02   max: 0.3679E-01   D at   71  1
       a = 15.750      CL =  1.4206
      Cm = -0.0585     CD =  0.09764   =>   CDf =  0.00379    CDp =  0.09385

 Side 1  free  transition at x/c =  0.0316   36
 Side 2  free  transition at x/c =  0.7864   49

   4   rms: 0.1534E-03   max: 0.1496E-02   D at   70  1
       a = 15.750      CL =  1.4205
      Cm = -0.0585     CD =  0.09754   =>   CDf =  0.00379    CDp =  0.09375

 Side 1  free  transition at x/c =  0.0316   36
 Side 2  free  transition at x/c =  0.7864   49

   5   rms: 0.5018E-05   max: -.4275E-04   D at   50  2
       a = 15.750      CL =  1.4205
      Cm = -0.0585     CD =  0.09754   =>   CDf =  0.00379    CDp =  0.09375
 plradd ia,ip,cpol           53           0  5.33975055E-03

 Point added to stored polar  1
 Point written to save file  sc20714_Re400k.base.pol                         
 Dump file unspecified or not available
 Calculating wake trajectory ...
 Calculating source influence matrix ...

 Solving BL system ...

 Side 1  free  transition at x/c =  0.0316   36
 Side 2  free  transition at x/c =  0.7864   49

   1   rms: 0.6178E-01   max: 0.2435E+00   D at   68  1   RLX: 0.433
       a = 16.000      CL =  1.4084
      Cm = -0.0612     CD =  0.10266   =>   CDf =  0.00380    CDp =  0.09886

 Side 1  free  transition at x/c =  0.0316   36
 Side 2  free  transition at x/c =  0.7868   49

   2   rms: 0.4085E-01   max: 0.1701E+00   D at   69  1
       a = 16.000      CL =  1.3889
      Cm = -0.0654     CD =  0.10961   =>   CDf =  0.00367    CDp =  0.10594

 Side 1  free  transition at x/c =  0.0316   36
 Side 2  free  transition at x/c =  0.7871   49

   3   rms: 0.6611E-02   max: 0.5088E-01   D at   68  1
       a = 16.000      CL =  1.3849
      Cm = -0.0653     CD =  0.10837   =>   CDf =  0.00350    CDp =  0.10486

 Side 1  free  transition at x/c =  0.0316   36
 Side 2  free  transition at x/c =  0.7870   49

   4   rms: 0.3281E-03   max: -.2817E-02   D at   68  1
       a = 16.000      CL =  1.3849
      Cm = -0.0652     CD =  0.10815   =>   CDf =  0.00351    CDp =  0.10464

 Side 1  free  transition at x/c =  0.0316   36
 Side 2  free  transition at x/c =  0.7870   49

   5   rms: 0.3076E-04   max: -.1496E-03   D at   83  2
       a = 16.000      CL =  1.3849
      Cm = -0.0652     CD =  0.10817   =>   CDf =  0.00351    CDp =  0.10466
 plradd ia,ip,cpol           54           0  5.33975055E-03

 Point added to stored polar  1
 Point written to save file  sc20714_Re400k.base.pol                         
 Dump file unspecified or not available

.OPERva   c>  
 Polar accumulation disabled

.OPERv   c>  
 XFOIL   c>  
 XFOIL   c>  