  
       XFOIL         Version 6.99
  
 Calculated polar for: NASA SC(2)-0614 AIRFOIL                         
  
 1 1 Reynolds number fixed          Mach number fixed         
  
 xtrf =   1.000 (top)        1.000 (bottom)  
 Mach =   0.000     Re =     0.150 e 6     Ncrit =   9.000
  
   alpha    CL        CD       CDp       CM     Top_Xtr  Bot_Xtr
  ------ -------- --------- --------- -------- -------- --------
-4.000  -0.3109   0.01931   0.01353  -0.0519   1.0000   0.6239
-3.500  -0.2772   0.02086   0.01504  -0.0468   0.9999   0.6485
-3.000  -0.2248   0.02293   0.01712  -0.0438   0.9918   0.6684
-2.500  -0.1744   0.02445   0.01863  -0.0412   0.9832   0.6859
-2.000  -0.1209   0.02583   0.01998  -0.0397   0.9740   0.7097
-1.500  -0.0730   0.02698   0.02117  -0.0359   0.9615   0.7274
-1.000  -0.0255   0.02779   0.02203  -0.0321   0.9491   0.7469
-0.500   0.0593   0.02772   0.02193  -0.0386   0.9384   0.7595
0.000   0.1181   0.02747   0.02174  -0.0386   0.9239   0.7678
0.500   0.2184   0.02628   0.02057  -0.0468   0.9015   0.7762
1.000   0.2983   0.02484   0.01924  -0.0491   0.8809   0.7825
1.500   0.4095   0.02247   0.01697  -0.0571   0.8604   0.7876
2.000   0.4997   0.02049   0.01508  -0.0620   0.8293   0.7926
2.500   0.5585   0.01903   0.01369  -0.0601   0.7774   0.7969
3.000   0.6182   0.01834   0.01245  -0.0587   0.6051   0.8021
3.500   0.6434   0.02103   0.01307  -0.0542   0.2695   0.8063
4.000   0.6853   0.02284   0.01413  -0.0530   0.1764   0.8100
4.500   0.7274   0.02408   0.01511  -0.0509   0.1463   0.8147
5.000   0.7820   0.02543   0.01635  -0.0514   0.1284   0.8190
5.500   0.8440   0.02702   0.01782  -0.0537   0.1150   0.8232
6.000   0.9007   0.02827   0.01908  -0.0545   0.1046   0.8270
6.500   0.9544   0.02993   0.02089  -0.0544   0.0963   0.8314
7.000   1.0121   0.03216   0.02315  -0.0555   0.0889   0.8371
7.500   1.0702   0.03438   0.02559  -0.0568   0.0827   0.8420
8.000   1.1149   0.03729   0.02882  -0.0553   0.0780   0.8473
8.500   1.1618   0.04021   0.03212  -0.0547   0.0737   0.8528
9.000   1.2104   0.04502   0.03710  -0.0555   0.0708   0.8576
9.500   1.2225   0.04973   0.04281  -0.0496   0.0688   0.8625
10.000   1.2240   0.05605   0.04997  -0.0441   0.0672   0.8685
10.250   1.2165   0.06008   0.05440  -0.0411   0.0671   0.8712
10.500   1.1993   0.06424   0.05893  -0.0373   0.0673   0.8734
10.750   1.1729   0.06829   0.06331  -0.0328   0.0677   0.8756
11.000   1.1434   0.07322   0.06856  -0.0297   0.0683   0.8777
11.250   1.1139   0.07868   0.07428  -0.0284   0.0689   0.8796
11.500   1.0867   0.08464   0.08044  -0.0286   0.0695   0.8815
11.750   1.0684   0.09057   0.08651  -0.0299   0.0701   0.8834
12.000   1.0685   0.09574   0.09169  -0.0309   0.0707   0.8857
12.250   0.8444   0.15790   0.15441  -0.0751   0.1043   0.8767
12.500   0.8690   0.15965   0.15620  -0.0716   0.1032   0.8799
12.750   0.8280   0.17102   0.16751  -0.0860   0.0987   0.8799
13.000   0.8339   0.17491   0.17141  -0.0885   0.0954   0.8823
13.250   0.8482   0.17768   0.17420  -0.0891   0.0931   0.8852
13.500   0.8686   0.17996   0.17649  -0.0877   0.0918   0.8884
13.750   0.8914   0.18281   0.17939  -0.0840   0.0910   0.8923
14.000   0.8560   0.19142   0.18794  -0.0989   0.0871   0.8925
14.250   0.8626   0.19502   0.19156  -0.1014   0.0845   0.8957
14.500   0.8738   0.19825   0.19480  -0.1029   0.0828   0.8992
14.750   0.8897   0.20144   0.19800  -0.1033   0.0816   0.9026
15.000   0.9088   0.20449   0.20109  -0.1014   0.0808   0.9065
15.250   0.9119   0.20990   0.20649  -0.1050   0.0800   0.9094
15.500   0.8987   0.21396   0.21053  -0.1145   0.0759   0.9112
15.750   0.9088   0.21719   0.21377  -0.1167   0.0738   0.9148
16.000   0.9209   0.22011   0.21671  -0.1176   0.0724   0.9187
