
 ===================================================
  XFOIL Version 6.99
  Copyright (C) 2000   Mark Drela, Harold Youngren

  This software comes with ABSOLUTELY NO WARRANTY,
    subject to the GNU General Public License.

  Caveat computor
 ===================================================

 File  xfoil.def  not found

   QUIT    Exit program

  .OPER    Direct operating point(s)
  .MDES    Complex mapping design routine
  .QDES    Surface speed design routine
  .GDES    Geometry design routine

   SAVE f  Write airfoil to labeled coordinate file
   PSAV f  Write airfoil to plain coordinate file
   ISAV f  Write airfoil to ISES coordinate file
   MSAV f  Write airfoil to MSES coordinate file
   REVE    Reverse written-airfoil node ordering

   LOAD f  Read buffer airfoil from coordinate file
   NACA i  Set NACA 4,5-digit airfoil and buffer airfoil
   INTE    Set buffer airfoil by interpolating two airfoils
   NORM    Buffer airfoil normalization toggle
   XYCM rr Change CM reference location, currently  0.25000 0.00000

   BEND    Display structural properties of current airfoil

   PCOP    Set current-airfoil panel nodes directly from buffer airfoil points
   PANE    Set current-airfoil panel nodes ( 160 ) based on curvature
  .PPAR    Show/change paneling

  .PLOP    Plotting options

   WDEF f  Write  current-settings file
   RDEF f  Reread current-settings file
   NAME s  Specify new airfoil name
   NINC    Increment name version number

   Z       Zoom    | (available in all menus)
   U       Unzoom  | 

 XFOIL   c>  
 Labeled airfoil file.  Name:  NASA SC(2)-0706 AIRFOIL                         

 Number of input coordinate points: 205
 Counterclockwise ordering
 Max thickness =     0.060012  at x =   0.341
 Max camber    =     0.016290  at x =   0.820

  LE  x,y  =   0.00000   0.00007  |   Chord =   1.00012
  TE  x,y  =   1.00000  -0.01575  |

 Current airfoil nodes set from buffer airfoil nodes ( 205 )

 WARNING: Poor input coordinate distribution
          Excessive panel angle   49.9  at i = 103
          Repaneling with PANE and/or PPAR suggested
           (doing GDES,CADD before repaneling _may_
            improve excessively coarse LE spacing

 XFOIL   c>  
 XFOIL   c>  
 Blunt trailing edge.  Gap =  0.00390

 Paneling parameters used...
   Number of panel nodes       160
   Panel bunching parameter    1.000
   TE/LE panel density ratio   0.150
   Refined-area/LE panel density ratio    0.200
   Top    side refined area x/c limits  1.000 1.000
   Bottom side refined area x/c limits  1.000 1.000

 XFOIL   c>  
.OPERi   c>  
 Xtr/c     =  1.0000    top    side
 Xtr/c     =  1.0000    bottom side
 Ncrit     =    9.00   ( 0.070 % turb. level )
 Vacc      =  0.0100

 Klag  =  5.6000     Uxwt  =    1.00
 A     =  6.7000     B     =  0.7500       KCt = 0.01485
 CtiniK=  1.8000     CtiniX=  3.3000

..VPAR   c>  
..VPAR   c>  
.OPERi   c>  
 M  =    0.0000
 Re =    300000

.OPERv   c>  
.OPERv   c>  
.OPERv   c>  
 Polar  1 newly created for accumulation
 Airfoil archived with polar: NASA SC(2)-0706 AIRFOIL                         

Enter  polar save filename  OR  <return> for no file   s>  
 New polar save file available

Enter  polar dump filename  OR  <return> for no file   s>  
 Polar dump file will NOT be written

 Polar accumulation enabled

.OPERva   c>   Calculating unit vorticity distributions ...
 Calculating wake trajectory ...
 Calculating source influence matrix ...

 Solving BL system ...

 Initializing BL ...
    side            1  ...
 MRCHUE: Inverse mode at  75     Hk =   3.800
 MRCHUE: Inverse mode at  76     Hk =   4.164
 MRCHUE: Inverse mode at  77     Hk =   4.506
 MRCHUE: Inverse mode at  78     Hk =   4.796
 MRCHUE: Inverse mode at  79     Hk =   4.942
    side            2  ...
 MRCHUE: Inverse mode at  45     Hk =   3.800
 MRCHUE: Inverse mode at  47     Hk =   3.800
 MRCHUE: Inverse mode at  48     Hk =   4.199
 MRCHUE: Inverse mode at  49     Hk =   4.589
 MRCHUE: Inverse mode at  50     Hk =   4.968
 MRCHUE: Inverse mode at  51     Hk =   3.735
 MRCHUE: Inverse mode at  52     Hk =   2.500
 MRCHUE: Inverse mode at  85     Hk =   2.386

 Side 1 forced transition at x/c =  1.0000   79
 Side 2  free  transition at x/c =  0.5646   51

   1   rms: 0.1580E+00   max: -.7909E+00   C at   51  2   RLX: 0.632
       a = -4.000      CL = -0.0139
      Cm = -0.0982     CD =  0.00668   =>   CDf =  0.00563    CDp =  0.00105

 Side 1 forced transition at x/c =  1.0000   79
 Side 2  free  transition at x/c =  0.5671   51

   2   rms: 0.9849E-01   max: -.6710E+00   C at   51  2   RLX: 0.745
       a = -4.000      CL = -0.0645
      Cm = -0.0866     CD =  0.00791   =>   CDf =  0.00551    CDp =  0.00239

 Side 1 forced transition at x/c =  1.0000   79
 Side 2  free  transition at x/c =  0.5304   48

   3   rms: 0.3324E-01   max: -.1933E+00   D at   49  2
       a = -4.000      CL = -0.0857
      Cm = -0.0816     CD =  0.00854   =>   CDf =  0.00541    CDp =  0.00313

 Side 1 forced transition at x/c =  1.0000   79
 Side 2  free  transition at x/c =  0.4858   45

   4   rms: 0.6850E-02   max: -.7763E-01   C at   45  2
       a = -4.000      CL = -0.0870
      Cm = -0.0813     CD =  0.00867   =>   CDf =  0.00551    CDp =  0.00316

 Side 1 forced transition at x/c =  1.0000   79
 Side 2  free  transition at x/c =  0.4855   45

   5   rms: 0.3022E-03   max: 0.4906E-02   C at   45  2
       a = -4.000      CL = -0.0871
      Cm = -0.0813     CD =  0.00868   =>   CDf =  0.00550    CDp =  0.00318

 Side 1 forced transition at x/c =  1.0000   79
 Side 2  free  transition at x/c =  0.4852   45

   6   rms: 0.2132E-05   max: -.2781E-04   C at   45  2
       a = -4.000      CL = -0.0871
      Cm = -0.0813     CD =  0.00868   =>   CDf =  0.00550    CDp =  0.00317
 plradd ia,ip,cpol            1           0  3.59423831E-03

 Point added to stored polar  1
 Point written to save file  sc20706_Re300k.base.pol                         
 Dump file unspecified or not available
 Calculating wake trajectory ...
 Calculating source influence matrix ...

 Solving BL system ...

 Side 1 forced transition at x/c =  1.0000   79
 Side 2  free  transition at x/c =  0.4852   45

   1   rms: 0.5256E+00   max: -.8852E+01   C at   45  2   RLX: 0.056
       a = -3.500      CL = -0.0827
      Cm = -0.0816     CD =  0.00860   =>   CDf =  0.00550    CDp =  0.00310

 Side 1 forced transition at x/c =  1.0000   79
 Side 2  free  transition at x/c =  0.5153   47

   2   rms: 0.1751E+00   max: -.1992E+01   C at   47  2   RLX: 0.251
       a = -3.500      CL = -0.0681
      Cm = -0.0819     CD =  0.00854   =>   CDf =  0.00540    CDp =  0.00314

 Side 1 forced transition at x/c =  1.0000   79
 Side 2  free  transition at x/c =  0.6003   53

   3   rms: 0.1068E+00   max: 0.7914E+00   C at   53  2
       a = -3.500      CL = -0.0243
      Cm = -0.0830     CD =  0.00859   =>   CDf =  0.00522    CDp =  0.00337

 MRCHDU: Convergence failed at  56  side 2    Res =  0.9026E+02
 MRCHDU: Convergence failed at  57  side 2    Res =  0.1132E+01
 MRCHDU: Convergence failed at  58  side 2    Res =  0.1903E+01
 MRCHDU: Convergence failed at  59  side 2    Res =  0.3235E+01
 MRCHDU: Convergence failed at  60  side 2    Res =  0.6275E+01
 MRCHDU: Convergence failed at  61  side 2    Res =  0.8921E+01
 MRCHDU: Convergence failed at  62  side 2    Res =  0.9702E+01
 MRCHDU: Convergence failed at  63  side 2    Res =  0.8909E+01
 MRCHDU: Convergence failed at  64  side 2    Res =  0.7738E+01
 MRCHDU: Convergence failed at  65  side 2    Res =  0.6254E+01
 MRCHDU: Convergence failed at  66  side 2    Res =  0.5802E+01
 MRCHDU: Convergence failed at  67  side 2    Res =  0.5297E+01
 MRCHDU: Convergence failed at  68  side 2    Res =  0.4874E+01
 MRCHDU: Convergence failed at  69  side 2    Res =  0.4627E+01
 MRCHDU: Convergence failed at  70  side 2    Res =  0.4419E+01
 MRCHDU: Convergence failed at  71  side 2    Res =  0.4170E+01
 MRCHDU: Convergence failed at  72  side 2    Res =  0.4052E+01
 MRCHDU: Convergence failed at  73  side 2    Res =  0.3958E+01
 MRCHDU: Convergence failed at  74  side 2    Res =  0.3890E+01
 MRCHDU: Convergence failed at  75  side 2    Res =  0.3805E+01
 MRCHDU: Convergence failed at  76  side 2    Res =  0.3763E+01
 MRCHDU: Convergence failed at  77  side 2    Res =  0.3481E+01
 MRCHDU: Convergence failed at  78  side 2    Res =  0.3242E+01
 MRCHDU: Convergence failed at  79  side 2    Res =  0.3344E+01
 MRCHDU: Convergence failed at  80  side 2    Res =  0.3528E+01
 MRCHDU: Convergence failed at  81  side 2    Res =  0.3900E+01
 MRCHDU: Convergence failed at  82  side 2    Res =  0.4119E+01
 Side 1 forced transition at x/c =  1.0000   79
 Side 2  free  transition at x/c =  0.9265   77

   4   rms: 0.3710E+00   max: 0.3032E+01   C at   77  2   RLX: 0.213
       a = -3.500      CL = -0.0951
      Cm = -0.0413     CD =  0.00755   =>   CDf =  0.00459    CDp =  0.00296

 Side 1 forced transition at x/c =  1.0000   79
 Side 2  free  transition at x/c =  0.7902   67

   5   rms: 0.3859E+00   max: 0.6190E+01   C at   67  2   RLX: 0.242
       a = -3.500      CL = -0.0719
      Cm = -0.0539     CD =  0.00824   =>   CDf =  0.00496    CDp =  0.00328

 Side 1 forced transition at x/c =  1.0000   79
 Side 2  free  transition at x/c =  0.7316   63

   6   rms: 0.1465E+00   max: 0.1757E+01   C at   63  2   RLX: 0.854
       a = -3.500      CL = -0.0308
      Cm = -0.0788     CD =  0.00858   =>   CDf =  0.00510    CDp =  0.00348

 Side 1 forced transition at x/c =  1.0000   79
 Side 2  free  transition at x/c =  0.6679   58

   7   rms: 0.4126E-01   max: 0.4528E+00   D at   62  2
       a = -3.500      CL = -0.0278
      Cm = -0.0819     CD =  0.00838   =>   CDf =  0.00510    CDp =  0.00327

 Side 1 forced transition at x/c =  1.0000   79
 Side 2  free  transition at x/c =  0.6537   57

   8   rms: 0.7631E-02   max: 0.1009E+00   D at   61  2
       a = -3.500      CL = -0.0271
      Cm = -0.0821     CD =  0.00843   =>   CDf =  0.00509    CDp =  0.00334

 Side 1 forced transition at x/c =  1.0000   79
 Side 2  free  transition at x/c =  0.6542   57

   9   rms: 0.3626E-03   max: -.6928E-02   D at   61  2
       a = -3.500      CL = -0.0272
      Cm = -0.0821     CD =  0.00843   =>   CDf =  0.00507    CDp =  0.00336

 Side 1 forced transition at x/c =  1.0000   79
 Side 2  free  transition at x/c =  0.6540   57

  10   rms: 0.2034E-05   max: -.3846E-04   D at   61  2
       a = -3.500      CL = -0.0272
      Cm = -0.0821     CD =  0.00843   =>   CDf =  0.00507    CDp =  0.00336
 plradd ia,ip,cpol            2           0  3.59423831E-03

 Point added to stored polar  1
 Point written to save file  sc20706_Re300k.base.pol                         
 Dump file unspecified or not available
 Calculating wake trajectory ...
 Calculating source influence matrix ...

 Solving BL system ...

 Side 1 forced transition at x/c =  1.0000   79
 Side 2  free  transition at x/c =  0.6540   57

   1   rms: 0.1127E+00   max: -.4732E+00   T at   57  2
       a = -3.000      CL =  0.0289
      Cm = -0.0820     CD =  0.00856   =>   CDf =  0.00512    CDp =  0.00344

 MRCHDU: Convergence failed at  60  side 2    Res =  0.2459E+01
 MRCHDU: Convergence failed at  61  side 2    Res =  0.1985E+02
 MRCHDU: Convergence failed at  62  side 2    Res =  0.3253E+01
 MRCHDU: Convergence failed at  63  side 2    Res =  0.2413E+01
 MRCHDU: Convergence failed at  64  side 2    Res =  0.2792E+01
 MRCHDU: Convergence failed at  65  side 2    Res =  0.3822E+01
 MRCHDU: Convergence failed at  66  side 2    Res =  0.5112E+01
 MRCHDU: Convergence failed at  67  side 2    Res =  0.6430E+01
 MRCHDU: Convergence failed at  68  side 2    Res =  0.7983E+01
 MRCHDU: Convergence failed at  69  side 2    Res =  0.9545E+01
 MRCHDU: Convergence failed at  70  side 2    Res =  0.1048E+02
 MRCHDU: Convergence failed at  71  side 2    Res =  0.1159E+02
 MRCHDU: Convergence failed at  72  side 2    Res =  0.1246E+02
 MRCHDU: Convergence failed at  73  side 2    Res =  0.1318E+02
 MRCHDU: Convergence failed at  74  side 2    Res =  0.1324E+02
 MRCHDU: Convergence failed at  75  side 2    Res =  0.1349E+02
 MRCHDU: Convergence failed at  76  side 2    Res =  0.1524E+02
 MRCHDU: Convergence failed at  77  side 2    Res =  0.1749E+02
 MRCHDU: Convergence failed at  78  side 2    Res =  0.2351E+02
 MRCHDU: Convergence failed at  79  side 2    Res =  0.5665E+02
 MRCHDU: Convergence failed at  80  side 2    Res =  0.7122E+03
 MRCHDU: Convergence failed at  81  side 2    Res =  0.1038E+02
 Side 1 forced transition at x/c =  1.0000   80
 Side 2  free  transition at x/c =  0.7068   60

   2   rms: 0.1785E+00   max: 0.8716E+00   T at   79  2   RLX: 0.818
       a = -3.000      CL =  0.0251
      Cm = -0.0763     CD =  0.00811   =>   CDf =  0.00428    CDp =  0.00384

 Side 1 forced transition at x/c =  1.0000   80
 Side 2  free  transition at x/c =  0.7085   60

   3   rms: 0.4333E-01   max: -.3668E+00   D at   81  2
       a = -3.000      CL =  0.0299
      Cm = -0.0821     CD =  0.00853   =>   CDf =  0.00518    CDp =  0.00335

 Side 1 forced transition at x/c =  1.0000   80
 Side 2  free  transition at x/c =  0.7147   61

   4   rms: 0.5541E-02   max: -.5582E-01   D at   81  2
       a = -3.000      CL =  0.0265
      Cm = -0.0813     CD =  0.00857   =>   CDf =  0.00504    CDp =  0.00353

 Side 1 forced transition at x/c =  1.0000   80
 Side 2  free  transition at x/c =  0.7135   60

   5   rms: 0.1204E-02   max: 0.1733E-01   D at   61  2
       a = -3.000      CL =  0.0261
      Cm = -0.0812     CD =  0.00857   =>   CDf =  0.00502    CDp =  0.00354

 Side 1 forced transition at x/c =  1.0000   80
 Side 2  free  transition at x/c =  0.7129   60

   6   rms: 0.3805E-04   max: -.4172E-03   D at   61  2
       a = -3.000      CL =  0.0262
      Cm = -0.0812     CD =  0.00857   =>   CDf =  0.00502    CDp =  0.00355
 plradd ia,ip,cpol            3           0  3.59423831E-03

 Point added to stored polar  1
 Point written to save file  sc20706_Re300k.base.pol                         
 Dump file unspecified or not available
 Calculating wake trajectory ...
 Calculating source influence matrix ...

 Solving BL system ...

 Side 1 forced transition at x/c =  1.0000   80
 Side 2  free  transition at x/c =  0.7129   60

   1   rms: 0.1120E+00   max: -.6684E+00   T at   60  2   RLX: 0.748
       a = -2.500      CL =  0.0693
      Cm = -0.0815     CD =  0.00877   =>   CDf =  0.00502    CDp =  0.00375

 MRCHDU: Convergence failed at  63  side 2    Res =  0.3721E+01
 MRCHDU: Convergence failed at  64  side 2    Res =  0.8208E+01
 MRCHDU: Convergence failed at  65  side 2    Res =  0.3393E+01
 MRCHDU: Convergence failed at  66  side 2    Res =  0.3332E+01
 MRCHDU: Convergence failed at  67  side 2    Res =  0.4873E+01
 MRCHDU: Convergence failed at  68  side 2    Res =  0.6968E+01
 MRCHDU: Convergence failed at  69  side 2    Res =  0.9677E+01
 MRCHDU: Convergence failed at  70  side 2    Res =  0.1251E+02
 MRCHDU: Convergence failed at  71  side 2    Res =  0.1580E+02
 MRCHDU: Convergence failed at  72  side 2    Res =  0.1909E+02
 MRCHDU: Convergence failed at  73  side 2    Res =  0.2197E+02
 MRCHDU: Convergence failed at  74  side 2    Res =  0.2297E+02
 MRCHDU: Convergence failed at  75  side 2    Res =  0.2382E+02
 MRCHDU: Convergence failed at  76  side 2    Res =  0.2843E+02
 MRCHDU: Convergence failed at  77  side 2    Res =  0.3375E+02
 MRCHDU: Convergence failed at  78  side 2    Res =  0.5341E+02
 MRCHDU: Convergence failed at  79  side 2    Res =  0.1975E+03
 MRCHDU: Convergence failed at  80  side 2    Res =  0.6624E+02
 Side 1 forced transition at x/c =  1.0000   80
 Side 2  free  transition at x/c =  0.7474   63

   2   rms: 0.1825E+00   max: 0.9640E+00   T at   76  2   RLX: 0.869
       a = -2.500      CL =  0.0745
      Cm = -0.0765     CD =  0.00836   =>   CDf =  0.00436    CDp =  0.00400

 Side 1 forced transition at x/c =  1.0000   80
 Side 2  free  transition at x/c =  0.7440   63

   3   rms: 0.3665E-01   max: -.3807E+00   D at   65  2
       a = -2.500      CL =  0.0775
      Cm = -0.0798     CD =  0.00877   =>   CDf =  0.00507    CDp =  0.00370

 Side 1 forced transition at x/c =  1.0000   80
 Side 2  free  transition at x/c =  0.7505   63

   4   rms: 0.3229E-02   max: 0.3723E-01   D at   66  2
       a = -2.500      CL =  0.0769
      Cm = -0.0796     CD =  0.00878   =>   CDf =  0.00496    CDp =  0.00382

 Side 1 forced transition at x/c =  1.0000   80
 Side 2  free  transition at x/c =  0.7504   63

   5   rms: 0.8382E-04   max: 0.1343E-02   D at   64  2
       a = -2.500      CL =  0.0769
      Cm = -0.0796     CD =  0.00878   =>   CDf =  0.00495    CDp =  0.00383
 plradd ia,ip,cpol            4           0  1.05661051E-02

 Point added to stored polar  1
 Point written to save file  sc20706_Re300k.base.pol                         
 Dump file unspecified or not available
 Calculating wake trajectory ...
 Calculating source influence matrix ...

 Solving BL system ...

 Side 1 forced transition at x/c =  1.0000   80
 Side 2  free  transition at x/c =  0.7504   63

   1   rms: 0.9875E-01   max: -.5354E+00   T at   63  2   RLX: 0.934
       a = -2.000      CL =  0.1246
      Cm = -0.0783     CD =  0.00901   =>   CDf =  0.00495    CDp =  0.00407

 Side 1 forced transition at x/c =  1.0000   80
 Side 2  free  transition at x/c =  0.7679   64

   2   rms: 0.3592E-01   max: -.3235E+00   T at   64  2
       a = -2.000      CL =  0.1348
      Cm = -0.0802     CD =  0.00901   =>   CDf =  0.00496    CDp =  0.00405

 Side 1 forced transition at x/c =  1.0000   81
 Side 2  free  transition at x/c =  0.7854   65

   3   rms: 0.2473E-01   max: 0.3057E+00   D at   65  2
       a = -2.000      CL =  0.1319
      Cm = -0.0794     CD =  0.00896   =>   CDf =  0.00490    CDp =  0.00406

 Side 1 forced transition at x/c =  1.0000   81
 Side 2  free  transition at x/c =  0.7803   64
 idif Ue xi dudx           1  0.39639261      1.48582458E-03   266.78293    
 Uenew xinew           2  6.36060067E-05  2.38418579E-07

   4   rms: 0.1035E-01   max: 0.1334E+00   D at   65  2
       a = -2.000      CL =  0.1275
      Cm = -0.0782     CD =  0.00896   =>   CDf =  0.00499    CDp =  0.00397

 Side 1 forced transition at x/c =  1.0000   80
 Side 2  free  transition at x/c =  0.7751   65

   5   rms: 0.4480E-01   max: 0.8024E+00   D at    2  2
       a = -2.000      CL =  0.1282
      Cm = -0.0784     CD =  0.00895   =>   CDf =  0.00490    CDp =  0.00405

 Side 1 forced transition at x/c =  1.0000   80
 Side 2  free  transition at x/c =  0.7761   65

   6   rms: 0.2689E-02   max: 0.2712E-01   D at    4  2
       a = -2.000      CL =  0.1282
      Cm = -0.0784     CD =  0.00896   =>   CDf =  0.00487    CDp =  0.00408

 Side 1 forced transition at x/c =  1.0000   81
 Side 2  free  transition at x/c =  0.7761   64

   7   rms: 0.1252E-02   max: -.2131E-01   T at    2  1
       a = -2.000      CL =  0.1282
      Cm = -0.0784     CD =  0.00896   =>   CDf =  0.00490    CDp =  0.00406

 Side 1 forced transition at x/c =  1.0000   81
 Side 2  free  transition at x/c =  0.7761   64

   8   rms: 0.3011E-03   max: 0.3290E-02   D at    6  1
       a = -2.000      CL =  0.1282
      Cm = -0.0784     CD =  0.00896   =>   CDf =  0.00490    CDp =  0.00406

 Side 1 forced transition at x/c =  1.0000   81
 Side 2  free  transition at x/c =  0.7761   64

   9   rms: 0.2197E-04   max: 0.2376E-03   D at    6  1
       a = -2.000      CL =  0.1282
      Cm = -0.0784     CD =  0.00896   =>   CDf =  0.00490    CDp =  0.00406
 plradd ia,ip,cpol            5           0  1.05661051E-02

 Point added to stored polar  1
 Point written to save file  sc20706_Re300k.base.pol                         
 Dump file unspecified or not available
 Calculating wake trajectory ...
 Calculating source influence matrix ...

 Solving BL system ...

 Side 1 forced transition at x/c =  1.0000   81
 Side 2  free  transition at x/c =  0.7761   64

   1   rms: 0.9051E-01   max: -.4061E+00   T at   64  2
       a = -1.500      CL =  0.1786
      Cm = -0.0769     CD =  0.00913   =>   CDf =  0.00490    CDp =  0.00424

 Side 1 forced transition at x/c =  1.0000   81
 Side 2  free  transition at x/c =  0.7937   65

   2   rms: 0.1752E-01   max: -.1600E+00   D at   65  2
       a = -1.500      CL =  0.1813
      Cm = -0.0777     CD =  0.00912   =>   CDf =  0.00486    CDp =  0.00426

 Side 1 forced transition at x/c =  1.0000   81
 Side 2  free  transition at x/c =  0.7990   66

   3   rms: 0.2372E-02   max: -.3267E-01   D at   65  2
       a = -1.500      CL =  0.1806
      Cm = -0.0775     CD =  0.00913   =>   CDf =  0.00484    CDp =  0.00429

 Side 1 forced transition at x/c =  1.0000   81
 Side 2  free  transition at x/c =  0.7982   66

   4   rms: 0.1814E-03   max: 0.2022E-02   D at   67  2
       a = -1.500      CL =  0.1805
      Cm = -0.0775     CD =  0.00913   =>   CDf =  0.00484    CDp =  0.00429

 Side 1 forced transition at x/c =  1.0000   81
 Side 2  free  transition at x/c =  0.7981   66

   5   rms: 0.1337E-05   max: 0.8957E-05   D at   87  2
       a = -1.500      CL =  0.1805
      Cm = -0.0775     CD =  0.00913   =>   CDf =  0.00484    CDp =  0.00429
 plradd ia,ip,cpol            6           0  1.57337617E-02

 Point added to stored polar  1
 Point written to save file  sc20706_Re300k.base.pol                         
 Dump file unspecified or not available
 Calculating wake trajectory ...
 Calculating source influence matrix ...

 Solving BL system ...

 Side 1 forced transition at x/c =  1.0000   81
 Side 2  free  transition at x/c =  0.7981   66

   1   rms: 0.8748E-01   max: -.4250E+00   T at   66  2
       a = -1.000      CL =  0.2272
      Cm = -0.0751     CD =  0.00922   =>   CDf =  0.00484    CDp =  0.00438

 Side 1 forced transition at x/c =  1.0000   81
 Side 2  free  transition at x/c =  0.8071   66

   2   rms: 0.5341E-01   max: -.4209E+00   D at   69  2
       a = -1.000      CL =  0.2383
      Cm = -0.0782     CD =  0.00943   =>   CDf =  0.00474    CDp =  0.00469

 MRCHDU: Convergence failed at  68  side 2    Res =  0.1433E+01
 MRCHDU: Convergence failed at  69  side 2    Res =  0.2149E+02
 MRCHDU: Convergence failed at  70  side 2    Res =  0.4225E+01
 MRCHDU: Convergence failed at  71  side 2    Res =  0.2782E+01
 MRCHDU: Convergence failed at  72  side 2    Res =  0.2519E+01
 MRCHDU: Convergence failed at  73  side 2    Res =  0.3232E+01
 MRCHDU: Convergence failed at  74  side 2    Res =  0.4000E+01
 MRCHDU: Convergence failed at  75  side 2    Res =  0.4874E+01
 MRCHDU: Convergence failed at  76  side 2    Res =  0.5678E+01
 MRCHDU: Convergence failed at  77  side 2    Res =  0.5892E+01
 MRCHDU: Convergence failed at  78  side 2    Res =  0.5030E+01
 MRCHDU: Convergence failed at  79  side 2    Res =  0.2494E+01
 Side 1 forced transition at x/c =  1.0000   81
 Side 2  free  transition at x/c =  0.8230   67

   3   rms: 0.1195E+00   max: 0.8436E+00   T at   71  2   RLX: 0.942
       a = -1.000      CL =  0.2370
      Cm = -0.0769     CD =  0.00838   =>   CDf =  0.00437    CDp =  0.00402

 Side 1 forced transition at x/c =  1.0000   81
 Side 2  free  transition at x/c =  0.8178   67

   4   rms: 0.2186E-01   max: 0.1403E+00   D at   76  2
       a = -1.000      CL =  0.2329
      Cm = -0.0767     CD =  0.00926   =>   CDf =  0.00474    CDp =  0.00452

 Side 1 forced transition at x/c =  1.0000   81
 Side 2  free  transition at x/c =  0.8143   67

   5   rms: 0.2068E-02   max: -.2575E-01   D at   71  2
       a = -1.000      CL =  0.2322
      Cm = -0.0766     CD =  0.00927   =>   CDf =  0.00473    CDp =  0.00454

 Side 1 forced transition at x/c =  1.0000   81
 Side 2  free  transition at x/c =  0.8143   67

   6   rms: 0.4142E-04   max: -.4009E-03   D at   71  2
       a = -1.000      CL =  0.2322
      Cm = -0.0766     CD =  0.00927   =>   CDf =  0.00473    CDp =  0.00454
 plradd ia,ip,cpol            7           0  9.69287474E-03

 Point added to stored polar  1
 Point written to save file  sc20706_Re300k.base.pol                         
 Dump file unspecified or not available
 Calculating wake trajectory ...
 Calculating source influence matrix ...

 Solving BL system ...

 Side 1 forced transition at x/c =  1.0000   81
 Side 2  free  transition at x/c =  0.8143   67

   1   rms: 0.8802E-01   max: -.3221E+00   T at   67  2
       a = -0.500      CL =  0.2820
      Cm = -0.0751     CD =  0.00939   =>   CDf =  0.00465    CDp =  0.00474

 Side 1 forced transition at x/c =  1.0000   82
 Side 2  free  transition at x/c =  0.8256   67

   2   rms: 0.3374E-01   max: -.2438E+00   D at   67  2
       a = -0.500      CL =  0.2852
      Cm = -0.0760     CD =  0.00936   =>   CDf =  0.00461    CDp =  0.00475

 Side 1 forced transition at x/c =  1.0000   82
 Side 2  free  transition at x/c =  0.8297   67

   3   rms: 0.4075E-02   max: -.3423E-01   D at   71  2
       a = -0.500      CL =  0.2846
      Cm = -0.0758     CD =  0.00941   =>   CDf =  0.00458    CDp =  0.00484

 Side 1 forced transition at x/c =  1.0000   82
 Side 2  free  transition at x/c =  0.8292   67

   4   rms: 0.1446E-03   max: -.1450E-02   D at   68  2
       a = -0.500      CL =  0.2846
      Cm = -0.0758     CD =  0.00941   =>   CDf =  0.00458    CDp =  0.00483

 Side 1 forced transition at x/c =  1.0000   82
 Side 2  free  transition at x/c =  0.8292   67

   5   rms: 0.2140E-05   max: -.1568E-04   D at   87  2
       a = -0.500      CL =  0.2846
      Cm = -0.0758     CD =  0.00941   =>   CDf =  0.00458    CDp =  0.00483
 plradd ia,ip,cpol            8           0  9.69287474E-03

 Point added to stored polar  1
 Point written to save file  sc20706_Re300k.base.pol                         
 Dump file unspecified or not available
 Calculating wake trajectory ...
 Calculating source influence matrix ...

 Solving BL system ...

 Side 1 forced transition at x/c =  1.0000   82
 Side 2  free  transition at x/c =  0.8292   67

   1   rms: 0.9113E-01   max: -.3076E+00   T at   67  2
       a =  0.000      CL =  0.3350
      Cm = -0.0746     CD =  0.00957   =>   CDf =  0.00458    CDp =  0.00499

 Side 1 forced transition at x/c =  1.0000   82
 Side 2  free  transition at x/c =  0.8418   68

   2   rms: 0.1489E-01   max: -.1596E+00   D at   68  2
       a =  0.000      CL =  0.3370
      Cm = -0.0752     CD =  0.00958   =>   CDf =  0.00441    CDp =  0.00517

 Side 1 forced transition at x/c =  1.0000   82
 Side 2  free  transition at x/c =  0.8443   68

   3   rms: 0.8299E-03   max: 0.7382E-02   D at   69  2
       a =  0.000      CL =  0.3367
      Cm = -0.0752     CD =  0.00959   =>   CDf =  0.00440    CDp =  0.00519

 Side 1 forced transition at x/c =  1.0000   82
 Side 2  free  transition at x/c =  0.8440   68

   4   rms: 0.1588E-04   max: -.1691E-03   D at   69  2
       a =  0.000      CL =  0.3367
      Cm = -0.0752     CD =  0.00959   =>   CDf =  0.00440    CDp =  0.00519
 plradd ia,ip,cpol            9           0  3.22631910E-03

 Point added to stored polar  1
 Point written to save file  sc20706_Re300k.base.pol                         
 Dump file unspecified or not available
 Calculating wake trajectory ...
 Calculating source influence matrix ...

 Solving BL system ...

 Side 1 forced transition at x/c =  1.0000   82
 Side 2  free  transition at x/c =  0.8440   68

   1   rms: 0.1111E+00   max: -.2991E+00   T at   68  2
       a =  0.500      CL =  0.3881
      Cm = -0.0743     CD =  0.00978   =>   CDf =  0.00427    CDp =  0.00551

 Side 1  free  transition at x/c =  0.9678   80
 Side 2  free  transition at x/c =  0.8575   68

   2   rms: 0.1238E+00   max: -.6265E+00   D at   87  2   RLX: 0.798
       a =  0.500      CL =  0.4371
      Cm = -0.0843     CD =  0.00927   =>   CDf =  0.00415    CDp =  0.00512

 Side 1  free  transition at x/c =  0.9762   81
 Side 2  free  transition at x/c =  0.8554   68

   3   rms: 0.1701E-01   max: -.1564E+00   D at   87  2
       a =  0.500      CL =  0.4336
      Cm = -0.0837     CD =  0.00895   =>   CDf =  0.00410    CDp =  0.00485

 Side 1  free  transition at x/c =  0.9716   81
 Side 2  free  transition at x/c =  0.8551   68

   4   rms: 0.1531E-01   max: -.9308E-01   D at   83  1
       a =  0.500      CL =  0.4410
      Cm = -0.0852     CD =  0.00884   =>   CDf =  0.00409    CDp =  0.00475

 Side 1  free  transition at x/c =  0.9710   81
 Side 2  free  transition at x/c =  0.8548   68

   5   rms: 0.3325E-02   max: -.1756E-01   D at   83  1
       a =  0.500      CL =  0.4429
      Cm = -0.0856     CD =  0.00882   =>   CDf =  0.00409    CDp =  0.00474

 Side 1  free  transition at x/c =  0.9707   80
 Side 2  free  transition at x/c =  0.8546   68

   6   rms: 0.1048E-02   max: 0.6291E-02   D at   83  1
       a =  0.500      CL =  0.4424
      Cm = -0.0855     CD =  0.00883   =>   CDf =  0.00409    CDp =  0.00475

 Side 1  free  transition at x/c =  0.9707   80
 Side 2  free  transition at x/c =  0.8547   68

   7   rms: 0.4561E-05   max: -.3166E-04   D at   81  2
       a =  0.500      CL =  0.4424
      Cm = -0.0855     CD =  0.00883   =>   CDf =  0.00409    CDp =  0.00475
 plradd ia,ip,cpol           10           0  3.22631910E-03

 Point added to stored polar  1
 Point written to save file  sc20706_Re300k.base.pol                         
 Dump file unspecified or not available
 Calculating wake trajectory ...
 Calculating source influence matrix ...

 Solving BL system ...

 Side 1  free  transition at x/c =  0.9707   80
 Side 2  free  transition at x/c =  0.8547   68

   1   rms: 0.1350E+00   max: -.1455E+01   C at   80  1   RLX: 0.344
       a =  1.000      CL =  0.4408
      Cm = -0.0804     CD =  0.00869   =>   CDf =  0.00409    CDp =  0.00460

 Side 1  free  transition at x/c =  0.9407   78
 Side 2  free  transition at x/c =  0.8594   68

   2   rms: 0.1156E+00   max: -.1063E+01   C at   78  1   RLX: 0.470
       a =  1.000      CL =  0.4495
      Cm = -0.0778     CD =  0.00905   =>   CDf =  0.00401    CDp =  0.00504

 Side 1  free  transition at x/c =  0.8862   74
 Side 2  free  transition at x/c =  0.8645   68

   3   rms: 0.1678E+00   max: -.9407E+00   C at   75  1   RLX: 0.532
       a =  1.000      CL =  0.4709
      Cm = -0.0782     CD =  0.00854   =>   CDf =  0.00394    CDp =  0.00460

 Side 1  free  transition at x/c =  0.5910   53
 Side 2  free  transition at x/c =  0.8669   69

   4   rms: 0.9289E+00   max: 0.1598E+02   C at   53  1   RLX: 0.094
       a =  1.000      CL =  0.4746
      Cm = -0.0774     CD =  0.01165   =>   CDf =  0.00524    CDp =  0.00641

 Side 1  free  transition at x/c =  0.5159   47
 Side 2  free  transition at x/c =  0.8664   69

   5   rms: 0.1083E+01   max: 0.1845E+02   C at   47  1   RLX: 0.081
       a =  1.000      CL =  0.4813
      Cm = -0.0790     CD =  0.01181   =>   CDf =  0.00559    CDp =  0.00623

 Side 1  free  transition at x/c =  0.4351   42
 Side 2  free  transition at x/c =  0.8659   69

   6   rms: 0.1712E+01   max: 0.3107E+02   C at   42  1   RLX: 0.048
       a =  1.000      CL =  0.4876
      Cm = -0.0806     CD =  0.01233   =>   CDf =  0.00596    CDp =  0.00637

 Side 1  free  transition at x/c =  0.3649   37
 Side 2  free  transition at x/c =  0.8654   68

   7   rms: 0.3249E+01   max: 0.6064E+02   C at   37  1   RLX: 0.025
       a =  1.000      CL =  0.4938
      Cm = -0.0823     CD =  0.01272   =>   CDf =  0.00628    CDp =  0.00644

 Side 1  free  transition at x/c =  0.3027   32
 Side 2  free  transition at x/c =  0.8646   68

   8   rms: 0.1853E+01   max: 0.3543E+02   C at   32  1   RLX: 0.042
       a =  1.000      CL =  0.5003
      Cm = -0.0840     CD =  0.01292   =>   CDf =  0.00641    CDp =  0.00651

 Side 1  free  transition at x/c =  0.2356   28
 Side 2  free  transition at x/c =  0.8640   67

   9   rms: 0.2174E+01   max: 0.4214E+02   C at   28  1   RLX: 0.036
       a =  1.000      CL =  0.5045
      Cm = -0.0853     CD =  0.01319   =>   CDf =  0.00682    CDp =  0.00636

 Side 1  free  transition at x/c =  0.1911   25
 Side 2  free  transition at x/c =  0.8635   67

  10   rms: 0.1770E+01   max: 0.3630E+02   C at   25  1   RLX: 0.041
       a =  1.000      CL =  0.5085
      Cm = -0.0865     CD =  0.01338   =>   CDf =  0.00703    CDp =  0.00635

 Side 1  free  transition at x/c =  0.1503   22
 Side 2  free  transition at x/c =  0.8632   67

  11   rms: 0.1201E+01   max: 0.2542E+02   C at   22  1   RLX: 0.059
       a =  1.000      CL =  0.5130
      Cm = -0.0877     CD =  0.01351   =>   CDf =  0.00722    CDp =  0.00628

 Side 1  free  transition at x/c =  0.1168   20
 Side 2  free  transition at x/c =  0.8628   67

  12   rms: 0.6654E+00   max: 0.1293E+02   C at   20  1   RLX: 0.116
       a =  1.000      CL =  0.5196
      Cm = -0.0895     CD =  0.01367   =>   CDf =  0.00740    CDp =  0.00627

 Side 1  free  transition at x/c =  0.0912   18
 Side 2  free  transition at x/c =  0.8624   67

  13   rms: 0.2567E+00   max: 0.3676E+01   C at   18  1   RLX: 0.230
       a =  1.000      CL =  0.5278
      Cm = -0.0915     CD =  0.01346   =>   CDf =  0.00756    CDp =  0.00591

 Side 1  free  transition at x/c =  0.0749   16
 Side 2  free  transition at x/c =  0.8622   67

  14   rms: 0.6270E-01   max: -.4479E+00   D at   83  1
       a =  1.000      CL =  0.5416
      Cm = -0.0942     CD =  0.01225   =>   CDf =  0.00771    CDp =  0.00454

 Side 1  free  transition at x/c =  0.0612   15
 Side 2  free  transition at x/c =  0.8629   67

  15   rms: 0.3059E-01   max: -.3129E+00   T at   15  1
       a =  1.000      CL =  0.5216
      Cm = -0.0897     CD =  0.01248   =>   CDf =  0.00779    CDp =  0.00468

 Side 1  free  transition at x/c =  0.0708   16
 Side 2  free  transition at x/c =  0.8642   67

  16   rms: 0.1455E-01   max: 0.2887E+00   D at   16  1
       a =  1.000      CL =  0.5213
      Cm = -0.0896     CD =  0.01219   =>   CDf =  0.00773    CDp =  0.00446

 Side 1  free  transition at x/c =  0.0746   16
 Side 2  free  transition at x/c =  0.8644   67

  17   rms: 0.1479E-02   max: 0.2103E-01   D at   17  1
       a =  1.000      CL =  0.5212
      Cm = -0.0896     CD =  0.01222   =>   CDf =  0.00771    CDp =  0.00451

 Side 1  free  transition at x/c =  0.0752   16
 Side 2  free  transition at x/c =  0.8644   67

  18   rms: 0.2071E-04   max: -.2928E-03   C at   16  1
       a =  1.000      CL =  0.5212
      Cm = -0.0896     CD =  0.01222   =>   CDf =  0.00771    CDp =  0.00451
 plradd ia,ip,cpol           11           0  3.22631910E-03

 Point added to stored polar  1
 Point written to save file  sc20706_Re300k.base.pol                         
 Dump file unspecified or not available
 Calculating wake trajectory ...
 Calculating source influence matrix ...

 Solving BL system ...

 Side 1  free  transition at x/c =  0.0752   16
 Side 2  free  transition at x/c =  0.8644   67

   1   rms: 0.1927E+00   max: 0.2221E+01   T at   16  1   RLX: 0.477
       a =  1.500      CL =  0.5492
      Cm = -0.0895     CD =  0.01271   =>   CDf =  0.00771    CDp =  0.00500

 MRCHDU: Convergence failed at  16  side 1    Res =  0.2810E+01
 Side 1  free  transition at x/c =  0.0506   15
 Side 2  free  transition at x/c =  0.8732   68

   2   rms: 0.1249E+00   max: -.1001E+01   D at   17  1   RLX: 0.499
       a =  1.500      CL =  0.5585
      Cm = -0.0880     CD =  0.01372   =>   CDf =  0.00768    CDp =  0.00604

 Side 1  free  transition at x/c =  0.0477   14
 Side 2  free  transition at x/c =  0.8754   68

   3   rms: 0.1011E+00   max: -.6527E+00   C at   14  1   RLX: 0.766
       a =  1.500      CL =  0.5699
      Cm = -0.0882     CD =  0.01274   =>   CDf =  0.00772    CDp =  0.00502

 Side 1  free  transition at x/c =  0.0419   14
 Side 2  free  transition at x/c =  0.8772   68

   4   rms: 0.1466E-01   max: -.2335E+00   D at   15  1
       a =  1.500      CL =  0.5708
      Cm = -0.0879     CD =  0.01326   =>   CDf =  0.00772    CDp =  0.00555

 Side 1  free  transition at x/c =  0.0398   14
 Side 2  free  transition at x/c =  0.8778   68

   5   rms: 0.2741E-02   max: 0.2685E-01   T at   14  1
       a =  1.500      CL =  0.5705
      Cm = -0.0879     CD =  0.01334   =>   CDf =  0.00774    CDp =  0.00560

 Side 1  free  transition at x/c =  0.0395   14
 Side 2  free  transition at x/c =  0.8778   68

   6   rms: 0.2763E-04   max: -.4436E-03   D at   15  1
       a =  1.500      CL =  0.5705
      Cm = -0.0879     CD =  0.01334   =>   CDf =  0.00774    CDp =  0.00560
 plradd ia,ip,cpol           12           0  3.22631910E-03

 Point added to stored polar  1
 Point written to save file  sc20706_Re300k.base.pol                         
 Dump file unspecified or not available
 Calculating wake trajectory ...
 Calculating source influence matrix ...

 Solving BL system ...

 Side 1  free  transition at x/c =  0.0395   14
 Side 2  free  transition at x/c =  0.8778   68

   1   rms: 0.1593E+00   max: 0.1201E+01   T at   14  1
       a =  2.000      CL =  0.6242
      Cm = -0.0872     CD =  0.01524   =>   CDf =  0.00774    CDp =  0.00749

 MRCHDU: Convergence failed at  14  side 1    Res =  0.1865E+03
 MRCHDU: Convergence failed at  15  side 1    Res =  0.2145E+03
 MRCHDU: Convergence failed at  16  side 1    Res =  0.1336E+02
 MRCHDU: Convergence failed at  17  side 1    Res =  0.3987E+03
 MRCHDU: Convergence failed at  18  side 1    Res =  0.2919E+03
 MRCHDU: Convergence failed at  19  side 1    Res =  0.1837E+04
 MRCHDU: Convergence failed at  20  side 1    Res =  0.3134E+03
 MRCHDU: Convergence failed at  21  side 1    Res =  0.1687E+03
 MRCHDU: Convergence failed at  22  side 1    Res =  0.1061E+03
 MRCHDU: Convergence failed at  23  side 1    Res =  0.1347E+03
 MRCHDU: Convergence failed at  24  side 1    Res =  0.8267E+02
 MRCHDU: Convergence failed at  25  side 1    Res =  0.8165E+02
 MRCHDU: Convergence failed at  26  side 1    Res =  0.6219E+02
 MRCHDU: Convergence failed at  27  side 1    Res =  0.5639E+02
 MRCHDU: Convergence failed at  28  side 1    Res =  0.5755E+02
 MRCHDU: Convergence failed at  29  side 1    Res =  0.4902E+02
 MRCHDU: Convergence failed at  30  side 1    Res =  0.4653E+02
 MRCHDU: Convergence failed at  31  side 1    Res =  0.4791E+02
 MRCHDU: Convergence failed at  32  side 1    Res =  0.9239E+02
 MRCHDU: Convergence failed at  33  side 1    Res =  0.7058E+02
 MRCHDU: Convergence failed at  34  side 1    Res =  0.6446E+02
 MRCHDU: Convergence failed at  35  side 1    Res =  0.8085E+02
 MRCHDU: Convergence failed at  36  side 1    Res =  0.6112E+02
 MRCHDU: Convergence failed at  37  side 1    Res =  0.5687E+02
 MRCHDU: Convergence failed at  38  side 1    Res =  0.5549E+02
 MRCHDU: Convergence failed at  39  side 1    Res =  0.5925E+02
 MRCHDU: Convergence failed at  40  side 1    Res =  0.5907E+02
 MRCHDU: Convergence failed at  41  side 1    Res =  0.5213E+02
 MRCHDU: Convergence failed at  42  side 1    Res =  0.5115E+02
 MRCHDU: Convergence failed at  43  side 1    Res =  0.5147E+02
 MRCHDU: Convergence failed at  44  side 1    Res =  0.5717E+02
 MRCHDU: Convergence failed at  45  side 1    Res =  0.5936E+02
 MRCHDU: Convergence failed at  46  side 1    Res =  0.5716E+03
 MRCHDU: Convergence failed at  47  side 1    Res =  0.5191E+02
 MRCHDU: Convergence failed at  48  side 1    Res =  0.5466E+02
 MRCHDU: Convergence failed at  49  side 1    Res =  0.6613E+02
 MRCHDU: Convergence failed at  50  side 1    Res =  0.5309E+02
 MRCHDU: Convergence failed at  51  side 1    Res =  0.5988E+03
 MRCHDU: Convergence failed at  52  side 1    Res =  0.5422E+02
 MRCHDU: Convergence failed at  53  side 1    Res =  0.5806E+02
 MRCHDU: Convergence failed at  54  side 1    Res =  0.7183E+02
 MRCHDU: Convergence failed at  55  side 1    Res =  0.5879E+02
 MRCHDU: Convergence failed at  56  side 1    Res =  0.5960E+02
 MRCHDU: Convergence failed at  57  side 1    Res =  0.6147E+02
 MRCHDU: Convergence failed at  58  side 1    Res =  0.7802E+02
 MRCHDU: Convergence failed at  59  side 1    Res =  0.6688E+02
 MRCHDU: Convergence failed at  60  side 1    Res =  0.6571E+02
 MRCHDU: Convergence failed at  61  side 1    Res =  0.6773E+02
 MRCHDU: Convergence failed at  62  side 1    Res =  0.8095E+02
 MRCHDU: Convergence failed at  63  side 1    Res =  0.8607E+02
 MRCHDU: Convergence failed at  64  side 1    Res =  0.7770E+02
 MRCHDU: Convergence failed at  65  side 1    Res =  0.9516E+02
 MRCHDU: Convergence failed at  66  side 1    Res =  0.9172E+02
 MRCHDU: Convergence failed at  67  side 1    Res =  0.8464E+02
 MRCHDU: Convergence failed at  68  side 1    Res =  0.1106E+03
 MRCHDU: Convergence failed at  69  side 1    Res =  0.1065E+03
 MRCHDU: Convergence failed at  70  side 1    Res =  0.1186E+03
 MRCHDU: Convergence failed at  71  side 1    Res =  0.1087E+03
 MRCHDU: Convergence failed at  72  side 1    Res =  0.9175E+02
 MRCHDU: Convergence failed at  73  side 1    Res =  0.9700E+02
 MRCHDU: Convergence failed at  74  side 1    Res =  0.7020E+02
 MRCHDU: Convergence failed at  75  side 1    Res =  0.4217E+02
 MRCHDU: Convergence failed at  76  side 1    Res =  0.3835E+02
 MRCHDU: Convergence failed at  77  side 1    Res =  0.9070E+02
 MRCHDU: Convergence failed at  78  side 1    Res =  0.5422E+03
 MRCHDU: Convergence failed at  79  side 1    Res =  0.1974E+03
 MRCHDU: Convergence failed at  80  side 1    Res =  0.4750E+02
 MRCHDU: Convergence failed at  81  side 1    Res =  0.3269E+02
 MRCHDU: Convergence failed at  82  side 1    Res =  0.8284E+02
 MRCHDU: Convergence failed at  83  side 1    Res =  0.5431E+02
 MRCHDU: Convergence failed at  84  side 1    Res =  0.5243E+04
 Side 1  free  transition at x/c =  0.0318   13
 Side 2  free  transition at x/c =  0.8960   70

   2   rms: 0.8153E+00   max: 0.4265E+01   D at   82  2   RLX: 0.352
       a =  2.000      CL =  1.3692
      Cm = -0.3200     CD =  0.01015   =>   CDf =  0.00197    CDp =  0.00818

 MRCHDU: Convergence failed at  82  side 2    Res =  0.1611E+01
 MRCHDU: Convergence failed at  83  side 2    Res =  0.2003E+01
 MRCHDU: Convergence failed at  84  side 2    Res =  0.3841E+02
 MRCHDU: Convergence failed at  85  side 2    Res =  0.3237E+01
 MRCHDU: Convergence failed at  86  side 2    Res =  0.1867E+01
 MRCHDU: Convergence failed at  87  side 2    Res =  0.2256E+01
 Side 1  free  transition at x/c =  0.0313   13
 Side 2  free  transition at x/c =  0.9008   70

   3   rms: 0.5856E+00   max: -.1726E+01   D at   10  1   RLX: 0.290
       a =  2.000      CL =  0.7164
      Cm = -0.1719     CD =  0.04613   =>   CDf =  0.00232    CDp =  0.04381

 Side 1  free  transition at x/c =  0.0450   14
 Side 2  free  transition at x/c =  0.9079   71

   4   rms: 0.9696E+01   max: 0.9053E+02   T at   14  1   RLX: 0.017
       a =  2.000      CL =  0.7597
      Cm = -0.1620     CD =  0.06650   =>   CDf =  0.00259    CDp =  0.06391

 MRCHDU: Convergence failed at  14  side 1    Res =  0.5874E+01
 Side 1  free  transition at x/c =  0.0356   13
 Side 2  free  transition at x/c =  0.9043   70

   5   rms: 0.4777E+00   max: -.2472E+01   T at   15  1   RLX: 0.202
       a =  2.000      CL =  0.8019
      Cm = -0.1617     CD =  0.06759   =>   CDf =  0.00236    CDp =  0.06523

 Side 1  free  transition at x/c =  0.0356   13
 Side 2  free  transition at x/c =  0.9075   71

   6   rms: 0.1132E+01   max: -.9408E+01   T at   14  1   RLX: 0.053
       a =  2.000      CL =  0.8006
      Cm = -0.1623     CD =  0.08560   =>   CDf =  0.00236    CDp =  0.08324

 Side 1  free  transition at x/c =  0.0355   13
 Side 2  free  transition at x/c =  0.9068   71

   7   rms: 0.4561E+00   max: -.1191E+01   T at   71  2   RLX: 0.420
       a =  2.000      CL =  0.6209
      Cm = -0.1160     CD =  0.05462   =>   CDf =  0.00232    CDp =  0.05230

 Side 1  free  transition at x/c =  0.0431   14
 Side 2  free  transition at x/c =  0.9174   71

   8   rms: 0.4614E+00   max: -.1350E+01   D at   61  1   RLX: 0.370
       a =  2.000      CL =  0.4856
      Cm = -0.0735     CD =  0.05452   =>   CDf =  0.00244    CDp =  0.05207

 Side 1  free  transition at x/c =  0.0478   14
 Side 2  free  transition at x/c =  0.9211   72

   9   rms: 0.5292E+00   max: -.2967E+01   T at   15  1   RLX: 0.169
       a =  2.000      CL =  0.4369
      Cm = -0.0590     CD =  0.06426   =>   CDf =  0.00257    CDp =  0.06169

 Side 1  free  transition at x/c =  0.0471   14
 Side 2  free  transition at x/c =  0.9204   72

  10   rms: 0.5987E+00   max: -.6184E+01   T at   15  1   RLX: 0.081
       a =  2.000      CL =  0.4705
      Cm = -0.0634     CD =  0.07059   =>   CDf =  0.00255    CDp =  0.06804

 Side 1  free  transition at x/c =  0.0452   14
 Side 2  free  transition at x/c =  0.9187   71

  11   rms: 0.5769E+00   max: -.2538E+01   T at   14  1   RLX: 0.197
       a =  2.000      CL =  0.4263
      Cm = -0.0567     CD =  0.06074   =>   CDf =  0.00251    CDp =  0.05823

 Side 1  free  transition at x/c =  0.0510   15
 Side 2  free  transition at x/c =  0.9186   71
 idif Ue xi dudx           1  0.30330664      2.52091885E-03   120.31591    
 Uenew xinew           2  6.33950625E-03  5.26905060E-05

  12   rms: 0.6910E+00   max: -.5820E+01   T at   15  1   RLX: 0.086
       a =  2.000      CL =  0.3507
      Cm = -0.0421     CD =  0.06101   =>   CDf =  0.00284    CDp =  0.05817

 Side 1  free  transition at x/c =  0.0578   14
 Side 2  free  transition at x/c =  0.9179   72

  13   rms: 0.1491E+02   max: 0.1986E+03   T at   14  1   RLX: 0.006
       a =  2.000      CL =  0.3794
      Cm = -0.0458     CD =  0.06345   =>   CDf =  0.00260    CDp =  0.06085

 Side 1  free  transition at x/c =  0.0498   15
 Side 2  free  transition at x/c =  0.9192   71
 idif Ue xi dudx           1  0.31268087      2.57194042E-03   121.57391    
 Uenew xinew           2  1.26086837E-02  1.03712082E-04

  14   rms: 0.5876E+00   max: -.3558E+01   T at   15  1   RLX: 0.141
       a =  2.000      CL =  0.3711
      Cm = -0.0478     CD =  0.06191   =>   CDf =  0.00281    CDp =  0.05909

 Side 1  free  transition at x/c =  0.0561   14
 Side 2  free  transition at x/c =  0.9177   72

  15   rms: 0.8454E+00   max: -.9576E+01   T at   14  1   RLX: 0.052
       a =  2.000      CL =  0.3409
      Cm = -0.0437     CD =  0.06320   =>   CDf =  0.00276    CDp =  0.06044

 Side 1  free  transition at x/c =  0.0589   14
 Side 2  free  transition at x/c =  0.9171   72

  16   rms: 0.8035E+01   max: 0.7433E+02   T at   14  1   RLX: 0.007
       a =  2.000      CL =  0.3804
      Cm = -0.0480     CD =  0.06693   =>   CDf =  0.00283    CDp =  0.06410

 Side 1  free  transition at x/c =  0.0508   14
 Side 2  free  transition at x/c =  0.9175   72

  17   rms: 0.5501E+00   max: -.5435E+01   T at   14  1   RLX: 0.092
       a =  2.000      CL =  0.3762
      Cm = -0.0493     CD =  0.06792   =>   CDf =  0.00269    CDp =  0.06523

 Side 1  free  transition at x/c =  0.0537   14
 Side 2  free  transition at x/c =  0.9168   72

  18   rms: 0.6812E+00   max: -.6227E+01   T at   14  1   RLX: 0.080
       a =  2.000      CL =  0.3512
      Cm = -0.0457     CD =  0.06763   =>   CDf =  0.00277    CDp =  0.06486

 Side 1  free  transition at x/c =  0.0544   14
 Side 2  free  transition at x/c =  0.9160   72

  19   rms: 0.8734E+00   max: -.3983E+01   D at   13  1   RLX: 0.126
       a =  2.000      CL =  0.2930
      Cm = -0.0382     CD =  0.06460   =>   CDf =  0.00287    CDp =  0.06173

 Side 1  free  transition at x/c =  0.0568   14
 Side 2  free  transition at x/c =  0.9150   72

  20   rms: 0.8028E+00   max: 0.6012E+01   D at   13  1   RLX: 0.172
       a =  2.000      CL =  0.3520
      Cm = -0.0438     CD =  0.05998   =>   CDf =  0.00323    CDp =  0.05675

 Side 1  free  transition at x/c =  0.0565   14
 Side 2  free  transition at x/c =  0.9184   72

  21   rms: 0.7487E+00   max: -.3004E+01   D at   12  1   RLX: 0.166
       a =  2.000      CL =  0.3007
      Cm = -0.0363     CD =  0.06319   =>   CDf =  0.00289    CDp =  0.06029

 Side 1  free  transition at x/c =  0.0590   14
 Side 2  free  transition at x/c =  0.9180   72

  22   rms: 0.6224E+00   max: -.2135E+01   D at   38  1   RLX: 0.234
       a =  2.000      CL =  0.2708
      Cm = -0.0313     CD =  0.05747   =>   CDf =  0.00325    CDp =  0.05422

 MRCHDU: Convergence failed at  59  side 1    Res =  0.1334E+00
 MRCHDU: Convergence failed at  60  side 1    Res =  0.1123E+00
 MRCHDU: Convergence failed at  63  side 1    Res =  0.4616E+01
 MRCHDU: Convergence failed at  64  side 1    Res =  0.5287E+00
 Side 1  free  transition at x/c =  0.0604   14
 Side 2  free  transition at x/c =  0.9168   72

  23   rms: 0.6018E+00   max: 0.2393E+01   T at   15  1   RLX: 0.241
       a =  2.000      CL =  0.2276
      Cm = -0.0035     CD =  0.06132   =>   CDf =  0.00350    CDp =  0.05782

 MRCHDU: Convergence failed at  61  side 1    Res =  0.4448E-01
 Side 1  free  transition at x/c =  0.0613   14
 Side 2  free  transition at x/c =  0.9140   72

  24   rms: 0.7113E+00   max: 0.3643E+01   T at   15  1   RLX: 0.285
       a =  2.000      CL =  0.1873
      Cm = -0.0066     CD =  0.09114   =>   CDf =  0.00380    CDp =  0.08734

 MRCHDU: Convergence failed at  19  side 1    Res =  0.1347E+01
 MRCHDU: Convergence failed at  20  side 1    Res =  0.1232E+01
 MRCHDU: Convergence failed at  21  side 1    Res =  0.4303E+01
 MRCHDU: Convergence failed at  22  side 1    Res =  0.5759E+01
 MRCHDU: Convergence failed at  23  side 1    Res =  0.6863E+01
 MRCHDU: Convergence failed at  24  side 1    Res =  0.9519E+01
 MRCHDU: Convergence failed at  25  side 1    Res =  0.5212E+01
 MRCHDU: Convergence failed at  26  side 1    Res =  0.6375E+01
 MRCHDU: Convergence failed at  27  side 1    Res =  0.4868E+00
 MRCHDU: Convergence failed at  28  side 1    Res =  0.1913E+01
 MRCHDU: Convergence failed at  29  side 1    Res =  0.4578E+02
 MRCHDU: Convergence failed at  30  side 1    Res =  0.4736E+01
 MRCHDU: Convergence failed at  31  side 1    Res =  0.6196E+01
 MRCHDU: Convergence failed at  32  side 1    Res =  0.1906E+02
 MRCHDU: Convergence failed at  34  side 1    Res =  0.4224E+01
 MRCHDU: Convergence failed at  35  side 1    Res =  0.2986E+01
 MRCHDU: Convergence failed at  36  side 1    Res =  0.1909E+01
 MRCHDU: Convergence failed at  37  side 1    Res =  0.2491E+01
 MRCHDU: Convergence failed at  38  side 1    Res =  0.2296E+01
 MRCHDU: Convergence failed at  39  side 1    Res =  0.1820E+01
 MRCHDU: Convergence failed at  40  side 1    Res =  0.5021E+01
 MRCHDU: Convergence failed at  41  side 1    Res =  0.1016E+02
 MRCHDU: Convergence failed at  42  side 1    Res =  0.3165E+02
 MRCHDU: Convergence failed at  43  side 1    Res =  0.2045E+02
 MRCHDU: Convergence failed at  44  side 1    Res =  0.1201E+02
 MRCHDU: Convergence failed at  45  side 1    Res =  0.9096E+01
 MRCHDU: Convergence failed at  46  side 1    Res =  0.2600E+02
 MRCHDU: Convergence failed at  47  side 1    Res =  0.1244E+04
 MRCHDU: Convergence failed at  48  side 1    Res =  0.7172E+02
 MRCHDU: Convergence failed at  49  side 1    Res =  0.6218E+01
 MRCHDU: Convergence failed at  50  side 1    Res =  0.4402E+01
 MRCHDU: Convergence failed at  51  side 1    Res =  0.3957E+01
 MRCHDU: Convergence failed at  52  side 1    Res =  0.2026E+02
 MRCHDU: Convergence failed at  53  side 1    Res =  0.2051E+02
 MRCHDU: Convergence failed at  54  side 1    Res =  0.2846E+02
 MRCHDU: Convergence failed at  55  side 1    Res =  0.2490E+02
 MRCHDU: Convergence failed at  56  side 1    Res =  0.2285E+02
 MRCHDU: Convergence failed at  57  side 1    Res =  0.2046E+02
 MRCHDU: Convergence failed at  58  side 1    Res =  0.1689E+02
 MRCHDU: Convergence failed at  59  side 1    Res =  0.1372E+02
 MRCHDU: Convergence failed at  60  side 1    Res =  0.1474E+02
 Side 1  free  transition at x/c =  0.2832   31
 Side 2  free  transition at x/c =  0.9014   71

  25   rms: 0.6188E+00   max: -.1730E+01   D at   91  2   RLX: 0.289
       a =  2.000      CL =  0.5517
      Cm = -0.0697     CD =  0.01887   =>   CDf =  0.00361    CDp =  0.01526

 Side 1  free  transition at x/c =  0.3342   35
 Side 2  free  transition at x/c =  0.8977   70

  26   rms: 0.1574E+01   max: 0.1840E+02   T at    2  1   RLX: 0.054
       a =  2.000      CL =  0.5768
      Cm = -0.0776     CD =  0.01743   =>   CDf =  0.00605    CDp =  0.01138

 Side 1  free  transition at x/c =  0.1959   25
 Side 2  free  transition at x/c =  0.8963   70

  27   rms: 0.1460E+01   max: 0.2272E+02   C at   25  1   RLX: 0.066
       a =  2.000      CL =  0.6056
      Cm = -0.0836     CD =  0.01615   =>   CDf =  0.00669    CDp =  0.00947

 Side 1  free  transition at x/c =  0.1582   23
 Side 2  free  transition at x/c =  0.8942   70

  28   rms: 0.9825E+00   max: 0.8135E+01   C at   23  1   RLX: 0.074
       a =  2.000      CL =  0.6283
      Cm = -0.0875     CD =  0.01567   =>   CDf =  0.00699    CDp =  0.00868

 Side 1  free  transition at x/c =  0.1196   20
 Side 2  free  transition at x/c =  0.8929   70

  29   rms: 0.8721E+00   max: -.8315E+01   D at   20  1   RLX: 0.060
       a =  2.000      CL =  0.6394
      Cm = -0.0895     CD =  0.01564   =>   CDf =  0.00725    CDp =  0.00838

 Side 1  free  transition at x/c =  0.0890   18
 Side 2  free  transition at x/c =  0.8923   69

  30   rms: 0.1515E+01   max: 0.1653E+02   C at   18  1   RLX: 0.033
       a =  2.000      CL =  0.6439
      Cm = -0.0902     CD =  0.01591   =>   CDf =  0.00747    CDp =  0.00843

 Side 1  free  transition at x/c =  0.0699   16
 Side 2  free  transition at x/c =  0.8918   69

  31   rms: 0.7552E+00   max: 0.7506E+01   T at   16  1   RLX: 0.075
       a =  2.000      CL =  0.6495
      Cm = -0.0910     CD =  0.01564   =>   CDf =  0.00760    CDp =  0.00804

 Side 1  free  transition at x/c =  0.0503   15
 Side 2  free  transition at x/c =  0.8911   69

  32   rms: 0.5623E+00   max: 0.4739E+01   C at   15  1   RLX: 0.209
       a =  2.000      CL =  0.6538
      Cm = -0.0914     CD =  0.01592   =>   CDf =  0.00784    CDp =  0.00808

 Side 1  free  transition at x/c =  0.0374   14
 Side 2  free  transition at x/c =  0.8899   69

  33   rms: 0.2123E+00   max: -.1772E+01   D at   16  1   RLX: 0.282
       a =  2.000      CL =  0.6507
      Cm = -0.0923     CD =  0.01777   =>   CDf =  0.00787    CDp =  0.00990

 Side 1  free  transition at x/c =  0.0354   13
 Side 2  free  transition at x/c =  0.8898   69

  34   rms: 0.2413E+00   max: -.1464E+01   T at   14  1   RLX: 0.341
       a =  2.000      CL =  0.6431
      Cm = -0.0897     CD =  0.01558   =>   CDf =  0.00809    CDp =  0.00749

 Side 1  free  transition at x/c =  0.0328   13
 Side 2  free  transition at x/c =  0.8908   69

  35   rms: 0.1341E+00   max: -.9571E+00   D at   16  1   RLX: 0.522
       a =  2.000      CL =  0.6313
      Cm = -0.0877     CD =  0.01606   =>   CDf =  0.00758    CDp =  0.00847

 Side 1  free  transition at x/c =  0.0317   13
 Side 2  free  transition at x/c =  0.8914   69

  36   rms: 0.7134E-01   max: -.7688E+00   D at   16  1   RLX: 0.650
       a =  2.000      CL =  0.6235
      Cm = -0.0865     CD =  0.01528   =>   CDf =  0.00762    CDp =  0.00766

 Side 1  free  transition at x/c =  0.0311   13
 Side 2  free  transition at x/c =  0.8917   69

  37   rms: 0.2493E-01   max: -.3956E+00   D at   16  1
       a =  2.000      CL =  0.6179
      Cm = -0.0856     CD =  0.01510   =>   CDf =  0.00759    CDp =  0.00750

 Side 1  free  transition at x/c =  0.0305   13
 Side 2  free  transition at x/c =  0.8917   69

  38   rms: 0.4683E-02   max: -.6480E-01   D at   16  1
       a =  2.000      CL =  0.6178
      Cm = -0.0855     CD =  0.01510   =>   CDf =  0.00760    CDp =  0.00750

 Side 1  free  transition at x/c =  0.0305   13
 Side 2  free  transition at x/c =  0.8917   69

  39   rms: 0.1053E-03   max: 0.3659E-03   U at   16  1
       a =  2.000      CL =  0.6178
      Cm = -0.0855     CD =  0.01510   =>   CDf =  0.00761    CDp =  0.00750

 Side 1  free  transition at x/c =  0.0305   13
 Side 2  free  transition at x/c =  0.8917   69

  40   rms: 0.9544E-06   max: 0.4766E-05   D at    4  2
       a =  2.000      CL =  0.6178
      Cm = -0.0855     CD =  0.01510   =>   CDf =  0.00761    CDp =  0.00750
 plradd ia,ip,cpol           13           0  1.51319883E-03

 Point added to stored polar  1
 Point written to save file  sc20706_Re300k.base.pol                         
 Dump file unspecified or not available
 Calculating wake trajectory ...
 Calculating source influence matrix ...

 Solving BL system ...

 Side 1  free  transition at x/c =  0.0305   13
 Side 2  free  transition at x/c =  0.8917   69

   1   rms: 0.1277E+00   max: 0.5086E+00   T at   13  1
       a =  2.500      CL =  0.6719
      Cm = -0.0847     CD =  0.01713   =>   CDf =  0.00744    CDp =  0.00969

 Side 1  free  transition at x/c =  0.0280   14
 Side 2  free  transition at x/c =  0.9099   70

   2   rms: 0.2640E-01   max: 0.3324E+00   D at   70  2
       a =  2.500      CL =  0.6668
      Cm = -0.0833     CD =  0.01737   =>   CDf =  0.00740    CDp =  0.00997

 Side 1  free  transition at x/c =  0.0280   14
 Side 2  free  transition at x/c =  0.9069   70

   3   rms: 0.5114E-02   max: 0.4413E-01   D at   70  2
       a =  2.500      CL =  0.6663
      Cm = -0.0832     CD =  0.01730   =>   CDf =  0.00739    CDp =  0.00991

 Side 1  free  transition at x/c =  0.0280   14
 Side 2  free  transition at x/c =  0.9064   70

   4   rms: 0.1116E-03   max: 0.8552E-03   D at   14  1
       a =  2.500      CL =  0.6662
      Cm = -0.0832     CD =  0.01730   =>   CDf =  0.00739    CDp =  0.00991

 Side 1  free  transition at x/c =  0.0280   14
 Side 2  free  transition at x/c =  0.9064   70

   5   rms: 0.1044E-05   max: 0.2596E-05   T at   71  2
       a =  2.500      CL =  0.6662
      Cm = -0.0832     CD =  0.01730   =>   CDf =  0.00739    CDp =  0.00991
 plradd ia,ip,cpol           14           0  1.51319883E-03

 Point added to stored polar  1
 Point written to save file  sc20706_Re300k.base.pol                         
 Dump file unspecified or not available
 Calculating wake trajectory ...
 Calculating source influence matrix ...

 Solving BL system ...

 Side 1  free  transition at x/c =  0.0280   14
 Side 2  free  transition at x/c =  0.9064   70

   1   rms: 0.1311E+00   max: 0.4361E+00   D at   17  1
       a =  3.000      CL =  0.7097
      Cm = -0.0793     CD =  0.01984   =>   CDf =  0.00739    CDp =  0.01245

 Side 1  free  transition at x/c =  0.0273   14
 Side 2  free  transition at x/c =  0.9180   70

   2   rms: 0.5151E-01   max: -.3267E+00   D at   72  2
       a =  3.000      CL =  0.7175
      Cm = -0.0818     CD =  0.01986   =>   CDf =  0.00695    CDp =  0.01291

 Side 1  free  transition at x/c =  0.0259   14
 Side 2  free  transition at x/c =  0.9224   71

   3   rms: 0.9187E-02   max: 0.1028E+00   D at   71  2
       a =  3.000      CL =  0.7143
      Cm = -0.0809     CD =  0.02012   =>   CDf =  0.00708    CDp =  0.01304

 Side 1  free  transition at x/c =  0.0261   14
 Side 2  free  transition at x/c =  0.9212   71

   4   rms: 0.1824E-02   max: 0.1235E-01   D at   14  1
       a =  3.000      CL =  0.7142
      Cm = -0.0808     CD =  0.02012   =>   CDf =  0.00711    CDp =  0.01302

 Side 1  free  transition at x/c =  0.0261   14
 Side 2  free  transition at x/c =  0.9211   71

   5   rms: 0.1986E-04   max: 0.1667E-03   D at   14  1
       a =  3.000      CL =  0.7142
      Cm = -0.0808     CD =  0.02012   =>   CDf =  0.00710    CDp =  0.01302
 plradd ia,ip,cpol           15           0  1.51319883E-03

 Point added to stored polar  1
 Point written to save file  sc20706_Re300k.base.pol                         
 Dump file unspecified or not available
 Calculating wake trajectory ...
 Calculating source influence matrix ...

 Solving BL system ...

 Side 1  free  transition at x/c =  0.0261   14
 Side 2  free  transition at x/c =  0.9211   71

   1   rms: 0.1654E+00   max: 0.7440E+00   T at   14  1
       a =  3.500      CL =  0.7548
      Cm = -0.0774     CD =  0.02455   =>   CDf =  0.00710    CDp =  0.01744

 MRCHDU: Convergence failed at  14  side 1    Res =  0.3463E+01
 MRCHDU: Convergence failed at  15  side 1    Res =  0.6663E+02
 MRCHDU: Convergence failed at  16  side 1    Res =  0.4967E+02
 MRCHDU: Convergence failed at  17  side 1    Res =  0.3256E+02
 MRCHDU: Convergence failed at  18  side 1    Res =  0.2796E+02
 MRCHDU: Convergence failed at  19  side 1    Res =  0.3419E+02
 MRCHDU: Convergence failed at  20  side 1    Res =  0.3756E+02
 MRCHDU: Convergence failed at  21  side 1    Res =  0.7672E+02
 MRCHDU: Convergence failed at  22  side 1    Res =  0.4754E+02
 MRCHDU: Convergence failed at  23  side 1    Res =  0.7975E+02
 MRCHDU: Convergence failed at  24  side 1    Res =  0.8305E+02
 MRCHDU: Convergence failed at  25  side 1    Res =  0.8434E+02
 MRCHDU: Convergence failed at  26  side 1    Res =  0.8381E+02
 MRCHDU: Convergence failed at  27  side 1    Res =  0.8864E+02
 MRCHDU: Convergence failed at  28  side 1    Res =  0.9038E+02
 MRCHDU: Convergence failed at  29  side 1    Res =  0.8981E+02
 MRCHDU: Convergence failed at  30  side 1    Res =  0.9376E+02
 MRCHDU: Convergence failed at  31  side 1    Res =  0.9466E+02
 MRCHDU: Convergence failed at  32  side 1    Res =  0.9337E+02
 MRCHDU: Convergence failed at  33  side 1    Res =  0.9723E+02
 MRCHDU: Convergence failed at  34  side 1    Res =  0.9764E+02
 MRCHDU: Convergence failed at  35  side 1    Res =  0.9808E+02
 MRCHDU: Convergence failed at  36  side 1    Res =  0.1375E+03
 MRCHDU: Convergence failed at  37  side 1    Res =  0.8774E+02
 MRCHDU: Convergence failed at  38  side 1    Res =  0.8861E+02
 MRCHDU: Convergence failed at  39  side 1    Res =  0.8580E+02
 MRCHDU: Convergence failed at  40  side 1    Res =  0.8548E+02
 MRCHDU: Convergence failed at  41  side 1    Res =  0.8666E+02
 MRCHDU: Convergence failed at  42  side 1    Res =  0.8877E+02
 MRCHDU: Convergence failed at  43  side 1    Res =  0.8963E+02
 MRCHDU: Convergence failed at  44  side 1    Res =  0.9028E+02
 MRCHDU: Convergence failed at  45  side 1    Res =  0.9000E+02
 MRCHDU: Convergence failed at  46  side 1    Res =  0.9105E+02
 MRCHDU: Convergence failed at  47  side 1    Res =  0.9323E+02
 MRCHDU: Convergence failed at  48  side 1    Res =  0.9405E+02
 MRCHDU: Convergence failed at  49  side 1    Res =  0.9622E+02
 MRCHDU: Convergence failed at  50  side 1    Res =  0.9441E+02
 MRCHDU: Convergence failed at  51  side 1    Res =  0.9917E+02
 MRCHDU: Convergence failed at  52  side 1    Res =  0.1001E+03
 MRCHDU: Convergence failed at  53  side 1    Res =  0.1013E+03
 MRCHDU: Convergence failed at  54  side 1    Res =  0.1030E+03
 MRCHDU: Convergence failed at  55  side 1    Res =  0.1034E+03
 MRCHDU: Convergence failed at  56  side 1    Res =  0.1090E+03
 MRCHDU: Convergence failed at  57  side 1    Res =  0.1100E+03
 MRCHDU: Convergence failed at  58  side 1    Res =  0.1114E+03
 MRCHDU: Convergence failed at  59  side 1    Res =  0.1114E+03
 MRCHDU: Convergence failed at  60  side 1    Res =  0.1147E+03
 MRCHDU: Convergence failed at  61  side 1    Res =  0.1159E+03
 MRCHDU: Convergence failed at  62  side 1    Res =  0.1171E+03
 MRCHDU: Convergence failed at  63  side 1    Res =  0.1176E+03
 MRCHDU: Convergence failed at  64  side 1    Res =  0.1194E+03
 MRCHDU: Convergence failed at  65  side 1    Res =  0.1215E+03
 MRCHDU: Convergence failed at  66  side 1    Res =  0.1216E+03
 MRCHDU: Convergence failed at  67  side 1    Res =  0.1242E+03
 MRCHDU: Convergence failed at  68  side 1    Res =  0.1262E+03
 MRCHDU: Convergence failed at  69  side 1    Res =  0.1262E+03
 MRCHDU: Convergence failed at  70  side 1    Res =  0.1292E+03
 MRCHDU: Convergence failed at  71  side 1    Res =  0.1307E+03
 MRCHDU: Convergence failed at  72  side 1    Res =  0.1336E+03
 MRCHDU: Convergence failed at  73  side 1    Res =  0.1378E+03
 MRCHDU: Convergence failed at  74  side 1    Res =  0.1401E+03
 MRCHDU: Convergence failed at  75  side 1    Res =  0.1468E+03
 MRCHDU: Convergence failed at  76  side 1    Res =  0.1615E+03
 MRCHDU: Convergence failed at  77  side 1    Res =  0.1842E+03
 MRCHDU: Convergence failed at  78  side 1    Res =  0.6438E+03
 MRCHDU: Convergence failed at  79  side 1    Res =  0.9404E+03
 MRCHDU: Convergence failed at  80  side 1    Res =  0.1953E+04
 MRCHDU: Convergence failed at  81  side 1    Res =  0.2883E+04
 MRCHDU: Convergence failed at  82  side 1    Res =  0.9862E+03
 MRCHDU: Convergence failed at  83  side 1    Res =  0.5864E+03
 MRCHDU: Convergence failed at  84  side 1    Res =  0.4410E+03
 MRCHDU: Convergence failed at  85  side 1    Res =  0.4338E+03
 Side 1  free  transition at x/c =  0.0254   14
 Side 2  free  transition at x/c =  0.9348   72

   2   rms: 0.2026E+01   max: 0.1211E+02   D at   80  2   RLX: 0.124
       a =  3.500      CL =  2.5992
      Cm = -0.6314     CD =  0.00566   =>   CDf =  0.00133    CDp =  0.00433

 Side 1  free  transition at x/c =  0.0267   14
 Side 2  free  transition at x/c =  0.9408   72

   3   rms: 0.5781E+01   max: 0.7473E+02   T at   14  1   RLX: 0.020
       a =  3.500      CL =  1.8668
      Cm = -0.3968     CD =  0.08311   =>   CDf =  0.00199    CDp =  0.08112

 Side 1  free  transition at x/c =  0.0240   13
 Side 2  free  transition at x/c =  0.9456   72

   4   rms: 0.7781E+00   max: -.6158E+01   T at   72  2   RLX: 0.081
       a =  3.500      CL =  1.9053
      Cm = -0.4052     CD =  0.08541   =>   CDf =  0.00171    CDp =  0.08371

 Side 1  free  transition at x/c =  0.0241   14
 Side 2  free  transition at x/c =  0.9728   74
 idif Ue xi dudx           1  0.23211136      4.53555584E-03   51.175945    
 Uenew xinew           2  1.46415550E-04  2.86102295E-06

   5   rms: 0.3736E+01   max: -.6063E+02   T at    2  1   RLX: 0.008
       a =  3.500      CL =  1.8895
      Cm = -0.3999     CD =  0.10583   =>   CDf =  0.00228    CDp =  0.10355

 Side 1  free  transition at x/c =  0.0241   13
 Side 2  free  transition at x/c =  0.9770   75

   6   rms: 0.6425E+01   max: -.1060E+03   T at    2  2   RLX: 0.005
       a =  3.500      CL =  1.8828
      Cm = -0.3980     CD =  0.10726   =>   CDf =  0.00202    CDp =  0.10524

 Side 1  free  transition at x/c =  0.0241   13
 Side 2  free  transition at x/c =  0.9796   75

   7   rms: 0.5870E+01   max: -.1079E+03   C at   75  2   RLX: 0.005
       a =  3.500      CL =  1.8763
      Cm = -0.3963     CD =  0.10773   =>   CDf =  0.00202    CDp =  0.10571

 Side 1  free  transition at x/c =  0.0241   13
 Side 2  free  transition at x/c =  0.9829   75

   8   rms: 0.1662E+02   max: -.2817E+03   C at   75  2   RLX: 0.002
       a =  3.500      CL =  1.8737
      Cm = -0.3955     CD =  0.10874   =>   CDf =  0.00202    CDp =  0.10673

 Side 1  free  transition at x/c =  0.0241   13
 Side 2  free  transition at x/c =  0.9836   75

   9   rms: 0.2092E+02   max: -.3455E+03   C at   75  2   RLX: 0.001
       a =  3.500      CL =  1.8717
      Cm = -0.3950     CD =  0.10899   =>   CDf =  0.00202    CDp =  0.10698

 Side 1  free  transition at x/c =  0.0241   13
 Side 2  free  transition at x/c =  0.9807   75

  10   rms: 0.8637E+00   max: -.6621E+01   T at   75  2   RLX: 0.076
       a =  3.500      CL =  1.7885
      Cm = -0.3738     CD =  0.09749   =>   CDf =  0.00206    CDp =  0.09543

 MRCHDU: Convergence failed at  77  side 2    Res =  0.6531E+02
 Side 1  free  transition at x/c =  0.0242   13
 Side 2 forced transition at x/c =  1.0000   77

  11   rms: 0.4363E+01   max: -.3927E+02   C at   77  2   RLX: 0.013
       a =  3.500      CL =  1.7445
      Cm = -0.3632     CD =  0.11509   =>   CDf =  0.00199    CDp =  0.11310

 Side 1  free  transition at x/c =  0.0242   13
 Side 2 forced transition at x/c =  1.0000   77

  12   rms: 0.1654E+01   max: -.1984E+02   C at   77  2   RLX: 0.025
       a =  3.500      CL =  1.6970
      Cm = -0.3508     CD =  0.11284   =>   CDf =  0.00208    CDp =  0.11076

 Side 1  free  transition at x/c =  0.0242   13
 Side 2 forced transition at x/c =  1.0000   77

  13   rms: 0.8109E+00   max: -.7085E+01   C at   77  2   RLX: 0.071
       a =  3.500      CL =  1.6082
      Cm = -0.3272     CD =  0.10626   =>   CDf =  0.00217    CDp =  0.10409

 Side 1  free  transition at x/c =  0.0242   13
 Side 2 forced transition at x/c =  1.0000   77

  14   rms: 0.6663E+00   max: -.2573E+01   C at   77  2   RLX: 0.194
       a =  3.500      CL =  1.4053
      Cm = -0.2741     CD =  0.08854   =>   CDf =  0.00225    CDp =  0.08629

 Side 1  free  transition at x/c =  0.0245   13
 Side 2 forced transition at x/c =  1.0000   77

  15   rms: 0.5668E+00   max: -.1547E+01   T at   99  2   RLX: 0.323
       a =  3.500      CL =  1.0623
      Cm = -0.1812     CD =  0.07036   =>   CDf =  0.00237    CDp =  0.06800

 MRCHDU: Convergence failed at  14  side 1    Res =  0.2450E+01
 MRCHDU: Convergence failed at  15  side 1    Res =  0.1168E+02
 MRCHDU: Convergence failed at  16  side 1    Res =  0.1279E+02
 MRCHDU: Convergence failed at  17  side 1    Res =  0.4224E+02
 MRCHDU: Convergence failed at  18  side 1    Res =  0.5324E+02
 MRCHDU: Convergence failed at  19  side 1    Res =  0.1962E+02
 MRCHDU: Convergence failed at  20  side 1    Res =  0.1001E+02
 MRCHDU: Convergence failed at  21  side 1    Res =  0.1279E+02
 MRCHDU: Convergence failed at  22  side 1    Res =  0.1508E+02
 MRCHDU: Convergence failed at  23  side 1    Res =  0.2532E+02
 MRCHDU: Convergence failed at  24  side 1    Res =  0.2833E+02
 MRCHDU: Convergence failed at  25  side 1    Res =  0.8163E+02
 MRCHDU: Convergence failed at  26  side 1    Res =  0.3621E+04
 MRCHDU: Convergence failed at  27  side 1    Res =  0.1078E+03
 MRCHDU: Convergence failed at  28  side 1    Res =  0.4197E+02
 MRCHDU: Convergence failed at  29  side 1    Res =  0.3408E+02
 MRCHDU: Convergence failed at  30  side 1    Res =  0.2523E+02
 MRCHDU: Convergence failed at  31  side 1    Res =  0.1969E+02
 MRCHDU: Convergence failed at  32  side 1    Res =  0.1709E+02
 MRCHDU: Convergence failed at  33  side 1    Res =  0.1051E+02
 MRCHDU: Convergence failed at  34  side 1    Res =  0.1295E+02
 MRCHDU: Convergence failed at  35  side 1    Res =  0.1398E+02
 MRCHDU: Convergence failed at  36  side 1    Res =  0.1507E+02
 MRCHDU: Convergence failed at  37  side 1    Res =  0.1693E+02
 MRCHDU: Convergence failed at  38  side 1    Res =  0.2255E+02
 MRCHDU: Convergence failed at  39  side 1    Res =  0.2552E+02
 MRCHDU: Convergence failed at  40  side 1    Res =  0.2972E+02
 MRCHDU: Convergence failed at  41  side 1    Res =  0.3778E+02
 MRCHDU: Convergence failed at  42  side 1    Res =  0.7453E+02
 MRCHDU: Convergence failed at  43  side 1    Res =  0.1314E+03
 MRCHDU: Convergence failed at  44  side 1    Res =  0.2869E+04
 MRCHDU: Convergence failed at  45  side 1    Res =  0.9049E+02
 MRCHDU: Convergence failed at  46  side 1    Res =  0.5835E+02
 MRCHDU: Convergence failed at  47  side 1    Res =  0.4149E+02
 MRCHDU: Convergence failed at  48  side 1    Res =  0.3100E+02
 MRCHDU: Convergence failed at  49  side 1    Res =  0.2341E+02
 MRCHDU: Convergence failed at  50  side 1    Res =  0.2032E+02
 MRCHDU: Convergence failed at  51  side 1    Res =  0.1761E+02
 MRCHDU: Convergence failed at  52  side 1    Res =  0.1629E+02
 MRCHDU: Convergence failed at  53  side 1    Res =  0.1717E+02
 MRCHDU: Convergence failed at  54  side 1    Res =  0.1842E+02
 MRCHDU: Convergence failed at  55  side 1    Res =  0.2015E+02
 MRCHDU: Convergence failed at  56  side 1    Res =  0.2752E+02
 MRCHDU: Convergence failed at  57  side 1    Res =  0.3210E+02
 MRCHDU: Convergence failed at  58  side 1    Res =  0.3259E+02
 MRCHDU: Convergence failed at  59  side 1    Res =  0.5601E+02
 MRCHDU: Convergence failed at  60  side 1    Res =  0.8283E+02
 MRCHDU: Convergence failed at  61  side 1    Res =  0.1511E+04
 MRCHDU: Convergence failed at  62  side 1    Res =  0.8782E+02
 MRCHDU: Convergence failed at  63  side 1    Res =  0.5944E+02
 MRCHDU: Convergence failed at  64  side 1    Res =  0.4563E+02
 MRCHDU: Convergence failed at  65  side 1    Res =  0.3416E+02
 MRCHDU: Convergence failed at  66  side 1    Res =  0.2593E+02
 MRCHDU: Convergence failed at  67  side 1    Res =  0.2129E+02
 MRCHDU: Convergence failed at  68  side 1    Res =  0.1509E+02
 MRCHDU: Convergence failed at  69  side 1    Res =  0.1785E+02
 MRCHDU: Convergence failed at  70  side 1    Res =  0.2189E+02
 MRCHDU: Convergence failed at  71  side 1    Res =  0.2417E+02
 MRCHDU: Convergence failed at  72  side 1    Res =  0.3015E+02
 MRCHDU: Convergence failed at  73  side 1    Res =  0.3792E+02
 MRCHDU: Convergence failed at  74  side 1    Res =  0.3824E+02
 MRCHDU: Convergence failed at  75  side 1    Res =  0.5449E+02
 MRCHDU: Convergence failed at  76  side 1    Res =  0.1100E+03
 MRCHDU: Convergence failed at  77  side 1    Res =  0.2132E+03
 MRCHDU: Convergence failed at  78  side 1    Res =  0.1710E+03
 MRCHDU: Convergence failed at  79  side 1    Res =  0.5811E+02
 MRCHDU: Convergence failed at  80  side 1    Res =  0.4289E+02
 MRCHDU: Convergence failed at  81  side 1    Res =  0.3129E+02
 MRCHDU: Convergence failed at  82  side 1    Res =  0.2441E+02
 MRCHDU: Convergence failed at  83  side 1    Res =  0.2104E+02
 MRCHDU: Convergence failed at  84  side 1    Res =  0.1948E+02
 MRCHDU: Convergence failed at  85  side 1    Res =  0.1991E+02
 MRCHDU: Convergence failed at  91  side 2    Res =  0.2511E+01
 MRCHDU: Convergence failed at  92  side 2    Res =  0.5570E+01
 MRCHDU: Convergence failed at  93  side 2    Res =  0.3076E+01
 MRCHDU: Convergence failed at  94  side 2    Res =  0.1271E+01
 MRCHDU: Convergence failed at  95  side 2    Res =  0.3197E+01
 Side 1  free  transition at x/c =  0.0253   14
 Side 2 forced transition at x/c =  1.0000   77

  16   rms: 0.1462E+01   max: 0.3101E+01   D at   81  2   RLX: 0.183
       a =  3.500      CL =  2.3231
      Cm = -0.5486     CD =  0.01110   =>   CDf =  0.00176    CDp =  0.00934

 MRCHDU: Convergence failed at  44  side 1    Res =  0.2470E+00
 MRCHDU: Convergence failed at  45  side 1    Res =  0.2334E+00
 MRCHDU: Convergence failed at  46  side 1    Res =  0.2125E+00
 MRCHDU: Convergence failed at  47  side 1    Res =  0.1968E+00
 MRCHDU: Convergence failed at  48  side 1    Res =  0.1829E+00
 MRCHDU: Convergence failed at  49  side 1    Res =  0.1656E+00
 MRCHDU: Convergence failed at  50  side 1    Res =  0.1433E+00
 MRCHDU: Convergence failed at  51  side 1    Res =  0.1167E+00
 MRCHDU: Convergence failed at  52  side 1    Res =  0.1013E+00
 MRCHDU: Convergence failed at  53  side 1    Res =  0.8135E-01
 MRCHDU: Convergence failed at  54  side 1    Res =  0.3966E-02
 MRCHDU: Convergence failed at  89  side 2    Res =  0.1561E+01
 Side 1  free  transition at x/c =  0.0268   14
 Side 2 forced transition at x/c =  1.0000   77

  17   rms: 0.6499E+00   max: -.9585E+00   C at   98  2   RLX: 0.298
       a =  3.500      CL =  1.3581
      Cm = -0.3171     CD =  0.06013   =>   CDf =  0.00277    CDp =  0.05736

 MRCHDU: Convergence failed at  53  side 1    Res =  0.1906E+00
 MRCHDU: Convergence failed at  54  side 1    Res =  0.7277E+00
 MRCHDU: Convergence failed at  55  side 1    Res =  0.1384E+00
 MRCHDU: Convergence failed at  56  side 1    Res =  0.7110E-01
 MRCHDU: Convergence failed at  57  side 1    Res =  0.6212E+00
 MRCHDU: Convergence failed at  58  side 1    Res =  0.3287E+01
 MRCHDU: Convergence failed at  59  side 1    Res =  0.3719E+01
 MRCHDU: Convergence failed at  60  side 1    Res =  0.5131E+00
 Side 1  free  transition at x/c =  0.0280   14
 Side 2 forced transition at x/c =  1.0000   77

  18   rms: 0.4564E+00   max: -.9740E+00   T at   99  2   RLX: 0.513
       a =  3.500      CL =  0.8349
      Cm = -0.1233     CD =  0.05202   =>   CDf =  0.00303    CDp =  0.04899

 MRCHDU: Convergence failed at  56  side 1    Res =  0.1158E+00
 MRCHDU: Convergence failed at  57  side 1    Res =  0.6452E-01
 Side 1  free  transition at x/c =  0.0291   14
 Side 2 forced transition at x/c =  1.0000   77

  19   rms: 0.6996E+00   max: -.3451E+01   D at   57  1   RLX: 0.145
       a =  3.500      CL =  0.7154
      Cm = -0.0909     CD =  0.07049   =>   CDf =  0.00279    CDp =  0.06769

 MRCHDU: Convergence failed at  57  side 1    Res =  0.2426E+00
 MRCHDU: Convergence failed at  58  side 1    Res =  0.1710E+00
 MRCHDU: Convergence failed at  59  side 1    Res =  0.1461E+00
 MRCHDU: Convergence failed at  60  side 1    Res =  0.1361E+00
 Side 1  free  transition at x/c =  0.0279   14
 Side 2 forced transition at x/c =  1.0000   77

  20   rms: 0.7550E+00   max: -.2237E+01   D at   45  1   RLX: 0.224
       a =  3.500      CL =  0.6352
      Cm = -0.0166     CD =  0.06430   =>   CDf =  0.00231    CDp =  0.06199

 Side 1  free  transition at x/c =  0.0260   14
 Side 2 forced transition at x/c =  1.0000   77

  21   rms: 0.4488E+00   max: -.2340E+01   T at   14  1   RLX: 0.214
       a =  3.500      CL =  0.6721
      Cm = -0.0227     CD =  0.07503   =>   CDf =  0.00232    CDp =  0.07272

 Side 1  free  transition at x/c =  0.0313   14
 Side 2 forced transition at x/c =  1.0000   77

  22   rms: 0.6748E+00   max: -.2276E+01   D at   60  1   RLX: 0.220
       a =  3.500      CL =  0.7059
      Cm = -0.0202     CD =  0.05764   =>   CDf =  0.00232    CDp =  0.05532

 Side 1  free  transition at x/c =  0.0344   14
 Side 2 forced transition at x/c =  1.0000   77

  23   rms: 0.2276E+01   max: 0.1078E+02   T at   15  1   RLX: 0.056
       a =  3.500      CL =  0.7535
      Cm = -0.0183     CD =  0.06753   =>   CDf =  0.00245    CDp =  0.06508

 MRCHDU: Convergence failed at  62  side 1    Res =  0.1030E+01
 MRCHDU: Convergence failed at  63  side 1    Res =  0.1177E+01
 MRCHDU: Convergence failed at  64  side 1    Res =  0.1681E+01
 MRCHDU: Convergence failed at  65  side 1    Res =  0.1975E+01
 MRCHDU: Convergence failed at  66  side 1    Res =  0.2781E+01
 MRCHDU: Convergence failed at  67  side 1    Res =  0.7855E+01
 MRCHDU: Convergence failed at  68  side 1    Res =  0.9807E+01
 MRCHDU: Convergence failed at  69  side 1    Res =  0.1192E+01
 Side 1  free  transition at x/c =  0.0361   15
 Side 2 forced transition at x/c =  1.0000   77

  24   rms: 0.2984E+02   max: 0.1291E+03   T at   15  1   RLX: 0.012
       a =  3.500      CL =  0.7732
      Cm = -0.0480     CD =  0.12155   =>   CDf =  0.00248    CDp =  0.11907

 MRCHDU: Convergence failed at  15  side 1    Res =  0.9550E+00
 Side 1  free  transition at x/c =  0.0355   14
 Side 2 forced transition at x/c =  1.0000   77

  25   rms: 0.5417E+00   max: 0.4679E+01   D at   16  1   RLX: 0.321
       a =  3.500      CL =  0.7585
      Cm = -0.0575     CD =  0.01596   =>   CDf =  0.00717    CDp =  0.00879

 Side 1  free  transition at x/c =  0.0357   14
 Side 2  free  transition at x/c =  0.9637   74

  26   rms: 0.4706E+00   max: 0.2800E+01   T at   15  1   RLX: 0.466
       a =  3.500      CL =  0.8042
      Cm = -0.0679     CD =  0.10058   =>   CDf =  0.00444    CDp =  0.09614

 MRCHDU: Convergence failed at  17  side 1    Res =  0.6707E+02
 MRCHDU: Convergence failed at  18  side 1    Res =  0.3803E+02
 MRCHDU: Convergence failed at  19  side 1    Res =  0.9112E+03
 MRCHDU: Convergence failed at  20  side 1    Res =  0.1276E+03
 MRCHDU: Convergence failed at  21  side 1    Res =  0.7522E+02
 MRCHDU: Convergence failed at  22  side 1    Res =  0.5754E+02
 MRCHDU: Convergence failed at  23  side 1    Res =  0.5592E+02
 MRCHDU: Convergence failed at  24  side 1    Res =  0.5757E+02
 MRCHDU: Convergence failed at  25  side 1    Res =  0.6129E+02
 MRCHDU: Convergence failed at  26  side 1    Res =  0.6319E+02
 MRCHDU: Convergence failed at  27  side 1    Res =  0.6463E+02
 MRCHDU: Convergence failed at  28  side 1    Res =  0.6503E+02
 MRCHDU: Convergence failed at  29  side 1    Res =  0.6667E+02
 MRCHDU: Convergence failed at  30  side 1    Res =  0.7061E+02
 MRCHDU: Convergence failed at  31  side 1    Res =  0.7319E+02
 MRCHDU: Convergence failed at  32  side 1    Res =  0.7722E+02
 MRCHDU: Convergence failed at  33  side 1    Res =  0.9245E+02
[...]
 MRCHDU: Convergence failed at  32  side 1    Res =  0.4119E-02
 MRCHDU: Convergence failed at  33  side 1    Res =  0.4261E-02
 MRCHDU: Convergence failed at  34  side 1    Res =  0.4393E-02
 MRCHDU: Convergence failed at  35  side 1    Res =  0.4550E-02
 MRCHDU: Convergence failed at  36  side 1    Res =  0.4652E-02
 MRCHDU: Convergence failed at  37  side 1    Res =  0.4901E-02
 MRCHDU: Convergence failed at  38  side 1    Res =  0.5165E-02
 MRCHDU: Convergence failed at  39  side 1    Res =  0.5075E-02
 MRCHDU: Convergence failed at  40  side 1    Res =  0.4526E-02
 MRCHDU: Convergence failed at  41  side 1    Res =  0.4332E-02
 MRCHDU: Convergence failed at  42  side 1    Res =  0.4246E-02
 MRCHDU: Convergence failed at  43  side 1    Res =  0.3957E-02
 MRCHDU: Convergence failed at  44  side 1    Res =  0.3960E-02
 MRCHDU: Convergence failed at  45  side 1    Res =  0.4252E-02
 MRCHDU: Convergence failed at  46  side 1    Res =  0.4811E-02
 MRCHDU: Convergence failed at  47  side 1    Res =  0.4720E-02
 MRCHDU: Convergence failed at  48  side 1    Res =  0.4558E-02
 MRCHDU: Convergence failed at  49  side 1    Res =  0.5378E-02
 MRCHDU: Convergence failed at  50  side 1    Res =  0.7096E-02
 MRCHDU: Convergence failed at  51  side 1    Res =  0.8527E-02
 MRCHDU: Convergence failed at  52  side 1    Res =  0.1402E-01
 MRCHDU: Convergence failed at  53  side 1    Res =  0.3238E-01
 MRCHDU: Convergence failed at  54  side 1    Res =  0.1235E-01
 MRCHDU: Convergence failed at  55  side 1    Res =  0.1938E-04
 MRCHDU: Convergence failed at  56  side 1    Res =  0.1319E-03
 Side 1  free  transition at x/c =  0.0389   14
 Side 2 forced transition at x/c =  1.0000   78

 147   rms: 0.1355E+11   max: -.3289E+12   T at   63  1   RLX: 0.000
       a =  4.000      CL =  0.8611
      Cm = -0.1944     CD =+Infinity   =>   CDf =  0.00244    CDp =+Infinity

 MRCHDU: Convergence failed at  17  side 1    Res =  0.2243E-01
 MRCHDU: Convergence failed at  18  side 1    Res =  0.1291E-01
 MRCHDU: Convergence failed at  19  side 1    Res =  0.4517E-02
 MRCHDU: Convergence failed at  20  side 1    Res =  0.7467E-02
 MRCHDU: Convergence failed at  21  side 1    Res =  0.5992E-02
 MRCHDU: Convergence failed at  22  side 1    Res =  0.5332E-02
 MRCHDU: Convergence failed at  23  side 1    Res =  0.5219E-02
 MRCHDU: Convergence failed at  24  side 1    Res =  0.5582E-02
 MRCHDU: Convergence failed at  25  side 1    Res =  0.6056E-02
 MRCHDU: Convergence failed at  26  side 1    Res =  0.4716E-02
 MRCHDU: Convergence failed at  27  side 1    Res =  0.4664E-02
 MRCHDU: Convergence failed at  28  side 1    Res =  0.4406E-02
 MRCHDU: Convergence failed at  29  side 1    Res =  0.4166E-02
 MRCHDU: Convergence failed at  30  side 1    Res =  0.4074E-02
 MRCHDU: Convergence failed at  31  side 1    Res =  0.3983E-02
 MRCHDU: Convergence failed at  32  side 1    Res =  0.4119E-02
 MRCHDU: Convergence failed at  33  side 1    Res =  0.4261E-02
 MRCHDU: Convergence failed at  34  side 1    Res =  0.4393E-02
 MRCHDU: Convergence failed at  35  side 1    Res =  0.4550E-02
 MRCHDU: Convergence failed at  36  side 1    Res =  0.4652E-02
 MRCHDU: Convergence failed at  37  side 1    Res =  0.4901E-02
 MRCHDU: Convergence failed at  38  side 1    Res =  0.5165E-02
 MRCHDU: Convergence failed at  39  side 1    Res =  0.5076E-02
 MRCHDU: Convergence failed at  40  side 1    Res =  0.4526E-02
 MRCHDU: Convergence failed at  41  side 1    Res =  0.4332E-02
 MRCHDU: Convergence failed at  42  side 1    Res =  0.4246E-02
 MRCHDU: Convergence failed at  43  side 1    Res =  0.3957E-02
 MRCHDU: Convergence failed at  44  side 1    Res =  0.3960E-02
 MRCHDU: Convergence failed at  45  side 1    Res =  0.4252E-02
 MRCHDU: Convergence failed at  46  side 1    Res =  0.4811E-02
 MRCHDU: Convergence failed at  47  side 1    Res =  0.4720E-02
 MRCHDU: Convergence failed at  48  side 1    Res =  0.4558E-02
 MRCHDU: Convergence failed at  49  side 1    Res =  0.5378E-02
 MRCHDU: Convergence failed at  50  side 1    Res =  0.7096E-02
 MRCHDU: Convergence failed at  51  side 1    Res =  0.8528E-02
 MRCHDU: Convergence failed at  52  side 1    Res =  0.1402E-01
 MRCHDU: Convergence failed at  53  side 1    Res =  0.3238E-01
 MRCHDU: Convergence failed at  54  side 1    Res =  0.1235E-01
 MRCHDU: Convergence failed at  55  side 1    Res =  0.1939E-04
 MRCHDU: Convergence failed at  56  side 1    Res =  0.1320E-03
 Side 1  free  transition at x/c =  0.0389   14
 Side 2 forced transition at x/c =  1.0000   78

 148   rms: 0.9842E+12   max: -.2653E+14   T at  100  2   RLX: 0.000
       a =  4.000      CL =  0.8611
      Cm = -0.1944     CD =+Infinity   =>   CDf =  0.00244    CDp =+Infinity

 MRCHDU: Convergence failed at  17  side 1    Res =  0.2243E-01
 MRCHDU: Convergence failed at  18  side 1    Res =  0.1291E-01
 MRCHDU: Convergence failed at  19  side 1    Res =  0.4517E-02
 MRCHDU: Convergence failed at  20  side 1    Res =  0.7467E-02
 MRCHDU: Convergence failed at  21  side 1    Res =  0.5992E-02
 MRCHDU: Convergence failed at  22  side 1    Res =  0.5332E-02
 MRCHDU: Convergence failed at  23  side 1    Res =  0.5219E-02
 MRCHDU: Convergence failed at  24  side 1    Res =  0.5582E-02
 MRCHDU: Convergence failed at  25  side 1    Res =  0.6056E-02
 MRCHDU: Convergence failed at  26  side 1    Res =  0.4716E-02
 MRCHDU: Convergence failed at  27  side 1    Res =  0.4664E-02
 MRCHDU: Convergence failed at  28  side 1    Res =  0.4406E-02
 MRCHDU: Convergence failed at  29  side 1    Res =  0.4166E-02
 MRCHDU: Convergence failed at  30  side 1    Res =  0.4074E-02
 MRCHDU: Convergence failed at  31  side 1    Res =  0.3983E-02
 MRCHDU: Convergence failed at  32  side 1    Res =  0.4119E-02
 MRCHDU: Convergence failed at  33  side 1    Res =  0.4261E-02
 MRCHDU: Convergence failed at  34  side 1    Res =  0.4393E-02
 MRCHDU: Convergence failed at  35  side 1    Res =  0.4550E-02
 MRCHDU: Convergence failed at  36  side 1    Res =  0.4652E-02
 MRCHDU: Convergence failed at  37  side 1    Res =  0.4901E-02
 MRCHDU: Convergence failed at  38  side 1    Res =  0.5165E-02
 MRCHDU: Convergence failed at  39  side 1    Res =  0.5076E-02
 MRCHDU: Convergence failed at  40  side 1    Res =  0.4526E-02
 MRCHDU: Convergence failed at  41  side 1    Res =  0.4332E-02
 MRCHDU: Convergence failed at  42  side 1    Res =  0.4246E-02
 MRCHDU: Convergence failed at  43  side 1    Res =  0.3957E-02
 MRCHDU: Convergence failed at  44  side 1    Res =  0.3960E-02
 MRCHDU: Convergence failed at  45  side 1    Res =  0.4252E-02
 MRCHDU: Convergence failed at  46  side 1    Res =  0.4811E-02
 MRCHDU: Convergence failed at  47  side 1    Res =  0.4720E-02
 MRCHDU: Convergence failed at  48  side 1    Res =  0.4558E-02
 MRCHDU: Convergence failed at  49  side 1    Res =  0.5378E-02
 MRCHDU: Convergence failed at  50  side 1    Res =  0.7096E-02
 MRCHDU: Convergence failed at  51  side 1    Res =  0.8528E-02
 MRCHDU: Convergence failed at  52  side 1    Res =  0.1402E-01
 MRCHDU: Convergence failed at  53  side 1    Res =  0.3238E-01
 MRCHDU: Convergence failed at  54  side 1    Res =  0.1235E-01
 MRCHDU: Convergence failed at  55  side 1    Res =  0.1939E-04
 MRCHDU: Convergence failed at  56  side 1    Res =  0.1320E-03
 Side 1  free  transition at x/c =  0.0389   14
 Side 2 forced transition at x/c =  1.0000   78

 149   rms: 0.3446E+12   max: 0.9345E+13   T at  100  2   RLX: 0.000
       a =  4.000      CL =  0.8611
      Cm = -0.1944     CD =+Infinity   =>   CDf =  0.00244    CDp =+Infinity

 MRCHDU: Convergence failed at  17  side 1    Res =  0.2243E-01
 MRCHDU: Convergence failed at  18  side 1    Res =  0.1291E-01
 MRCHDU: Convergence failed at  19  side 1    Res =  0.4517E-02
 MRCHDU: Convergence failed at  20  side 1    Res =  0.7467E-02
 MRCHDU: Convergence failed at  21  side 1    Res =  0.5992E-02
 MRCHDU: Convergence failed at  22  side 1    Res =  0.5332E-02
 MRCHDU: Convergence failed at  23  side 1    Res =  0.5219E-02
 MRCHDU: Convergence failed at  24  side 1    Res =  0.5582E-02
 MRCHDU: Convergence failed at  25  side 1    Res =  0.6056E-02
 MRCHDU: Convergence failed at  26  side 1    Res =  0.4716E-02
 MRCHDU: Convergence failed at  27  side 1    Res =  0.4664E-02
 MRCHDU: Convergence failed at  28  side 1    Res =  0.4406E-02
 MRCHDU: Convergence failed at  29  side 1    Res =  0.4166E-02
 MRCHDU: Convergence failed at  30  side 1    Res =  0.4074E-02
 MRCHDU: Convergence failed at  31  side 1    Res =  0.3983E-02
 MRCHDU: Convergence failed at  32  side 1    Res =  0.4119E-02
 MRCHDU: Convergence failed at  33  side 1    Res =  0.4261E-02
 MRCHDU: Convergence failed at  34  side 1    Res =  0.4393E-02
 MRCHDU: Convergence failed at  35  side 1    Res =  0.4550E-02
 MRCHDU: Convergence failed at  36  side 1    Res =  0.4652E-02
 MRCHDU: Convergence failed at  37  side 1    Res =  0.4901E-02
 MRCHDU: Convergence failed at  38  side 1    Res =  0.5165E-02
 MRCHDU: Convergence failed at  39  side 1    Res =  0.5075E-02
 MRCHDU: Convergence failed at  40  side 1    Res =  0.4526E-02
 MRCHDU: Convergence failed at  41  side 1    Res =  0.4332E-02
 MRCHDU: Convergence failed at  42  side 1    Res =  0.4246E-02
 MRCHDU: Convergence failed at  43  side 1    Res =  0.3957E-02
 MRCHDU: Convergence failed at  44  side 1    Res =  0.3960E-02
 MRCHDU: Convergence failed at  45  side 1    Res =  0.4252E-02
 MRCHDU: Convergence failed at  46  side 1    Res =  0.4811E-02
 MRCHDU: Convergence failed at  47  side 1    Res =  0.4720E-02
 MRCHDU: Convergence failed at  48  side 1    Res =  0.4558E-02
 MRCHDU: Convergence failed at  49  side 1    Res =  0.5378E-02
 MRCHDU: Convergence failed at  50  side 1    Res =  0.7096E-02
 MRCHDU: Convergence failed at  51  side 1    Res =  0.8527E-02
 MRCHDU: Convergence failed at  52  side 1    Res =  0.1402E-01
 MRCHDU: Convergence failed at  53  side 1    Res =  0.3238E-01
 MRCHDU: Convergence failed at  54  side 1    Res =  0.1235E-01
 MRCHDU: Convergence failed at  55  side 1    Res =  0.1940E-04
 MRCHDU: Convergence failed at  56  side 1    Res =  0.1320E-03
 Side 1  free  transition at x/c =  0.0389   14
 Side 2 forced transition at x/c =  1.0000   78

 150   rms: 0.1452E+11   max: -.3312E+12   T at   63  1   RLX: 0.000
       a =  4.000      CL =  0.8611
      Cm = -0.1944     CD =+Infinity   =>   CDf =  0.00244    CDp =+Infinity

 MRCHDU: Convergence failed at  17  side 1    Res =  0.2243E-01
 MRCHDU: Convergence failed at  18  side 1    Res =  0.1291E-01
 MRCHDU: Convergence failed at  19  side 1    Res =  0.4517E-02
 MRCHDU: Convergence failed at  20  side 1    Res =  0.7467E-02
 MRCHDU: Convergence failed at  21  side 1    Res =  0.5992E-02
 MRCHDU: Convergence failed at  22  side 1    Res =  0.5332E-02
 MRCHDU: Convergence failed at  23  side 1    Res =  0.5219E-02
 MRCHDU: Convergence failed at  24  side 1    Res =  0.5582E-02
 MRCHDU: Convergence failed at  25  side 1    Res =  0.6056E-02
 MRCHDU: Convergence failed at  26  side 1    Res =  0.4716E-02
 MRCHDU: Convergence failed at  27  side 1    Res =  0.4664E-02
 MRCHDU: Convergence failed at  28  side 1    Res =  0.4406E-02
 MRCHDU: Convergence failed at  29  side 1    Res =  0.4166E-02
 MRCHDU: Convergence failed at  30  side 1    Res =  0.4074E-02
 MRCHDU: Convergence failed at  31  side 1    Res =  0.3983E-02
 MRCHDU: Convergence failed at  32  side 1    Res =  0.4119E-02
 MRCHDU: Convergence failed at  33  side 1    Res =  0.4261E-02
 MRCHDU: Convergence failed at  34  side 1    Res =  0.4393E-02
 MRCHDU: Convergence failed at  35  side 1    Res =  0.4550E-02
 MRCHDU: Convergence failed at  36  side 1    Res =  0.4652E-02
 MRCHDU: Convergence failed at  37  side 1    Res =  0.4901E-02
 MRCHDU: Convergence failed at  38  side 1    Res =  0.5165E-02
 MRCHDU: Convergence failed at  39  side 1    Res =  0.5075E-02
 MRCHDU: Convergence failed at  40  side 1    Res =  0.4526E-02
 MRCHDU: Convergence failed at  41  side 1    Res =  0.4332E-02
 MRCHDU: Convergence failed at  42  side 1    Res =  0.4246E-02
 MRCHDU: Convergence failed at  43  side 1    Res =  0.3957E-02
 MRCHDU: Convergence failed at  44  side 1    Res =  0.3960E-02
 MRCHDU: Convergence failed at  45  side 1    Res =  0.4252E-02
 MRCHDU: Convergence failed at  46  side 1    Res =  0.4811E-02
 MRCHDU: Convergence failed at  47  side 1    Res =  0.4719E-02
 MRCHDU: Convergence failed at  48  side 1    Res =  0.4558E-02
 MRCHDU: Convergence failed at  49  side 1    Res =  0.5378E-02
 MRCHDU: Convergence failed at  50  side 1    Res =  0.7095E-02
 MRCHDU: Convergence failed at  51  side 1    Res =  0.8527E-02
 MRCHDU: Convergence failed at  52  side 1    Res =  0.1402E-01
 MRCHDU: Convergence failed at  53  side 1    Res =  0.3239E-01
 MRCHDU: Convergence failed at  54  side 1    Res =  0.1235E-01
 MRCHDU: Convergence failed at  55  side 1    Res =  0.1935E-04
 MRCHDU: Convergence failed at  56  side 1    Res =  0.1319E-03
 Side 1  free  transition at x/c =  0.0389   14
 Side 2 forced transition at x/c =  1.0000   78

 151   rms: 0.2319E+11   max: -.6081E+12   T at  100  2   RLX: 0.000
       a =  4.000      CL =  0.8611
      Cm = -0.1944     CD =+Infinity   =>   CDf =  0.00244    CDp =+Infinity

 MRCHDU: Convergence failed at  17  side 1    Res =  0.2243E-01
 MRCHDU: Convergence failed at  18  side 1    Res =  0.1291E-01
 MRCHDU: Convergence failed at  19  side 1    Res =  0.4517E-02
 MRCHDU: Convergence failed at  20  side 1    Res =  0.7467E-02
 MRCHDU: Convergence failed at  21  side 1    Res =  0.5992E-02
 MRCHDU: Convergence failed at  22  side 1    Res =  0.5332E-02
 MRCHDU: Convergence failed at  23  side 1    Res =  0.5219E-02
 MRCHDU: Convergence failed at  24  side 1    Res =  0.5582E-02
 MRCHDU: Convergence failed at  25  side 1    Res =  0.6056E-02
 MRCHDU: Convergence failed at  26  side 1    Res =  0.4716E-02
 MRCHDU: Convergence failed at  27  side 1    Res =  0.4664E-02
 MRCHDU: Convergence failed at  28  side 1    Res =  0.4406E-02
 MRCHDU: Convergence failed at  29  side 1    Res =  0.4166E-02
 MRCHDU: Convergence failed at  30  side 1    Res =  0.4074E-02
 MRCHDU: Convergence failed at  31  side 1    Res =  0.3983E-02
 MRCHDU: Convergence failed at  32  side 1    Res =  0.4119E-02
 MRCHDU: Convergence failed at  33  side 1    Res =  0.4261E-02
 MRCHDU: Convergence failed at  34  side 1    Res =  0.4393E-02
 MRCHDU: Convergence failed at  35  side 1    Res =  0.4550E-02
 MRCHDU: Convergence failed at  36  side 1    Res =  0.4652E-02
 MRCHDU: Convergence failed at  37  side 1    Res =  0.4901E-02
 MRCHDU: Convergence failed at  38  side 1    Res =  0.5165E-02
 MRCHDU: Convergence failed at  39  side 1    Res =  0.5075E-02
 MRCHDU: Convergence failed at  40  side 1    Res =  0.4526E-02
 MRCHDU: Convergence failed at  41  side 1    Res =  0.4332E-02
 MRCHDU: Convergence failed at  42  side 1    Res =  0.4246E-02
 MRCHDU: Convergence failed at  43  side 1    Res =  0.3957E-02
 MRCHDU: Convergence failed at  44  side 1    Res =  0.3960E-02
 MRCHDU: Convergence failed at  45  side 1    Res =  0.4252E-02
 MRCHDU: Convergence failed at  46  side 1    Res =  0.4811E-02
 MRCHDU: Convergence failed at  47  side 1    Res =  0.4719E-02
 MRCHDU: Convergence failed at  48  side 1    Res =  0.4558E-02
 MRCHDU: Convergence failed at  49  side 1    Res =  0.5378E-02
 MRCHDU: Convergence failed at  50  side 1    Res =  0.7095E-02
 MRCHDU: Convergence failed at  51  side 1    Res =  0.8528E-02
 MRCHDU: Convergence failed at  52  side 1    Res =  0.1402E-01
 MRCHDU: Convergence failed at  53  side 1    Res =  0.3238E-01
 MRCHDU: Convergence failed at  54  side 1    Res =  0.1235E-01
 MRCHDU: Convergence failed at  55  side 1    Res =  0.1931E-04
 MRCHDU: Convergence failed at  56  side 1    Res =  0.1318E-03
 Side 1  free  transition at x/c =  0.0389   14
 Side 2 forced transition at x/c =  1.0000   78

 152   rms: 0.1779E+12   max: -.4768E+13   T at  100  2   RLX: 0.000
       a =  4.000      CL =  0.8611
      Cm = -0.1944     CD =+Infinity   =>   CDf =  0.00244    CDp =+Infinity

 MRCHDU: Convergence failed at  17  side 1    Res =  0.2243E-01
 MRCHDU: Convergence failed at  18  side 1    Res =  0.1291E-01
 MRCHDU: Convergence failed at  19  side 1    Res =  0.4517E-02
 MRCHDU: Convergence failed at  20  side 1    Res =  0.7467E-02
 MRCHDU: Convergence failed at  21  side 1    Res =  0.5992E-02
 MRCHDU: Convergence failed at  22  side 1    Res =  0.5332E-02
 MRCHDU: Convergence failed at  23  side 1    Res =  0.5219E-02
 MRCHDU: Convergence failed at  24  side 1    Res =  0.5582E-02
 MRCHDU: Convergence failed at  25  side 1    Res =  0.6056E-02
 MRCHDU: Convergence failed at  26  side 1    Res =  0.4716E-02
 MRCHDU: Convergence failed at  27  side 1    Res =  0.4664E-02
 MRCHDU: Convergence failed at  28  side 1    Res =  0.4406E-02
 MRCHDU: Convergence failed at  29  side 1    Res =  0.4166E-02
 MRCHDU: Convergence failed at  30  side 1    Res =  0.4074E-02
 MRCHDU: Convergence failed at  31  side 1    Res =  0.3983E-02
 MRCHDU: Convergence failed at  32  side 1    Res =  0.4119E-02
 MRCHDU: Convergence failed at  33  side 1    Res =  0.4261E-02
 MRCHDU: Convergence failed at  34  side 1    Res =  0.4393E-02
 MRCHDU: Convergence failed at  35  side 1    Res =  0.4550E-02
 MRCHDU: Convergence failed at  36  side 1    Res =  0.4652E-02
 MRCHDU: Convergence failed at  37  side 1    Res =  0.4901E-02
 MRCHDU: Convergence failed at  38  side 1    Res =  0.5165E-02
 MRCHDU: Convergence failed at  39  side 1    Res =  0.5075E-02
 MRCHDU: Convergence failed at  40  side 1    Res =  0.4526E-02
 MRCHDU: Convergence failed at  41  side 1    Res =  0.4332E-02
 MRCHDU: Convergence failed at  42  side 1    Res =  0.4246E-02
 MRCHDU: Convergence failed at  43  side 1    Res =  0.3957E-02
 MRCHDU: Convergence failed at  44  side 1    Res =  0.3960E-02
 MRCHDU: Convergence failed at  45  side 1    Res =  0.4252E-02
 MRCHDU: Convergence failed at  46  side 1    Res =  0.4811E-02
 MRCHDU: Convergence failed at  47  side 1    Res =  0.4720E-02
 MRCHDU: Convergence failed at  48  side 1    Res =  0.4558E-02
 MRCHDU: Convergence failed at  49  side 1    Res =  0.5378E-02
 MRCHDU: Convergence failed at  50  side 1    Res =  0.7095E-02
 MRCHDU: Convergence failed at  51  side 1    Res =  0.8527E-02
 MRCHDU: Convergence failed at  52  side 1    Res =  0.1402E-01
 MRCHDU: Convergence failed at  53  side 1    Res =  0.3238E-01
 MRCHDU: Convergence failed at  54  side 1    Res =  0.1236E-01
 MRCHDU: Convergence failed at  55  side 1    Res =  0.1932E-04
 MRCHDU: Convergence failed at  56  side 1    Res =  0.1318E-03
 Side 1  free  transition at x/c =  0.0389   14
 Side 2 forced transition at x/c =  1.0000   78

 153   rms: 0.4568E+11   max: 0.1214E+13   T at  100  2   RLX: 0.000
       a =  4.000      CL =  0.8611
      Cm = -0.1944     CD =+Infinity   =>   CDf =  0.00244    CDp =+Infinity

 MRCHDU: Convergence failed at  17  side 1    Res =  0.2243E-01
 MRCHDU: Convergence failed at  18  side 1    Res =  0.1291E-01
 MRCHDU: Convergence failed at  19  side 1    Res =  0.4517E-02
 MRCHDU: Convergence failed at  20  side 1    Res =  0.7467E-02
 MRCHDU: Convergence failed at  21  side 1    Res =  0.5992E-02
 MRCHDU: Convergence failed at  22  side 1    Res =  0.5332E-02
 MRCHDU: Convergence failed at  23  side 1    Res =  0.5219E-02
 MRCHDU: Convergence failed at  24  side 1    Res =  0.5582E-02
 MRCHDU: Convergence failed at  25  side 1    Res =  0.6056E-02
 MRCHDU: Convergence failed at  26  side 1    Res =  0.4716E-02
 MRCHDU: Convergence failed at  27  side 1    Res =  0.4664E-02
 MRCHDU: Convergence failed at  28  side 1    Res =  0.4406E-02
 MRCHDU: Convergence failed at  29  side 1    Res =  0.4166E-02
 MRCHDU: Convergence failed at  30  side 1    Res =  0.4074E-02
 MRCHDU: Convergence failed at  31  side 1    Res =  0.3983E-02
 MRCHDU: Convergence failed at  32  side 1    Res =  0.4119E-02

[TIMEOUT]
