  
       XFOIL         Version 6.99
  
 Calculated polar for: NASA SC(2)-0410 AIRFOIL                         
  
 1 1 Reynolds number fixed          Mach number fixed         
  
 xtrf =   1.000 (top)        1.000 (bottom)  
 Mach =   0.000     Re =     0.500 e 6     Ncrit =   9.000
  
   alpha    CL        CD       CDp       CM     Top_Xtr  Bot_Xtr
  ------ -------- --------- --------- -------- -------- --------
-4.000  -0.3407   0.01027   0.00394  -0.0409   1.0000   0.0973
-3.500  -0.2717   0.00900   0.00342  -0.0453   1.0000   0.2543
-3.000  -0.1891   0.00731   0.00313  -0.0528   1.0000   0.6081
-2.500  -0.1326   0.00756   0.00342  -0.0531   0.9994   0.6551
-2.000  -0.0572   0.00768   0.00357  -0.0570   0.9940   0.6811
-1.500   0.0189   0.00770   0.00362  -0.0610   0.9857   0.6996
-1.000   0.0987   0.00771   0.00369  -0.0653   0.9756   0.7191
-0.500   0.1739   0.00751   0.00357  -0.0687   0.9605   0.7281
0.000   0.2378   0.00748   0.00350  -0.0695   0.9282   0.7378
0.500   0.2920   0.00747   0.00345  -0.0682   0.8834   0.7429
1.000   0.3456   0.00762   0.00342  -0.0669   0.8180   0.7471
1.500   0.3988   0.00804   0.00342  -0.0658   0.7016   0.7515
2.000   0.4463   0.00981   0.00372  -0.0646   0.3663   0.7551
2.500   0.4974   0.01112   0.00417  -0.0642   0.1603   0.7584
3.000   0.5516   0.01194   0.00466  -0.0641   0.0907   0.7619
3.500   0.6072   0.01257   0.00519  -0.0641   0.0706   0.7660
4.000   0.6634   0.01316   0.00575  -0.0642   0.0598   0.7701
4.500   0.7182   0.01380   0.00642  -0.0641   0.0516   0.7736
5.000   0.7717   0.01454   0.00721  -0.0637   0.0442   0.7773
5.500   0.8248   0.01544   0.00811  -0.0632   0.0374   0.7820
6.000   0.8783   0.01639   0.00906  -0.0629   0.0323   0.7869
6.500   0.9293   0.01749   0.01032  -0.0620   0.0290   0.7909
7.000   0.9795   0.01876   0.01164  -0.0611   0.0266   0.7957
7.500   1.0288   0.02063   0.01371  -0.0601   0.0251   0.8011
8.000   1.0769   0.02238   0.01572  -0.0587   0.0239   0.8058
8.500   1.1236   0.02431   0.01789  -0.0574   0.0229   0.8115
9.000   1.1683   0.02657   0.02034  -0.0560   0.0220   0.8176
9.500   1.2025   0.03079   0.02507  -0.0533   0.0212   0.8235
10.000   1.2322   0.03506   0.02998  -0.0501   0.0207   0.8305
10.250   1.2394   0.03812   0.03344  -0.0478   0.0205   0.8335
10.500   1.2388   0.04202   0.03778  -0.0448   0.0204   0.8367
10.750   1.2277   0.04683   0.04307  -0.0413   0.0204   0.8403
11.000   1.2040   0.05229   0.04896  -0.0373   0.0205   0.8444
11.250   1.1726   0.05680   0.05377  -0.0327   0.0206   0.8485
11.500   1.1395   0.06239   0.05963  -0.0311   0.0207   0.8524
11.750   1.1055   0.06960   0.06708  -0.0335   0.0208   0.8565
12.000   1.0688   0.08032   0.07801  -0.0417   0.0210   0.8602
12.250   0.8580   0.15397   0.15178  -0.0862   0.0300   0.8492
12.500   0.8580   0.15932   0.15713  -0.0890   0.0290   0.8519
12.750   0.8609   0.16369   0.16151  -0.0911   0.0282   0.8552
13.000   0.8657   0.16753   0.16535  -0.0929   0.0276   0.8589
13.250   0.8721   0.17078   0.16862  -0.0941   0.0271   0.8626
13.500   0.8798   0.17347   0.17134  -0.0947   0.0267   0.8665
13.750   0.8874   0.17620   0.17410  -0.0953   0.0265   0.8710
14.000   0.8943   0.17912   0.17702  -0.0954   0.0262   0.8757
14.250   0.8946   0.18525   0.18317  -0.0981   0.0260   0.8792
14.500   0.8963   0.19119   0.18912  -0.1021   0.0258   0.8833
14.750   0.8939   0.19864   0.19658  -0.1091   0.0241   0.8871
15.000   0.9003   0.20253   0.20048  -0.1113   0.0234   0.8923
15.250   0.9070   0.20598   0.20396  -0.1131   0.0228   0.8979
15.500   0.9144   0.20930   0.20730  -0.1148   0.0224   0.9045
15.750   0.9218   0.21223   0.21026  -0.1161   0.0220   0.9117
16.000   0.9298   0.21502   0.21309  -0.1170   0.0218   0.9213
