  
       XFOIL         Version 6.99
  
 Calculated polar for: SD7032-099-88                                   
  
 1 1 Reynolds number fixed          Mach number fixed         
  
 xtrf =   1.000 (top)        1.000 (bottom)  
 Mach =   0.000     Re =     0.400 e 6     Ncrit =   9.000
  
   alpha    CL        CD       CDp       CM     Top_Xtr  Bot_Xtr
  ------ -------- --------- --------- -------- -------- --------
-4.000   0.0259   0.01268   0.00660  -0.1007   0.9076   0.0257
-3.500   0.0783   0.01166   0.00546  -0.0995   0.8930   0.0312
-3.000   0.1307   0.01047   0.00418  -0.0985   0.8771   0.0397
-2.500   0.1847   0.00964   0.00326  -0.0976   0.8600   0.0549
-2.000   0.2380   0.00842   0.00268  -0.0973   0.8417   0.2466
-1.500   0.2909   0.00754   0.00247  -0.0969   0.8203   0.4884
-1.000   0.3423   0.00698   0.00240  -0.0955   0.7975   0.6894
-0.500   0.3897   0.00666   0.00238  -0.0928   0.7716   0.8323
0.000   0.4398   0.00643   0.00220  -0.0904   0.7441   0.9562
0.500   0.5031   0.00654   0.00206  -0.0919   0.7139   1.0000
1.000   0.5579   0.00677   0.00204  -0.0916   0.6822   1.0000
1.500   0.6123   0.00703   0.00209  -0.0912   0.6493   1.0000
2.000   0.6663   0.00733   0.00219  -0.0908   0.6140   1.0000
2.500   0.7195   0.00769   0.00234  -0.0903   0.5779   1.0000
3.000   0.7728   0.00806   0.00254  -0.0898   0.5423   1.0000
3.500   0.8254   0.00848   0.00281  -0.0892   0.5068   1.0000
4.000   0.8776   0.00893   0.00311  -0.0886   0.4725   1.0000
4.500   0.9295   0.00941   0.00348  -0.0880   0.4380   1.0000
5.000   0.9807   0.00994   0.00391  -0.0873   0.4049   1.0000
5.500   1.0309   0.01053   0.00438  -0.0865   0.3720   1.0000
6.000   1.0809   0.01113   0.00492  -0.0857   0.3390   1.0000
6.500   1.1299   0.01179   0.00551  -0.0848   0.3063   1.0000
7.000   1.1773   0.01255   0.00618  -0.0836   0.2726   1.0000
8.000   1.2694   0.01422   0.00775  -0.0811   0.2120   1.0000
8.500   1.3130   0.01518   0.00867  -0.0795   0.1826   1.0000
9.000   1.3542   0.01626   0.00971  -0.0776   0.1539   1.0000
9.500   1.3921   0.01751   0.01092  -0.0752   0.1240   1.0000
10.000   1.4240   0.01907   0.01237  -0.0721   0.0939   1.0000
10.250   1.4362   0.01994   0.01319  -0.0700   0.0812   1.0000
10.500   1.4476   0.02078   0.01403  -0.0677   0.0713   1.0000
10.750   1.4585   0.02165   0.01494  -0.0654   0.0634   1.0000
11.000   1.4666   0.02271   0.01600  -0.0629   0.0565   1.0000
11.250   1.4775   0.02362   0.01695  -0.0610   0.0507   1.0000
11.500   1.4846   0.02480   0.01817  -0.0586   0.0458   1.0000
11.750   1.4949   0.02580   0.01924  -0.0568   0.0417   1.0000
12.000   1.4977   0.02738   0.02084  -0.0544   0.0378   1.0000
12.250   1.5082   0.02845   0.02202  -0.0529   0.0349   1.0000
12.500   1.5151   0.02983   0.02346  -0.0513   0.0317   1.0000
12.750   1.5142   0.03193   0.02560  -0.0492   0.0288   1.0000
13.000   1.5243   0.03317   0.02699  -0.0482   0.0263   1.0000
13.250   1.5280   0.03504   0.02891  -0.0469   0.0235   1.0000
13.500   1.5263   0.03753   0.03149  -0.0456   0.0213   1.0000
13.750   1.5305   0.03956   0.03363  -0.0448   0.0187   1.0000
14.000   1.5220   0.04306   0.03718  -0.0440   0.0164   1.0000
14.250   1.5226   0.04577   0.04002  -0.0436   0.0141   1.0000
14.500   1.5124   0.04989   0.04422  -0.0437   0.0124   1.0000
14.750   1.5013   0.05438   0.04887  -0.0442   0.0116   1.0000
15.000   1.4953   0.05845   0.05309  -0.0449   0.0107   1.0000
15.250   1.4870   0.06304   0.05781  -0.0460   0.0101   1.0000
15.500   1.4771   0.06809   0.06299  -0.0475   0.0096   1.0000
15.750   1.4649   0.07371   0.06875  -0.0495   0.0094   1.0000
16.000   1.4473   0.08045   0.07562  -0.0521   0.0090   1.0000
