
 ===================================================
  XFOIL Version 6.99
  Copyright (C) 2000   Mark Drela, Harold Youngren

  This software comes with ABSOLUTELY NO WARRANTY,
    subject to the GNU General Public License.

  Caveat computor
 ===================================================

 File  xfoil.def  not found

   QUIT    Exit program

  .OPER    Direct operating point(s)
  .MDES    Complex mapping design routine
  .QDES    Surface speed design routine
  .GDES    Geometry design routine

   SAVE f  Write airfoil to labeled coordinate file
   PSAV f  Write airfoil to plain coordinate file
   ISAV f  Write airfoil to ISES coordinate file
   MSAV f  Write airfoil to MSES coordinate file
   REVE    Reverse written-airfoil node ordering

   LOAD f  Read buffer airfoil from coordinate file
   NACA i  Set NACA 4,5-digit airfoil and buffer airfoil
   INTE    Set buffer airfoil by interpolating two airfoils
   NORM    Buffer airfoil normalization toggle
   XYCM rr Change CM reference location, currently  0.25000 0.00000

   BEND    Display structural properties of current airfoil

   PCOP    Set current-airfoil panel nodes directly from buffer airfoil points
   PANE    Set current-airfoil panel nodes ( 160 ) based on curvature
  .PPAR    Show/change paneling

  .PLOP    Plotting options

   WDEF f  Write  current-settings file
   RDEF f  Reread current-settings file
   NAME s  Specify new airfoil name
   NINC    Increment name version number

   Z       Zoom    | (available in all menus)
   U       Unzoom  | 

 XFOIL   c>  
 Labeled airfoil file.  Name:    SD7062 (14%)                                  

 Number of input coordinate points:  61
 Counterclockwise ordering
 Max thickness =     0.139994  at x =   0.272
 Max camber    =     0.039706  at x =   0.388

  LE  x,y  =  -0.00002  -0.00006  |   Chord =   1.00003
  TE  x,y  =   1.00001   0.00000  |

 Current airfoil nodes set from buffer airfoil nodes (  61 )

 XFOIL   c>  
 XFOIL   c>  
 Sharp trailing edge

 Paneling parameters used...
   Number of panel nodes       160
   Panel bunching parameter    1.000
   TE/LE panel density ratio   0.150
   Refined-area/LE panel density ratio    0.200
   Top    side refined area x/c limits  1.000 1.000
   Bottom side refined area x/c limits  1.000 1.000

 XFOIL   c>  
.OPERi   c>  
 Xtr/c     =  1.0000    top    side
 Xtr/c     =  1.0000    bottom side
 Ncrit     =    9.00   ( 0.070 % turb. level )
 Vacc      =  0.0100

 Klag  =  5.6000     Uxwt  =    1.00
 A     =  6.7000     B     =  0.7500       KCt = 0.01485
 CtiniK=  1.8000     CtiniX=  3.3000

..VPAR   c>  
..VPAR   c>  
.OPERi   c>  
 M  =    0.0000
 Re =    600000

.OPERv   c>  
.OPERv   c>  
.OPERv   c>  
 Polar  1 newly created for accumulation
 Airfoil archived with polar: SD7062 (14%)                                    

Enter  polar save filename  OR  <return> for no file   s>  
 New polar save file available

Enter  polar dump filename  OR  <return> for no file   s>  
 Polar dump file will NOT be written

 Polar accumulation enabled

.OPERva   c>   Calculating unit vorticity distributions ...
 Calculating wake trajectory ...
 Calculating source influence matrix ...

 Solving BL system ...

 Initializing BL ...
    side            1  ...
 MRCHUE: Inverse mode at  50     Hk =   4.588
 MRCHUE: Inverse mode at  51     Hk =   5.392
 MRCHUE: Inverse mode at  52     Hk =   6.183
 MRCHUE: Inverse mode at  53     Hk =   6.966
 MRCHUE: Inverse mode at  54     Hk =   7.744
 MRCHUE: Inverse mode at  55     Hk =   5.829
 MRCHUE: Inverse mode at  56     Hk =   3.038
    side            2  ...
 MRCHUE: Inverse mode at  18     Hk =   3.945
 MRCHUE: Inverse mode at  19     Hk =   5.005
 MRCHUE: Inverse mode at  20     Hk =   6.005
 MRCHUE: Inverse mode at  21     Hk =   6.976
 MRCHUE: Inverse mode at  22     Hk =   7.943
 MRCHUE: Inverse mode at  23     Hk =   8.924
 MRCHUE: Inverse mode at  24     Hk =   9.936
 MRCHUE: Inverse mode at  25     Hk =   6.611
 MRCHUE: Inverse mode at  26     Hk =   3.357

 Side 1  free  transition at x/c =  0.6487   55
 Side 2  free  transition at x/c =  0.0298   25

   1   rms: 0.1341E+00   max: -.8995E+00   T at   55  1   RLX: 0.556
       a = -4.000      CL =  0.0015
      Cm = -0.0872     CD =  0.01134   =>   CDf =  0.00702    CDp =  0.00431

 Side 1  free  transition at x/c =  0.6691   56
 Side 2  free  transition at x/c =  0.0296   25

   2   rms: 0.6353E-01   max: -.5113E+00   T at   56  1   RLX: 0.978
       a = -4.000      CL =  0.0108
      Cm = -0.0863     CD =  0.01052   =>   CDf =  0.00689    CDp =  0.00363

 MRCHDU: Convergence failed at  58  side 1    Res =  0.3847E+01
 Side 1  free  transition at x/c =  0.7029   58
 Side 2  free  transition at x/c =  0.0294   25

   3   rms: 0.1381E-01   max: 0.2263E+00   C at   58  1
       a = -4.000      CL =  0.0120
      Cm = -0.0866     CD =  0.01069   =>   CDf =  0.00667    CDp =  0.00403

 Side 1  free  transition at x/c =  0.7039   58
 Side 2  free  transition at x/c =  0.0294   25

   4   rms: 0.6145E-03   max: -.1171E-01   D at   60  1
       a = -4.000      CL =  0.0122
      Cm = -0.0866     CD =  0.01068   =>   CDf =  0.00671    CDp =  0.00397

 Side 1  free  transition at x/c =  0.7037   58
 Side 2  free  transition at x/c =  0.0294   25

   5   rms: 0.3253E-05   max: -.5629E-04   D at   60  1
       a = -4.000      CL =  0.0122
      Cm = -0.0866     CD =  0.01068   =>   CDf =  0.00671    CDp =  0.00397
 plradd ia,ip,cpol            1           0  5.05623640E-03

 Point added to stored polar  1
 Point written to save file  sd7062_Re600k.base.pol                          
 Dump file unspecified or not available
 Calculating wake trajectory ...
 Calculating source influence matrix ...

 Solving BL system ...

 Side 1  free  transition at x/c =  0.7037   58
 Side 2  free  transition at x/c =  0.0294   25

   1   rms: 0.9380E-01   max: -.4829E+00   T at   25  2
       a = -3.500      CL =  0.0672
      Cm = -0.0863     CD =  0.01006   =>   CDf =  0.00682    CDp =  0.00324

 Side 1  free  transition at x/c =  0.6840   58
 Side 2  free  transition at x/c =  0.0323   24

   2   rms: 0.3045E-01   max: -.2806E+00   D at   24  2
       a = -3.500      CL =  0.0676
      Cm = -0.0862     CD =  0.01023   =>   CDf =  0.00683    CDp =  0.00340

 Side 1  free  transition at x/c =  0.6861   58
 Side 2  free  transition at x/c =  0.0327   24

   3   rms: 0.9805E-02   max: -.1187E+00   D at   24  2
       a = -3.500      CL =  0.0678
      Cm = -0.0862     CD =  0.01024   =>   CDf =  0.00681    CDp =  0.00344

 Side 1  free  transition at x/c =  0.6855   58
 Side 2  free  transition at x/c =  0.0327   24

   4   rms: 0.2491E-03   max: 0.3573E-02   D at   24  2
       a = -3.500      CL =  0.0678
      Cm = -0.0862     CD =  0.01024   =>   CDf =  0.00681    CDp =  0.00343

 Side 1  free  transition at x/c =  0.6855   58
 Side 2  free  transition at x/c =  0.0327   24

   5   rms: 0.2828E-05   max: 0.9463E-05   D at   30  2
       a = -3.500      CL =  0.0678
      Cm = -0.0862     CD =  0.01024   =>   CDf =  0.00681    CDp =  0.00343
 plradd ia,ip,cpol            2           0  5.05623640E-03

 Point added to stored polar  1
 Point written to save file  sd7062_Re600k.base.pol                          
 Dump file unspecified or not available
 Calculating wake trajectory ...
 Calculating source influence matrix ...

 Solving BL system ...

 Side 1  free  transition at x/c =  0.6855   58
 Side 2  free  transition at x/c =  0.0327   24

   1   rms: 0.8950E-01   max: -.5167E+00   T at   24  2   RLX: 0.968
       a = -3.000      CL =  0.1221
      Cm = -0.0859     CD =  0.00993   =>   CDf =  0.00682    CDp =  0.00311

 MRCHDU: Convergence failed at  26  side 2    Res =  0.2242E+01
 MRCHDU: Convergence failed at  27  side 2    Res =  0.8700E+02
 MRCHDU: Convergence failed at  28  side 2    Res =  0.1162E+02
 MRCHDU: Convergence failed at  29  side 2    Res =  0.1372E+02
 MRCHDU: Convergence failed at  30  side 2    Res =  0.1128E+02
 MRCHDU: Convergence failed at  31  side 2    Res =  0.8468E+01
 MRCHDU: Convergence failed at  32  side 2    Res =  0.6867E+01
 MRCHDU: Convergence failed at  33  side 2    Res =  0.6265E+01
 MRCHDU: Convergence failed at  34  side 2    Res =  0.6063E+01
 MRCHDU: Convergence failed at  35  side 2    Res =  0.6331E+01
 MRCHDU: Convergence failed at  36  side 2    Res =  0.7061E+01
 MRCHDU: Convergence failed at  37  side 2    Res =  0.7687E+01
 MRCHDU: Convergence failed at  38  side 2    Res =  0.8776E+01
 MRCHDU: Convergence failed at  39  side 2    Res =  0.1039E+02
 MRCHDU: Convergence failed at  40  side 2    Res =  0.1304E+02
 MRCHDU: Convergence failed at  41  side 2    Res =  0.1666E+02
 MRCHDU: Convergence failed at  42  side 2    Res =  0.2212E+02
 MRCHDU: Convergence failed at  43  side 2    Res =  0.4031E+02
 MRCHDU: Convergence failed at  44  side 2    Res =  0.7936E+02
 MRCHDU: Convergence failed at  45  side 2    Res =  0.7570E+03
 MRCHDU: Convergence failed at  46  side 2    Res =  0.8938E+02
 MRCHDU: Convergence failed at  47  side 2    Res =  0.4906E+02
 MRCHDU: Convergence failed at  48  side 2    Res =  0.2952E+02
 MRCHDU: Convergence failed at  49  side 2    Res =  0.2194E+02
 MRCHDU: Convergence failed at  50  side 2    Res =  0.1818E+02
 MRCHDU: Convergence failed at  51  side 2    Res =  0.1031E+02
 MRCHDU: Convergence failed at  52  side 2    Res =  0.1122E+02
 MRCHDU: Convergence failed at  53  side 2    Res =  0.1236E+02
 MRCHDU: Convergence failed at  54  side 2    Res =  0.1317E+02
 MRCHDU: Convergence failed at  55  side 2    Res =  0.1418E+02
 MRCHDU: Convergence failed at  56  side 2    Res =  0.1501E+02
 MRCHDU: Convergence failed at  57  side 2    Res =  0.1577E+02
 MRCHDU: Convergence failed at  58  side 2    Res =  0.1636E+02
 MRCHDU: Convergence failed at  59  side 2    Res =  0.1724E+02
 MRCHDU: Convergence failed at  60  side 2    Res =  0.1819E+02
 MRCHDU: Convergence failed at  61  side 2    Res =  0.1896E+02
 MRCHDU: Convergence failed at  62  side 2    Res =  0.2235E+02
 MRCHDU: Convergence failed at  63  side 2    Res =  0.2499E+02
 MRCHDU: Convergence failed at  64  side 2    Res =  0.1042E+02
 MRCHDU: Convergence failed at  65  side 2    Res =  0.1035E+02
 MRCHDU: Convergence failed at  66  side 2    Res =  0.2458E+02
 MRCHDU: Convergence failed at  67  side 2    Res =  0.2613E+02
 MRCHDU: Convergence failed at  68  side 2    Res =  0.2776E+02
 MRCHDU: Convergence failed at  69  side 2    Res =  0.2983E+02
 MRCHDU: Convergence failed at  70  side 2    Res =  0.3206E+02
 MRCHDU: Convergence failed at  71  side 2    Res =  0.3466E+02
 MRCHDU: Convergence failed at  72  side 2    Res =  0.3530E+02
 MRCHDU: Convergence failed at  73  side 2    Res =  0.3800E+02
 MRCHDU: Convergence failed at  74  side 2    Res =  0.4017E+02
 MRCHDU: Convergence failed at  75  side 2    Res =  0.4344E+02
 MRCHDU: Convergence failed at  76  side 2    Res =  0.4723E+02
 MRCHDU: Convergence failed at  77  side 2    Res =  0.5142E+02
 MRCHDU: Convergence failed at  78  side 2    Res =  0.5636E+02
 MRCHDU: Convergence failed at  79  side 2    Res =  0.6148E+02
 MRCHDU: Convergence failed at  80  side 2    Res =  0.6654E+02
 MRCHDU: Convergence failed at  81  side 2    Res =  0.7122E+02
 MRCHDU: Convergence failed at  82  side 2    Res =  0.7268E+02
 MRCHDU: Convergence failed at  83  side 2    Res =  0.7979E+02
 MRCHDU: Convergence failed at  84  side 2    Res =  0.8369E+02
 MRCHDU: Convergence failed at  85  side 2    Res =  0.1140E+03
 Side 1  free  transition at x/c =  0.6665   57
 Side 2  free  transition at x/c =  0.0400   26

   2   rms: 0.5717E+00   max: -.5384E+00   U at   85  2   RLX: 0.536
       a = -3.000      CL = -0.2466
      Cm =  0.0405     CD =  0.00545   =>   CDf =  0.00277    CDp =  0.00268

 Side 1  free  transition at x/c =  0.6671   57
 Side 2  free  transition at x/c =  0.0486   27

   3   rms: 0.2318E+00   max: -.2568E+00   U at   85  2
       a = -3.000      CL =  0.1188
      Cm = -0.0853     CD =  0.00891   =>   CDf =  0.00857    CDp =  0.00034

 Side 1  free  transition at x/c =  0.6671   57
 Side 2  free  transition at x/c =  0.0466   27

   4   rms: 0.6063E-02   max: -.6241E-01   C at   27  2
       a = -3.000      CL =  0.1232
      Cm = -0.0859     CD =  0.00970   =>   CDf =  0.00681    CDp =  0.00289

 Side 1  free  transition at x/c =  0.6670   57
 Side 2  free  transition at x/c =  0.0477   27

   5   rms: 0.3792E-03   max: -.7883E-02   C at   27  2
       a = -3.000      CL =  0.1232
      Cm = -0.0859     CD =  0.00970   =>   CDf =  0.00681    CDp =  0.00289

 Side 1  free  transition at x/c =  0.6670   57
 Side 2  free  transition at x/c =  0.0477   27

   6   rms: 0.2415E-05   max: -.1418E-04   C at   27  2
       a = -3.000      CL =  0.1232
      Cm = -0.0859     CD =  0.00970   =>   CDf =  0.00681    CDp =  0.00289
 plradd ia,ip,cpol            3           0  5.05623640E-03

 Point added to stored polar  1
 Point written to save file  sd7062_Re600k.base.pol                          
 Dump file unspecified or not available
 Calculating wake trajectory ...
 Calculating source influence matrix ...

 Solving BL system ...

 Side 1  free  transition at x/c =  0.6670   57
 Side 2  free  transition at x/c =  0.0477   27

   1   rms: 0.2200E+00   max: -.3693E+01   C at   27  2   RLX: 0.135
       a = -2.500      CL =  0.1307
      Cm = -0.0858     CD =  0.00960   =>   CDf =  0.00685    CDp =  0.00275

 Side 1  free  transition at x/c =  0.6643   58
 Side 2  free  transition at x/c =  0.0569   27

   2   rms: 0.3603E+00   max: -.6820E+01   C at   27  2   RLX: 0.073
       a = -2.500      CL =  0.1341
      Cm = -0.0858     CD =  0.00954   =>   CDf =  0.00677    CDp =  0.00276

 Side 1  free  transition at x/c =  0.6631   58
 Side 2  free  transition at x/c =  0.0619   28

   3   rms: 0.2404E+00   max: -.4474E+01   C at   28  2   RLX: 0.112
       a = -2.500      CL =  0.1392
      Cm = -0.0857     CD =  0.00946   =>   CDf =  0.00676    CDp =  0.00270

 Side 1  free  transition at x/c =  0.6614   58
 Side 2  free  transition at x/c =  0.0679   29

   4   rms: 0.1769E+00   max: -.2231E+01   C at   29  2   RLX: 0.224
       a = -2.500      CL =  0.1479
      Cm = -0.0856     CD =  0.00934   =>   CDf =  0.00675    CDp =  0.00259

 Side 1  free  transition at x/c =  0.6587   58
 Side 2  free  transition at x/c =  0.0798   30

   5   rms: 0.1255E+00   max: -.1902E+01   C at   30  2   RLX: 0.263
       a = -2.500      CL =  0.1559
      Cm = -0.0855     CD =  0.00930   =>   CDf =  0.00672    CDp =  0.00258

 Side 1  free  transition at x/c =  0.6565   57
 Side 2  free  transition at x/c =  0.0877   31

   6   rms: 0.8268E-01   max: -.9325E+00   C at   31  2   RLX: 0.536
       a = -2.500      CL =  0.1682
      Cm = -0.0856     CD =  0.00914   =>   CDf =  0.00670    CDp =  0.00243

 Side 1  free  transition at x/c =  0.6518   57
 Side 2  free  transition at x/c =  0.1187   33

   7   rms: 0.5509E-01   max: -.1023E+01   C at   33  2   RLX: 0.489
       a = -2.500      CL =  0.1724
      Cm = -0.0857     CD =  0.00904   =>   CDf =  0.00656    CDp =  0.00248

 Side 1  free  transition at x/c =  0.6501   57
 Side 2  free  transition at x/c =  0.1279   33

   8   rms: 0.2138E-01   max: -.4446E+00   C at   33  2
       a = -2.500      CL =  0.1781
      Cm = -0.0857     CD =  0.00903   =>   CDf =  0.00653    CDp =  0.00250

 Side 1  free  transition at x/c =  0.6482   57
 Side 2  free  transition at x/c =  0.1493   35

   9   rms: 0.2727E-02   max: 0.4657E-01   D at   33  2
       a = -2.500      CL =  0.1778
      Cm = -0.0857     CD =  0.00896   =>   CDf =  0.00645    CDp =  0.00251

 Side 1  free  transition at x/c =  0.6483   57
 Side 2  free  transition at x/c =  0.1469   35

  10   rms: 0.1862E-03   max: -.2969E-02   C at   35  2
       a = -2.500      CL =  0.1779
      Cm = -0.0857     CD =  0.00897   =>   CDf =  0.00645    CDp =  0.00251

 Side 1  free  transition at x/c =  0.6483   57
 Side 2  free  transition at x/c =  0.1470   35

  11   rms: 0.8427E-06   max: 0.1147E-04   C at   35  2
       a = -2.500      CL =  0.1779
      Cm = -0.0857     CD =  0.00897   =>   CDf =  0.00645    CDp =  0.00251
 plradd ia,ip,cpol            4           0  6.88741310E-03

 Point added to stored polar  1
 Point written to save file  sd7062_Re600k.base.pol                          
 Dump file unspecified or not available
 Calculating wake trajectory ...
 Calculating source influence matrix ...

 Solving BL system ...

 Side 1  free  transition at x/c =  0.6483   57
 Side 2  free  transition at x/c =  0.1470   35

   1   rms: 0.1962E+00   max: -.3326E+01   C at   35  2   RLX: 0.150
       a = -2.000      CL =  0.1860
      Cm = -0.0857     CD =  0.00887   =>   CDf =  0.00646    CDp =  0.00241

 Side 1  free  transition at x/c =  0.6453   57
 Side 2  free  transition at x/c =  0.1577   35

   2   rms: 0.1120E+00   max: -.1893E+01   C at   35  2   RLX: 0.264
       a = -2.000      CL =  0.1990
      Cm = -0.0856     CD =  0.00887   =>   CDf =  0.00644    CDp =  0.00243

 Side 1  free  transition at x/c =  0.6412   57
 Side 2  free  transition at x/c =  0.1796   37

   3   rms: 0.1178E+00   max: -.1939E+01   C at   37  2   RLX: 0.258
       a = -2.000      CL =  0.2072
      Cm = -0.0855     CD =  0.00875   =>   CDf =  0.00639    CDp =  0.00236

 Side 1  free  transition at x/c =  0.6387   57
 Side 2  free  transition at x/c =  0.1914   36

   4   rms: 0.6826E-01   max: -.1222E+01   C at   36  2   RLX: 0.409
       a = -2.000      CL =  0.2185
      Cm = -0.0856     CD =  0.00871   =>   CDf =  0.00637    CDp =  0.00233

 Side 1  free  transition at x/c =  0.6347   57
 Side 2  free  transition at x/c =  0.2125   38

   5   rms: 0.5795E-01   max: -.9627E+00   C at   38  2   RLX: 0.519
       a = -2.000      CL =  0.2259
      Cm = -0.0856     CD =  0.00856   =>   CDf =  0.00630    CDp =  0.00226

 Side 1  free  transition at x/c =  0.6318   57
 Side 2  free  transition at x/c =  0.2259   38

   6   rms: 0.2623E-01   max: -.5440E+00   C at   38  2   RLX: 0.919
       a = -2.000      CL =  0.2328
      Cm = -0.0856     CD =  0.00856   =>   CDf =  0.00627    CDp =  0.00229

 Side 1  free  transition at x/c =  0.6295   57
 Side 2  free  transition at x/c =  0.2482   40

   7   rms: 0.2498E-02   max: 0.3817E-01   D at   38  2
       a = -2.000      CL =  0.2331
      Cm = -0.0856     CD =  0.00851   =>   CDf =  0.00619    CDp =  0.00231

 Side 1  free  transition at x/c =  0.6294   57
 Side 2  free  transition at x/c =  0.2480   40

   8   rms: 0.1511E-03   max: -.2804E-02   C at   40  2
       a = -2.000      CL =  0.2331
      Cm = -0.0856     CD =  0.00851   =>   CDf =  0.00619    CDp =  0.00232

 Side 1  free  transition at x/c =  0.6294   57
 Side 2  free  transition at x/c =  0.2481   40

   9   rms: 0.6887E-06   max: -.4147E-05   D at   57  1
       a = -2.000      CL =  0.2331
      Cm = -0.0856     CD =  0.00851   =>   CDf =  0.00619    CDp =  0.00232
 plradd ia,ip,cpol            5           0  6.88741310E-03

 Point added to stored polar  1
 Point written to save file  sd7062_Re600k.base.pol                          
 Dump file unspecified or not available
 Calculating wake trajectory ...
 Calculating source influence matrix ...

 Solving BL system ...

 Side 1  free  transition at x/c =  0.6294   57
 Side 2  free  transition at x/c =  0.2481   40

   1   rms: 0.1882E+00   max: -.3319E+01   C at   40  2   RLX: 0.151
       a = -1.500      CL =  0.2413
      Cm = -0.0856     CD =  0.00843   =>   CDf =  0.00619    CDp =  0.00224

 Side 1  free  transition at x/c =  0.6265   57
 Side 2  free  transition at x/c =  0.2603   40

   2   rms: 0.1144E+00   max: -.1973E+01   C at   40  2   RLX: 0.253
       a = -1.500      CL =  0.2537
      Cm = -0.0855     CD =  0.00845   =>   CDf =  0.00618    CDp =  0.00226

 Side 1  free  transition at x/c =  0.6227   56
 Side 2  free  transition at x/c =  0.2850   42

   3   rms: 0.1236E+00   max: -.2277E+01   C at   42  2   RLX: 0.220
       a = -1.500      CL =  0.2611
      Cm = -0.0855     CD =  0.00831   =>   CDf =  0.00613    CDp =  0.00218

 Side 1  free  transition at x/c =  0.6200   56
 Side 2  free  transition at x/c =  0.2973   43

   4   rms: 0.9438E-01   max: -.1367E+01   C at   43  2   RLX: 0.366
       a = -1.500      CL =  0.2714
      Cm = -0.0855     CD =  0.00822   =>   CDf =  0.00610    CDp =  0.00212

 Side 1  free  transition at x/c =  0.6163   56
 Side 2  free  transition at x/c =  0.3151   43

   5   rms: 0.3076E-01   max: -.2251E+00   C at   43  2
       a = -1.500      CL =  0.2893
      Cm = -0.0854     CD =  0.00829   =>   CDf =  0.00603    CDp =  0.00225

 Side 1  free  transition at x/c =  0.6097   57
 Side 2  free  transition at x/c =  0.3787   46

   6   rms: 0.1077E-01   max: 0.1731E+00   C at   46  2
       a = -1.500      CL =  0.2883
      Cm = -0.0854     CD =  0.00809   =>   CDf =  0.00588    CDp =  0.00221

 Side 1  free  transition at x/c =  0.6104   57
 Side 2  free  transition at x/c =  0.3707   46

   7   rms: 0.8010E-03   max: 0.1360E-01   C at   46  2
       a = -1.500      CL =  0.2883
      Cm = -0.0854     CD =  0.00810   =>   CDf =  0.00588    CDp =  0.00221

 Side 1  free  transition at x/c =  0.6104   57
 Side 2  free  transition at x/c =  0.3701   46

   8   rms: 0.2051E-05   max: 0.2932E-04   D at   47  2
       a = -1.500      CL =  0.2883
      Cm = -0.0854     CD =  0.00810   =>   CDf =  0.00589    CDp =  0.00221
 plradd ia,ip,cpol            6           0  6.88741310E-03

 Point added to stored polar  1
 Point written to save file  sd7062_Re600k.base.pol                          
 Dump file unspecified or not available
 Calculating wake trajectory ...
 Calculating source influence matrix ...

 Solving BL system ...

 Side 1  free  transition at x/c =  0.6104   57
 Side 2  free  transition at x/c =  0.3701   46

   1   rms: 0.2008E+00   max: -.3317E+01   C at   46  2   RLX: 0.151
       a = -1.000      CL =  0.2964
      Cm = -0.0854     CD =  0.00802   =>   CDf =  0.00589    CDp =  0.00213

 Side 1  free  transition at x/c =  0.6075   57
 Side 2  free  transition at x/c =  0.3843   46

   2   rms: 0.1083E+00   max: -.1585E+01   C at   46  2   RLX: 0.315
       a = -1.000      CL =  0.3117
      Cm = -0.0854     CD =  0.00807   =>   CDf =  0.00588    CDp =  0.00219

 Side 1  free  transition at x/c =  0.6031   56
 Side 2  free  transition at x/c =  0.4168   48

   3   rms: 0.5714E-01   max: -.3475E+00   C at   48  2
       a = -1.000      CL =  0.3450
      Cm = -0.0853     CD =  0.00795   =>   CDf =  0.00578    CDp =  0.00218

 Side 1  free  transition at x/c =  0.5891   57
 Side 2  free  transition at x/c =  0.4937   51

   4   rms: 0.2463E-01   max: 0.4079E+00   D at   47  2
       a = -1.000      CL =  0.3432
      Cm = -0.0851     CD =  0.00776   =>   CDf =  0.00566    CDp =  0.00211

 Side 1  free  transition at x/c =  0.5913   57
 Side 2  free  transition at x/c =  0.4856   51

   5   rms: 0.6556E-02   max: -.1207E+00   D at   51  2
       a = -1.000      CL =  0.3436
      Cm = -0.0852     CD =  0.00784   =>   CDf =  0.00564    CDp =  0.00220

 Side 1  free  transition at x/c =  0.5912   57
 Side 2  free  transition at x/c =  0.4766   50

   6   rms: 0.1418E-02   max: -.2542E-01   C at   50  2
       a = -1.000      CL =  0.3437
      Cm = -0.0852     CD =  0.00786   =>   CDf =  0.00567    CDp =  0.00219

 Side 1  free  transition at x/c =  0.5912   57
 Side 2  free  transition at x/c =  0.4770   50

   7   rms: 0.1542E-04   max: 0.2485E-03   C at   50  2
       a = -1.000      CL =  0.3437
      Cm = -0.0852     CD =  0.00786   =>   CDf =  0.00567    CDp =  0.00219
 plradd ia,ip,cpol            7           0  0.19561845    

 Point added to stored polar  1
 Point written to save file  sd7062_Re600k.base.pol                          
 Dump file unspecified or not available
 Calculating wake trajectory ...
 Calculating source influence matrix ...

 Solving BL system ...

 Side 1  free  transition at x/c =  0.5912   57
 Side 2  free  transition at x/c =  0.4770   50

   1   rms: 0.1096E+00   max: -.1329E+01   C at   50  2   RLX: 0.376
       a = -0.500      CL =  0.3646
      Cm = -0.0850     CD =  0.00788   =>   CDf =  0.00567    CDp =  0.00221

 Side 1  free  transition at x/c =  0.5847   56
 Side 2  free  transition at x/c =  0.5118   52

   2   rms: 0.5751E-01   max: -.2399E+00   T at   52  2
       a = -0.500      CL =  0.4008
      Cm = -0.0851     CD =  0.00784   =>   CDf =  0.00563    CDp =  0.00222

 Side 1  free  transition at x/c =  0.5699   55
 Side 2  free  transition at x/c =  0.5898   57

   3   rms: 0.1885E-01   max: 0.3561E+00   D at   52  2
       a = -0.500      CL =  0.3987
      Cm = -0.0848     CD =  0.00771   =>   CDf =  0.00551    CDp =  0.00220

 Side 1  free  transition at x/c =  0.5712   55
 Side 2  free  transition at x/c =  0.5718   56

   4   rms: 0.9562E-02   max: -.1192E+00   D at   56  2
       a = -0.500      CL =  0.3990
      Cm = -0.0848     CD =  0.00775   =>   CDf =  0.00554    CDp =  0.00222

 Side 1  free  transition at x/c =  0.5712   55
 Side 2  free  transition at x/c =  0.5650   55

   5   rms: 0.5521E-02   max: -.1032E+00   C at   55  1
       a = -0.500      CL =  0.3989
      Cm = -0.0848     CD =  0.00774   =>   CDf =  0.00555    CDp =  0.00220

 Side 1  free  transition at x/c =  0.5712   55
 Side 2  free  transition at x/c =  0.5641   55

   6   rms: 0.5433E-02   max: -.1034E+00   C at   55  1
       a = -0.500      CL =  0.3989
      Cm = -0.0848     CD =  0.00774   =>   CDf =  0.00555    CDp =  0.00219

 Side 1  free  transition at x/c =  0.5712   55
 Side 2  free  transition at x/c =  0.5641   55

   7   rms: 0.5432E-02   max: -.1034E+00   C at   55  1
       a = -0.500      CL =  0.3989
      Cm = -0.0848     CD =  0.00774   =>   CDf =  0.00555    CDp =  0.00219

 Side 1  free  transition at x/c =  0.5712   55
 Side 2  free  transition at x/c =  0.5641   55

   8   rms: 0.5432E-02   max: -.1034E+00   C at   55  1
       a = -0.500      CL =  0.3989
      Cm = -0.0848     CD =  0.00774   =>   CDf =  0.00555    CDp =  0.00219

 Side 1  free  transition at x/c =  0.5712   55
 Side 2  free  transition at x/c =  0.5641   55

   9   rms: 0.5432E-02   max: -.1034E+00   C at   55  1
       a = -0.500      CL =  0.3989
      Cm = -0.0848     CD =  0.00774   =>   CDf =  0.00555    CDp =  0.00219

 Side 1  free  transition at x/c =  0.5712   55
 Side 2  free  transition at x/c =  0.5641   55

  10   rms: 0.5432E-02   max: -.1034E+00   C at   55  1
       a = -0.500      CL =  0.3989
      Cm = -0.0848     CD =  0.00774   =>   CDf =  0.00555    CDp =  0.00219

 Side 1  free  transition at x/c =  0.5712   55
 Side 2  free  transition at x/c =  0.5641   55

  11   rms: 0.5432E-02   max: -.1034E+00   C at   55  1
       a = -0.500      CL =  0.3989
      Cm = -0.0848     CD =  0.00774   =>   CDf =  0.00555    CDp =  0.00219

 Side 1  free  transition at x/c =  0.5712   55
 Side 2  free  transition at x/c =  0.5641   55

  12   rms: 0.5432E-02   max: -.1034E+00   C at   55  1
       a = -0.500      CL =  0.3989
      Cm = -0.0848     CD =  0.00774   =>   CDf =  0.00555    CDp =  0.00219

 Side 1  free  transition at x/c =  0.5712   55
 Side 2  free  transition at x/c =  0.5641   55

  13   rms: 0.5432E-02   max: -.1034E+00   C at   55  1
       a = -0.500      CL =  0.3989
      Cm = -0.0848     CD =  0.00774   =>   CDf =  0.00555    CDp =  0.00219

 Side 1  free  transition at x/c =  0.5712   55
 Side 2  free  transition at x/c =  0.5641   55

  14   rms: 0.5432E-02   max: -.1034E+00   C at   55  1
       a = -0.500      CL =  0.3989
      Cm = -0.0848     CD =  0.00774   =>   CDf =  0.00555    CDp =  0.00219

 Side 1  free  transition at x/c =  0.5712   55
 Side 2  free  transition at x/c =  0.5641   55

  15   rms: 0.5432E-02   max: -.1034E+00   C at   55  1
       a = -0.500      CL =  0.3989
      Cm = -0.0848     CD =  0.00774   =>   CDf =  0.00555    CDp =  0.00219

 Side 1  free  transition at x/c =  0.5712   55
 Side 2  free  transition at x/c =  0.5641   55

  16   rms: 0.5432E-02   max: -.1034E+00   C at   55  1
       a = -0.500      CL =  0.3989
      Cm = -0.0848     CD =  0.00774   =>   CDf =  0.00555    CDp =  0.00219

 Side 1  free  transition at x/c =  0.5712   55
 Side 2  free  transition at x/c =  0.5641   55

  17   rms: 0.5432E-02   max: -.1034E+00   C at   55  1
       a = -0.500      CL =  0.3989
      Cm = -0.0848     CD =  0.00774   =>   CDf =  0.00555    CDp =  0.00219

 Side 1  free  transition at x/c =  0.5712   55
 Side 2  free  transition at x/c =  0.5641   55

  18   rms: 0.5432E-02   max: -.1034E+00   C at   55  1
       a = -0.500      CL =  0.3989
      Cm = -0.0848     CD =  0.00774   =>   CDf =  0.00555    CDp =  0.00219

 Side 1  free  transition at x/c =  0.5712   55
 Side 2  free  transition at x/c =  0.5641   55

  19   rms: 0.5432E-02   max: -.1034E+00   C at   55  1
       a = -0.500      CL =  0.3989
      Cm = -0.0848     CD =  0.00774   =>   CDf =  0.00555    CDp =  0.00219

 Side 1  free  transition at x/c =  0.5712   55
 Side 2  free  transition at x/c =  0.5641   55

  20   rms: 0.5432E-02   max: -.1034E+00   C at   55  1
       a = -0.500      CL =  0.3989
      Cm = -0.0848     CD =  0.00774   =>   CDf =  0.00555    CDp =  0.00219

 Side 1  free  transition at x/c =  0.5712   55
 Side 2  free  transition at x/c =  0.5641   55

  21   rms: 0.5432E-02   max: -.1034E+00   C at   55  1
       a = -0.500      CL =  0.3989
      Cm = -0.0848     CD =  0.00774   =>   CDf =  0.00555    CDp =  0.00219

 Side 1  free  transition at x/c =  0.5712   55
 Side 2  free  transition at x/c =  0.5641   55

  22   rms: 0.5432E-02   max: -.1034E+00   C at   55  1
       a = -0.500      CL =  0.3989
      Cm = -0.0848     CD =  0.00774   =>   CDf =  0.00555    CDp =  0.00219

 Side 1  free  transition at x/c =  0.5712   55
 Side 2  free  transition at x/c =  0.5641   55

  23   rms: 0.5432E-02   max: -.1034E+00   C at   55  1
       a = -0.500      CL =  0.3989
      Cm = -0.0848     CD =  0.00774   =>   CDf =  0.00555    CDp =  0.00219

 Side 1  free  transition at x/c =  0.5712   55
 Side 2  free  transition at x/c =  0.5641   55

  24   rms: 0.5432E-02   max: -.1034E+00   C at   55  1
       a = -0.500      CL =  0.3989
      Cm = -0.0848     CD =  0.00774   =>   CDf =  0.00555    CDp =  0.00219

 Side 1  free  transition at x/c =  0.5712   55
 Side 2  free  transition at x/c =  0.5641   55

  25   rms: 0.5432E-02   max: -.1034E+00   C at   55  1
       a = -0.500      CL =  0.3989
      Cm = -0.0848     CD =  0.00774   =>   CDf =  0.00555    CDp =  0.00219

 Side 1  free  transition at x/c =  0.5712   55
 Side 2  free  transition at x/c =  0.5641   55

  26   rms: 0.5432E-02   max: -.1034E+00   C at   55  1
       a = -0.500      CL =  0.3989
      Cm = -0.0848     CD =  0.00774   =>   CDf =  0.00555    CDp =  0.00219

 Side 1  free  transition at x/c =  0.5712   55
 Side 2  free  transition at x/c =  0.5641   55

  27   rms: 0.5432E-02   max: -.1034E+00   C at   55  1
       a = -0.500      CL =  0.3989
      Cm = -0.0848     CD =  0.00774   =>   CDf =  0.00555    CDp =  0.00219

 Side 1  free  transition at x/c =  0.5712   55
 Side 2  free  transition at x/c =  0.5641   55

  28   rms: 0.5432E-02   max: -.1034E+00   C at   55  1
       a = -0.500      CL =  0.3989
      Cm = -0.0848     CD =  0.00774   =>   CDf =  0.00555    CDp =  0.00219

 Side 1  free  transition at x/c =  0.5712   55
 Side 2  free  transition at x/c =  0.5641   55

  29   rms: 0.5432E-02   max: -.1034E+00   C at   55  1
       a = -0.500      CL =  0.3989
      Cm = -0.0848     CD =  0.00774   =>   CDf =  0.00555    CDp =  0.00219

 Side 1  free  transition at x/c =  0.5712   55
 Side 2  free  transition at x/c =  0.5641   55

  30   rms: 0.5432E-02   max: -.1034E+00   C at   55  1
       a = -0.500      CL =  0.3989
      Cm = -0.0848     CD =  0.00774   =>   CDf =  0.00555    CDp =  0.00219

 Side 1  free  transition at x/c =  0.5712   55
 Side 2  free  transition at x/c =  0.5641   55

  31   rms: 0.5432E-02   max: -.1034E+00   C at   55  1
       a = -0.500      CL =  0.3989
      Cm = -0.0848     CD =  0.00774   =>   CDf =  0.00555    CDp =  0.00219

 Side 1  free  transition at x/c =  0.5712   55
 Side 2  free  transition at x/c =  0.5641   55

  32   rms: 0.5432E-02   max: -.1034E+00   C at   55  1
       a = -0.500      CL =  0.3989
      Cm = -0.0848     CD =  0.00774   =>   CDf =  0.00555    CDp =  0.00219

 Side 1  free  transition at x/c =  0.5712   55
 Side 2  free  transition at x/c =  0.5641   55

  33   rms: 0.5432E-02   max: -.1034E+00   C at   55  1
       a = -0.500      CL =  0.3989
      Cm = -0.0848     CD =  0.00774   =>   CDf =  0.00555    CDp =  0.00219

 Side 1  free  transition at x/c =  0.5712   55
 Side 2  free  transition at x/c =  0.5641   55

  34   rms: 0.5432E-02   max: -.1034E+00   C at   55  1
       a = -0.500      CL =  0.3989
      Cm = -0.0848     CD =  0.00774   =>   CDf =  0.00555    CDp =  0.00219

 Side 1  free  transition at x/c =  0.5712   55
 Side 2  free  transition at x/c =  0.5641   55

  35   rms: 0.5432E-02   max: -.1034E+00   C at   55  1
       a = -0.500      CL =  0.3989
      Cm = -0.0848     CD =  0.00774   =>   CDf =  0.00555    CDp =  0.00219

 Side 1  free  transition at x/c =  0.5712   55
 Side 2  free  transition at x/c =  0.5641   55

  36   rms: 0.5432E-02   max: -.1034E+00   C at   55  1
       a = -0.500      CL =  0.3989
      Cm = -0.0848     CD =  0.00774   =>   CDf =  0.00555    CDp =  0.00219

 Side 1  free  transition at x/c =  0.5712   55
 Side 2  free  transition at x/c =  0.5641   55

  37   rms: 0.5432E-02   max: -.1034E+00   C at   55  1
       a = -0.500      CL =  0.3989
      Cm = -0.0848     CD =  0.00774   =>   CDf =  0.00555    CDp =  0.00219

 Side 1  free  transition at x/c =  0.5712   55
 Side 2  free  transition at x/c =  0.5641   55

  38   rms: 0.5432E-02   max: -.1034E+00   C at   55  1
       a = -0.500      CL =  0.3989
      Cm = -0.0848     CD =  0.00774   =>   CDf =  0.00555    CDp =  0.00219

 Side 1  free  transition at x/c =  0.5712   55
 Side 2  free  transition at x/c =  0.5641   55

  39   rms: 0.5432E-02   max: -.1034E+00   C at   55  1
       a = -0.500      CL =  0.3989
      Cm = -0.0848     CD =  0.00774   =>   CDf =  0.00555    CDp =  0.00219

 Side 1  free  transition at x/c =  0.5712   55
 Side 2  free  transition at x/c =  0.5641   55

  40   rms: 0.5432E-02   max: -.1034E+00   C at   55  1
       a = -0.500      CL =  0.3989
      Cm = -0.0848     CD =  0.00774   =>   CDf =  0.00555    CDp =  0.00219

 Side 1  free  transition at x/c =  0.5712   55
 Side 2  free  transition at x/c =  0.5641   55

  41   rms: 0.5432E-02   max: -.1034E+00   C at   55  1
       a = -0.500      CL =  0.3989
      Cm = -0.0848     CD =  0.00774   =>   CDf =  0.00555    CDp =  0.00219

 Side 1  free  transition at x/c =  0.5712   55
 Side 2  free  transition at x/c =  0.5641   55

  42   rms: 0.5432E-02   max: -.1034E+00   C at   55  1
       a = -0.500      CL =  0.3989
      Cm = -0.0848     CD =  0.00774   =>   CDf =  0.00555    CDp =  0.00219

 Side 1  free  transition at x/c =  0.5712   55
 Side 2  free  transition at x/c =  0.5641   55

  43   rms: 0.5432E-02   max: -.1034E+00   C at   55  1
       a = -0.500      CL =  0.3989
      Cm = -0.0848     CD =  0.00774   =>   CDf =  0.00555    CDp =  0.00219

 Side 1  free  transition at x/c =  0.5712   55
 Side 2  free  transition at x/c =  0.5641   55

  44   rms: 0.5432E-02   max: -.1034E+00   C at   55  1
       a = -0.500      CL =  0.3989
      Cm = -0.0848     CD =  0.00774   =>   CDf =  0.00555    CDp =  0.00219

 Side 1  free  transition at x/c =  0.5712   55
 Side 2  free  transition at x/c =  0.5641   55

  45   rms: 0.5432E-02   max: -.1034E+00   C at   55  1
       a = -0.500      CL =  0.3989
      Cm = -0.0848     CD =  0.00774   =>   CDf =  0.00555    CDp =  0.00219

 Side 1  free  transition at x/c =  0.5712   55
 Side 2  free  transition at x/c =  0.5641   55

  46   rms: 0.5432E-02   max: -.1034E+00   C at   55  1
       a = -0.500      CL =  0.3989
      Cm = -0.0848     CD =  0.00774   =>   CDf =  0.00555    CDp =  0.00219

 Side 1  free  transition at x/c =  0.5712   55
 Side 2  free  transition at x/c =  0.5641   55

  47   rms: 0.5432E-02   max: -.1034E+00   C at   55  1
       a = -0.500      CL =  0.3989
      Cm = -0.0848     CD =  0.00774   =>   CDf =  0.00555    CDp =  0.00219

 Side 1  free  transition at x/c =  0.5712   55
 Side 2  free  transition at x/c =  0.5641   55

  48   rms: 0.5432E-02   max: -.1034E+00   C at   55  1
       a = -0.500      CL =  0.3989
      Cm = -0.0848     CD =  0.00774   =>   CDf =  0.00555    CDp =  0.00219

 Side 1  free  transition at x/c =  0.5712   55
 Side 2  free  transition at x/c =  0.5641   55

  49   rms: 0.5432E-02   max: -.1034E+00   C at   55  1
       a = -0.500      CL =  0.3989
      Cm = -0.0848     CD =  0.00774   =>   CDf =  0.00555    CDp =  0.00219

 Side 1  free  transition at x/c =  0.5712   55
 Side 2  free  transition at x/c =  0.5641   55

  50   rms: 0.5432E-02   max: -.1034E+00   C at   55  1
       a = -0.500      CL =  0.3989
      Cm = -0.0848     CD =  0.00774   =>   CDf =  0.00555    CDp =  0.00219

 Side 1  free  transition at x/c =  0.5712   55
 Side 2  free  transition at x/c =  0.5641   55

  51   rms: 0.5432E-02   max: -.1034E+00   C at   55  1
       a = -0.500      CL =  0.3989
      Cm = -0.0848     CD =  0.00774   =>   CDf =  0.00555    CDp =  0.00219

 Side 1  free  transition at x/c =  0.5712   55
 Side 2  free  transition at x/c =  0.5641   55

  52   rms: 0.5432E-02   max: -.1034E+00   C at   55  1
       a = -0.500      CL =  0.3989
      Cm = -0.0848     CD =  0.00774   =>   CDf =  0.00555    CDp =  0.00219

 Side 1  free  transition at x/c =  0.5712   55
 Side 2  free  transition at x/c =  0.5641   55

  53   rms: 0.5432E-02   max: -.1034E+00   C at   55  1
       a = -0.500      CL =  0.3989
      Cm = -0.0848     CD =  0.00774   =>   CDf =  0.00555    CDp =  0.00219

 Side 1  free  transition at x/c =  0.5712   55
 Side 2  free  transition at x/c =  0.5641   55

  54   rms: 0.5432E-02   max: -.1034E+00   C at   55  1
       a = -0.500      CL =  0.3989
      Cm = -0.0848     CD =  0.00774   =>   CDf =  0.00555    CDp =  0.00219

 Side 1  free  transition at x/c =  0.5712   55
 Side 2  free  transition at x/c =  0.5641   55

  55   rms: 0.5432E-02   max: -.1034E+00   C at   55  1
       a = -0.500      CL =  0.3989
      Cm = -0.0848     CD =  0.00774   =>   CDf =  0.00555    CDp =  0.00219

 Side 1  free  transition at x/c =  0.5712   55
 Side 2  free  transition at x/c =  0.5641   55

  56   rms: 0.5432E-02   max: -.1034E+00   C at   55  1
       a = -0.500      CL =  0.3989
      Cm = -0.0848     CD =  0.00774   =>   CDf =  0.00555    CDp =  0.00219

 Side 1  free  transition at x/c =  0.5712   55
 Side 2  free  transition at x/c =  0.5641   55

  57   rms: 0.5432E-02   max: -.1034E+00   C at   55  1
       a = -0.500      CL =  0.3989
      Cm = -0.0848     CD =  0.00774   =>   CDf =  0.00555    CDp =  0.00219

 Side 1  free  transition at x/c =  0.5712   55
 Side 2  free  transition at x/c =  0.5641   55

  58   rms: 0.5432E-02   max: -.1034E+00   C at   55  1
       a = -0.500      CL =  0.3989
      Cm = -0.0848     CD =  0.00774   =>   CDf =  0.00555    CDp =  0.00219

 Side 1  free  transition at x/c =  0.5712   55
 Side 2  free  transition at x/c =  0.5641   55

  59   rms: 0.5432E-02   max: -.1034E+00   C at   55  1
       a = -0.500      CL =  0.3989
      Cm = -0.0848     CD =  0.00774   =>   CDf =  0.00555    CDp =  0.00219

 Side 1  free  transition at x/c =  0.5712   55
 Side 2  free  transition at x/c =  0.5641   55

  60   rms: 0.5432E-02   max: -.1034E+00   C at   55  1
       a = -0.500      CL =  0.3989
      Cm = -0.0848     CD =  0.00774   =>   CDf =  0.00555    CDp =  0.00219

 Side 1  free  transition at x/c =  0.5712   55
 Side 2  free  transition at x/c =  0.5641   55

  61   rms: 0.5432E-02   max: -.1034E+00   C at   55  1
       a = -0.500      CL =  0.3989
      Cm = -0.0848     CD =  0.00774   =>   CDf =  0.00555    CDp =  0.00219

 Side 1  free  transition at x/c =  0.5712   55
 Side 2  free  transition at x/c =  0.5641   55

  62   rms: 0.5432E-02   max: -.1034E+00   C at   55  1
       a = -0.500      CL =  0.3989
      Cm = -0.0848     CD =  0.00774   =>   CDf =  0.00555    CDp =  0.00219

 Side 1  free  transition at x/c =  0.5712   55
 Side 2  free  transition at x/c =  0.5641   55

  63   rms: 0.5432E-02   max: -.1034E+00   C at   55  1
       a = -0.500      CL =  0.3989
      Cm = -0.0848     CD =  0.00774   =>   CDf =  0.00555    CDp =  0.00219

 Side 1  free  transition at x/c =  0.5712   55
 Side 2  free  transition at x/c =  0.5641   55

  64   rms: 0.5432E-02   max: -.1034E+00   C at   55  1
       a = -0.500      CL =  0.3989
      Cm = -0.0848     CD =  0.00774   =>   CDf =  0.00555    CDp =  0.00219

 Side 1  free  transition at x/c =  0.5712   55
 Side 2  free  transition at x/c =  0.5641   55

  65   rms: 0.5432E-02   max: -.1034E+00   C at   55  1
       a = -0.500      CL =  0.3989
      Cm = -0.0848     CD =  0.00774   =>   CDf =  0.00555    CDp =  0.00219

 Side 1  free  transition at x/c =  0.5712   55
 Side 2  free  transition at x/c =  0.5641   55

  66   rms: 0.5432E-02   max: -.1034E+00   C at   55  1
       a = -0.500      CL =  0.3989
      Cm = -0.0848     CD =  0.00774   =>   CDf =  0.00555    CDp =  0.00219

 Side 1  free  transition at x/c =  0.5712   55
 Side 2  free  transition at x/c =  0.5641   55

  67   rms: 0.5432E-02   max: -.1034E+00   C at   55  1
       a = -0.500      CL =  0.3989
      Cm = -0.0848     CD =  0.00774   =>   CDf =  0.00555    CDp =  0.00219

 Side 1  free  transition at x/c =  0.5712   55
 Side 2  free  transition at x/c =  0.5641   55

  68   rms: 0.5432E-02   max: -.1034E+00   C at   55  1
       a = -0.500      CL =  0.3989
      Cm = -0.0848     CD =  0.00774   =>   CDf =  0.00555    CDp =  0.00219

 Side 1  free  transition at x/c =  0.5712   55
 Side 2  free  transition at x/c =  0.5641   55

  69   rms: 0.5432E-02   max: -.1034E+00   C at   55  1
       a = -0.500      CL =  0.3989
      Cm = -0.0848     CD =  0.00774   =>   CDf =  0.00555    CDp =  0.00219

 Side 1  free  transition at x/c =  0.5712   55
 Side 2  free  transition at x/c =  0.5641   55

  70   rms: 0.5432E-02   max: -.1034E+00   C at   55  1
       a = -0.500      CL =  0.3989
      Cm = -0.0848     CD =  0.00774   =>   CDf =  0.00555    CDp =  0.00219

 Side 1  free  transition at x/c =  0.5712   55
 Side 2  free  transition at x/c =  0.5641   55

  71   rms: 0.5432E-02   max: -.1034E+00   C at   55  1
       a = -0.500      CL =  0.3989
      Cm = -0.0848     CD =  0.00774   =>   CDf =  0.00555    CDp =  0.00219

 Side 1  free  transition at x/c =  0.5712   55
 Side 2  free  transition at x/c =  0.5641   55

  72   rms: 0.5432E-02   max: -.1034E+00   C at   55  1
       a = -0.500      CL =  0.3989
      Cm = -0.0848     CD =  0.00774   =>   CDf =  0.00555    CDp =  0.00219

 Side 1  free  transition at x/c =  0.5712   55
 Side 2  free  transition at x/c =  0.5641   55

  73   rms: 0.5432E-02   max: -.1034E+00   C at   55  1
       a = -0.500      CL =  0.3989
      Cm = -0.0848     CD =  0.00774   =>   CDf =  0.00555    CDp =  0.00219

 Side 1  free  transition at x/c =  0.5712   55
 Side 2  free  transition at x/c =  0.5641   55

  74   rms: 0.5432E-02   max: -.1034E+00   C at   55  1
       a = -0.500      CL =  0.3989
      Cm = -0.0848     CD =  0.00774   =>   CDf =  0.00555    CDp =  0.00219

 Side 1  free  transition at x/c =  0.5712   55
 Side 2  free  transition at x/c =  0.5641   55

  75   rms: 0.5432E-02   max: -.1034E+00   C at   55  1
       a = -0.500      CL =  0.3989
      Cm = -0.0848     CD =  0.00774   =>   CDf =  0.00555    CDp =  0.00219

 Side 1  free  transition at x/c =  0.5712   55
 Side 2  free  transition at x/c =  0.5641   55

  76   rms: 0.5432E-02   max: -.1034E+00   C at   55  1
       a = -0.500      CL =  0.3989
      Cm = -0.0848     CD =  0.00774   =>   CDf =  0.00555    CDp =  0.00219

 Side 1  free  transition at x/c =  0.5712   55
 Side 2  free  transition at x/c =  0.5641   55

  77   rms: 0.5432E-02   max: -.1034E+00   C at   55  1
       a = -0.500      CL =  0.3989
      Cm = -0.0848     CD =  0.00774   =>   CDf =  0.00555    CDp =  0.00219

 Side 1  free  transition at x/c =  0.5712   55
 Side 2  free  transition at x/c =  0.5641   55

  78   rms: 0.5432E-02   max: -.1034E+00   C at   55  1
       a = -0.500      CL =  0.3989
      Cm = -0.0848     CD =  0.00774   =>   CDf =  0.00555    CDp =  0.00219

 Side 1  free  transition at x/c =  0.5712   55
 Side 2  free  transition at x/c =  0.5641   55

  79   rms: 0.5432E-02   max: -.1034E+00   C at   55  1
       a = -0.500      CL =  0.3989
      Cm = -0.0848     CD =  0.00774   =>   CDf =  0.00555    CDp =  0.00219

 Side 1  free  transition at x/c =  0.5712   55
 Side 2  free  transition at x/c =  0.5641   55

  80   rms: 0.5432E-02   max: -.1034E+00   C at   55  1
       a = -0.500      CL =  0.3989
      Cm = -0.0848     CD =  0.00774   =>   CDf =  0.00555    CDp =  0.00219

 Side 1  free  transition at x/c =  0.5712   55
 Side 2  free  transition at x/c =  0.5641   55

  81   rms: 0.5432E-02   max: -.1034E+00   C at   55  1
       a = -0.500      CL =  0.3989
      Cm = -0.0848     CD =  0.00774   =>   CDf =  0.00555    CDp =  0.00219

 Side 1  free  transition at x/c =  0.5712   55
 Side 2  free  transition at x/c =  0.5641   55

  82   rms: 0.5432E-02   max: -.1034E+00   C at   55  1
       a = -0.500      CL =  0.3989
      Cm = -0.0848     CD =  0.00774   =>   CDf =  0.00555    CDp =  0.00219

 Side 1  free  transition at x/c =  0.5712   55
 Side 2  free  transition at x/c =  0.5641   55

  83   rms: 0.5432E-02   max: -.1034E+00   C at   55  1
       a = -0.500      CL =  0.3989
      Cm = -0.0848     CD =  0.00774   =>   CDf =  0.00555    CDp =  0.00219

 Side 1  free  transition at x/c =  0.5712   55
 Side 2  free  transition at x/c =  0.5641   55

  84   rms: 0.5432E-02   max: -.1034E+00   C at   55  1
       a = -0.500      CL =  0.3989
      Cm = -0.0848     CD =  0.00774   =>   CDf =  0.00555    CDp =  0.00219

 Side 1  free  transition at x/c =  0.5712   55
 Side 2  free  transition at x/c =  0.5641   55

  85   rms: 0.5432E-02   max: -.1034E+00   C at   55  1
       a = -0.500      CL =  0.3989
      Cm = -0.0848     CD =  0.00774   =>   CDf =  0.00555    CDp =  0.00219

 Side 1  free  transition at x/c =  0.5712   55
 Side 2  free  transition at x/c =  0.5641   55

  86   rms: 0.5432E-02   max: -.1034E+00   C at   55  1
       a = -0.500      CL =  0.3989
      Cm = -0.0848     CD =  0.00774   =>   CDf =  0.00555    CDp =  0.00219

 Side 1  free  transition at x/c =  0.5712   55
 Side 2  free  transition at x/c =  0.5641   55

  87   rms: 0.5432E-02   max: -.1034E+00   C at   55  1
       a = -0.500      CL =  0.3989
      Cm = -0.0848     CD =  0.00774   =>   CDf =  0.00555    CDp =  0.00219

 Side 1  free  transition at x/c =  0.5712   55
 Side 2  free  transition at x/c =  0.5641   55

  88   rms: 0.5432E-02   max: -.1034E+00   C at   55  1
       a = -0.500      CL =  0.3989
      Cm = -0.0848     CD =  0.00774   =>   CDf =  0.00555    CDp =  0.00219

 Side 1  free  transition at x/c =  0.5712   55
 Side 2  free  transition at x/c =  0.5641   55

  89   rms: 0.5432E-02   max: -.1034E+00   C at   55  1
       a = -0.500      CL =  0.3989
      Cm = -0.0848     CD =  0.00774   =>   CDf =  0.00555    CDp =  0.00219

 Side 1  free  transition at x/c =  0.5712   55
 Side 2  free  transition at x/c =  0.5641   55

  90   rms: 0.5432E-02   max: -.1034E+00   C at   55  1
       a = -0.500      CL =  0.3989
      Cm = -0.0848     CD =  0.00774   =>   CDf =  0.00555    CDp =  0.00219

 Side 1  free  transition at x/c =  0.5712   55
 Side 2  free  transition at x/c =  0.5641   55

  91   rms: 0.5432E-02   max: -.1034E+00   C at   55  1
       a = -0.500      CL =  0.3989
      Cm = -0.0848     CD =  0.00774   =>   CDf =  0.00555    CDp =  0.00219

 Side 1  free  transition at x/c =  0.5712   55
 Side 2  free  transition at x/c =  0.5641   55

  92   rms: 0.5432E-02   max: -.1034E+00   C at   55  1
       a = -0.500      CL =  0.3989
      Cm = -0.0848     CD =  0.00774   =>   CDf =  0.00555    CDp =  0.00219

 Side 1  free  transition at x/c =  0.5712   55
 Side 2  free  transition at x/c =  0.5641   55

  93   rms: 0.5432E-02   max: -.1034E+00   C at   55  1
       a = -0.500      CL =  0.3989
      Cm = -0.0848     CD =  0.00774   =>   CDf =  0.00555    CDp =  0.00219

 Side 1  free  transition at x/c =  0.5712   55
 Side 2  free  transition at x/c =  0.5641   55

  94   rms: 0.5432E-02   max: -.1034E+00   C at   55  1
       a = -0.500      CL =  0.3989
      Cm = -0.0848     CD =  0.00774   =>   CDf =  0.00555    CDp =  0.00219

 Side 1  free  transition at x/c =  0.5712   55
 Side 2  free  transition at x/c =  0.5641   55

  95   rms: 0.5432E-02   max: -.1034E+00   C at   55  1
       a = -0.500      CL =  0.3989
      Cm = -0.0848     CD =  0.00774   =>   CDf =  0.00555    CDp =  0.00219

 Side 1  free  transition at x/c =  0.5712   55
 Side 2  free  transition at x/c =  0.5641   55

  96   rms: 0.5432E-02   max: -.1034E+00   C at   55  1
       a = -0.500      CL =  0.3989
      Cm = -0.0848     CD =  0.00774   =>   CDf =  0.00555    CDp =  0.00219

 Side 1  free  transition at x/c =  0.5712   55
 Side 2  free  transition at x/c =  0.5641   55

  97   rms: 0.5432E-02   max: -.1034E+00   C at   55  1
       a = -0.500      CL =  0.3989
      Cm = -0.0848     CD =  0.00774   =>   CDf =  0.00555    CDp =  0.00219

 Side 1  free  transition at x/c =  0.5712   55
 Side 2  free  transition at x/c =  0.5641   55

  98   rms: 0.5432E-02   max: -.1034E+00   C at   55  1
       a = -0.500      CL =  0.3989
      Cm = -0.0848     CD =  0.00774   =>   CDf =  0.00555    CDp =  0.00219

 Side 1  free  transition at x/c =  0.5712   55
 Side 2  free  transition at x/c =  0.5641   55

  99   rms: 0.5432E-02   max: -.1034E+00   C at   55  1
       a = -0.500      CL =  0.3989
      Cm = -0.0848     CD =  0.00774   =>   CDf =  0.00555    CDp =  0.00219

 Side 1  free  transition at x/c =  0.5712   55
 Side 2  free  transition at x/c =  0.5641   55

 100   rms: 0.5432E-02   max: -.1034E+00   C at   55  1
       a = -0.500      CL =  0.3989
      Cm = -0.0848     CD =  0.00774   =>   CDf =  0.00555    CDp =  0.00219

 Side 1  free  transition at x/c =  0.5712   55
 Side 2  free  transition at x/c =  0.5641   55

 101   rms: 0.5432E-02   max: -.1034E+00   C at   55  1
       a = -0.500      CL =  0.3989
      Cm = -0.0848     CD =  0.00774   =>   CDf =  0.00555    CDp =  0.00219

 Side 1  free  transition at x/c =  0.5712   55
 Side 2  free  transition at x/c =  0.5641   55

 102   rms: 0.5432E-02   max: -.1034E+00   C at   55  1
       a = -0.500      CL =  0.3989
      Cm = -0.0848     CD =  0.00774   =>   CDf =  0.00555    CDp =  0.00219

 Side 1  free  transition at x/c =  0.5712   55
 Side 2  free  transition at x/c =  0.5641   55

 103   rms: 0.5432E-02   max: -.1034E+00   C at   55  1
       a = -0.500      CL =  0.3989
      Cm = -0.0848     CD =  0.00774   =>   CDf =  0.00555    CDp =  0.00219

 Side 1  free  transition at x/c =  0.5712   55
 Side 2  free  transition at x/c =  0.5641   55

 104   rms: 0.5432E-02   max: -.1034E+00   C at   55  1
       a = -0.500      CL =  0.3989
      Cm = -0.0848     CD =  0.00774   =>   CDf =  0.00555    CDp =  0.00219

 Side 1  free  transition at x/c =  0.5712   55
 Side 2  free  transition at x/c =  0.5641   55

 105   rms: 0.5432E-02   max: -.1034E+00   C at   55  1
       a = -0.500      CL =  0.3989
      Cm = -0.0848     CD =  0.00774   =>   CDf =  0.00555    CDp =  0.00219

 Side 1  free  transition at x/c =  0.5712   55
 Side 2  free  transition at x/c =  0.5641   55

 106   rms: 0.5432E-02   max: -.1034E+00   C at   55  1
       a = -0.500      CL =  0.3989
      Cm = -0.0848     CD =  0.00774   =>   CDf =  0.00555    CDp =  0.00219

 Side 1  free  transition at x/c =  0.5712   55
 Side 2  free  transition at x/c =  0.5641   55

 107   rms: 0.5432E-02   max: -.1034E+00   C at   55  1
       a = -0.500      CL =  0.3989
      Cm = -0.0848     CD =  0.00774   =>   CDf =  0.00555    CDp =  0.00219

 Side 1  free  transition at x/c =  0.5712   55
 Side 2  free  transition at x/c =  0.5641   55

 108   rms: 0.5432E-02   max: -.1034E+00   C at   55  1
       a = -0.500      CL =  0.3989
      Cm = -0.0848     CD =  0.00774   =>   CDf =  0.00555    CDp =  0.00219

 Side 1  free  transition at x/c =  0.5712   55
 Side 2  free  transition at x/c =  0.5641   55

 109   rms: 0.5432E-02   max: -.1034E+00   C at   55  1
       a = -0.500      CL =  0.3989
      Cm = -0.0848     CD =  0.00774   =>   CDf =  0.00555    CDp =  0.00219

 Side 1  free  transition at x/c =  0.5712   55
 Side 2  free  transition at x/c =  0.5641   55

 110   rms: 0.5432E-02   max: -.1034E+00   C at   55  1
       a = -0.500      CL =  0.3989
      Cm = -0.0848     CD =  0.00774   =>   CDf =  0.00555    CDp =  0.00219

 Side 1  free  transition at x/c =  0.5712   55
 Side 2  free  transition at x/c =  0.5641   55

 111   rms: 0.5432E-02   max: -.1034E+00   C at   55  1
       a = -0.500      CL =  0.3989
      Cm = -0.0848     CD =  0.00774   =>   CDf =  0.00555    CDp =  0.00219

 Side 1  free  transition at x/c =  0.5712   55
 Side 2  free  transition at x/c =  0.5641   55

 112   rms: 0.5432E-02   max: -.1034E+00   C at   55  1
       a = -0.500      CL =  0.3989
      Cm = -0.0848     CD =  0.00774   =>   CDf =  0.00555    CDp =  0.00219

 Side 1  free  transition at x/c =  0.5712   55
 Side 2  free  transition at x/c =  0.5641   55

 113   rms: 0.5432E-02   max: -.1034E+00   C at   55  1
       a = -0.500      CL =  0.3989
      Cm = -0.0848     CD =  0.00774   =>   CDf =  0.00555    CDp =  0.00219

 Side 1  free  transition at x/c =  0.5712   55
 Side 2  free  transition at x/c =  0.5641   55

 114   rms: 0.5432E-02   max: -.1034E+00   C at   55  1
       a = -0.500      CL =  0.3989
      Cm = -0.0848     CD =  0.00774   =>   CDf =  0.00555    CDp =  0.00219

 Side 1  free  transition at x/c =  0.5712   55
 Side 2  free  transition at x/c =  0.5641   55

 115   rms: 0.5432E-02   max: -.1034E+00   C at   55  1
       a = -0.500      CL =  0.3989
      Cm = -0.0848     CD =  0.00774   =>   CDf =  0.00555    CDp =  0.00219

 Side 1  free  transition at x/c =  0.5712   55
 Side 2  free  transition at x/c =  0.5641   55

 116   rms: 0.5432E-02   max: -.1034E+00   C at   55  1
       a = -0.500      CL =  0.3989
      Cm = -0.0848     CD =  0.00774   =>   CDf =  0.00555    CDp =  0.00219

 Side 1  free  transition at x/c =  0.5712   55
 Side 2  free  transition at x/c =  0.5641   55

 117   rms: 0.5432E-02   max: -.1034E+00   C at   55  1
       a = -0.500      CL =  0.3989
      Cm = -0.0848     CD =  0.00774   =>   CDf =  0.00555    CDp =  0.00219

 Side 1  free  transition at x/c =  0.5712   55
 Side 2  free  transition at x/c =  0.5641   55

 118   rms: 0.5432E-02   max: -.1034E+00   C at   55  1
       a = -0.500      CL =  0.3989
      Cm = -0.0848     CD =  0.00774   =>   CDf =  0.00555    CDp =  0.00219

 Side 1  free  transition at x/c =  0.5712   55
 Side 2  free  transition at x/c =  0.5641   55

 119   rms: 0.5432E-02   max: -.1034E+00   C at   55  1
       a = -0.500      CL =  0.3989
      Cm = -0.0848     CD =  0.00774   =>   CDf =  0.00555    CDp =  0.00219

 Side 1  free  transition at x/c =  0.5712   55
 Side 2  free  transition at x/c =  0.5641   55

 120   rms: 0.5432E-02   max: -.1034E+00   C at   55  1
       a = -0.500      CL =  0.3989
      Cm = -0.0848     CD =  0.00774   =>   CDf =  0.00555    CDp =  0.00219

 Side 1  free  transition at x/c =  0.5712   55
 Side 2  free  transition at x/c =  0.5641   55

 121   rms: 0.5432E-02   max: -.1034E+00   C at   55  1
       a = -0.500      CL =  0.3989
      Cm = -0.0848     CD =  0.00774   =>   CDf =  0.00555    CDp =  0.00219

 Side 1  free  transition at x/c =  0.5712   55
 Side 2  free  transition at x/c =  0.5641   55

 122   rms: 0.5432E-02   max: -.1034E+00   C at   55  1
       a = -0.500      CL =  0.3989
      Cm = -0.0848     CD =  0.00774   =>   CDf =  0.00555    CDp =  0.00219

 Side 1  free  transition at x/c =  0.5712   55
 Side 2  free  transition at x/c =  0.5641   55

 123   rms: 0.5432E-02   max: -.1034E+00   C at   55  1
       a = -0.500      CL =  0.3989
      Cm = -0.0848     CD =  0.00774   =>   CDf =  0.00555    CDp =  0.00219

 Side 1  free  transition at x/c =  0.5712   55
 Side 2  free  transition at x/c =  0.5641   55

 124   rms: 0.5432E-02   max: -.1034E+00   C at   55  1
       a = -0.500      CL =  0.3989
      Cm = -0.0848     CD =  0.00774   =>   CDf =  0.00555    CDp =  0.00219

 Side 1  free  transition at x/c =  0.5712   55
 Side 2  free  transition at x/c =  0.5641   55

 125   rms: 0.5432E-02   max: -.1034E+00   C at   55  1
       a = -0.500      CL =  0.3989
      Cm = -0.0848     CD =  0.00774   =>   CDf =  0.00555    CDp =  0.00219

 Side 1  free  transition at x/c =  0.5712   55
 Side 2  free  transition at x/c =  0.5641   55

 126   rms: 0.5432E-02   max: -.1034E+00   C at   55  1
       a = -0.500      CL =  0.3989
      Cm = -0.0848     CD =  0.00774   =>   CDf =  0.00555    CDp =  0.00219

 Side 1  free  transition at x/c =  0.5712   55
 Side 2  free  transition at x/c =  0.5641   55

 127   rms: 0.5432E-02   max: -.1034E+00   C at   55  1
       a = -0.500      CL =  0.3989
      Cm = -0.0848     CD =  0.00774   =>   CDf =  0.00555    CDp =  0.00219

 Side 1  free  transition at x/c =  0.5712   55
 Side 2  free  transition at x/c =  0.5641   55

 128   rms: 0.5432E-02   max: -.1034E+00   C at   55  1
       a = -0.500      CL =  0.3989
      Cm = -0.0848     CD =  0.00774   =>   CDf =  0.00555    CDp =  0.00219

 Side 1  free  transition at x/c =  0.5712   55
 Side 2  free  transition at x/c =  0.5641   55

 129   rms: 0.5432E-02   max: -.1034E+00   C at   55  1
       a = -0.500      CL =  0.3989
      Cm = -0.0848     CD =  0.00774   =>   CDf =  0.00555    CDp =  0.00219

 Side 1  free  transition at x/c =  0.5712   55
 Side 2  free  transition at x/c =  0.5641   55

 130   rms: 0.5432E-02   max: -.1034E+00   C at   55  1
       a = -0.500      CL =  0.3989
      Cm = -0.0848     CD =  0.00774   =>   CDf =  0.00555    CDp =  0.00219

 Side 1  free  transition at x/c =  0.5712   55
 Side 2  free  transition at x/c =  0.5641   55

 131   rms: 0.5432E-02   max: -.1034E+00   C at   55  1
       a = -0.500      CL =  0.3989
      Cm = -0.0848     CD =  0.00774   =>   CDf =  0.00555    CDp =  0.00219

 Side 1  free  transition at x/c =  0.5712   55
 Side 2  free  transition at x/c =  0.5641   55

 132   rms: 0.5432E-02   max: -.1034E+00   C at   55  1
       a = -0.500      CL =  0.3989
      Cm = -0.0848     CD =  0.00774   =>   CDf =  0.00555    CDp =  0.00219

 Side 1  free  transition at x/c =  0.5712   55
 Side 2  free  transition at x/c =  0.5641   55

 133   rms: 0.5432E-02   max: -.1034E+00   C at   55  1
       a = -0.500      CL =  0.3989
      Cm = -0.0848     CD =  0.00774   =>   CDf =  0.00555    CDp =  0.00219

 Side 1  free  transition at x/c =  0.5712   55
 Side 2  free  transition at x/c =  0.5641   55

 134   rms: 0.5432E-02   max: -.1034E+00   C at   55  1
       a = -0.500      CL =  0.3989
      Cm = -0.0848     CD =  0.00774   =>   CDf =  0.00555    CDp =  0.00219

 Side 1  free  transition at x/c =  0.5712   55
 Side 2  free  transition at x/c =  0.5641   55

 135   rms: 0.5432E-02   max: -.1034E+00   C at   55  1
       a = -0.500      CL =  0.3989
      Cm = -0.0848     CD =  0.00774   =>   CDf =  0.00555    CDp =  0.00219

 Side 1  free  transition at x/c =  0.5712   55
 Side 2  free  transition at x/c =  0.5641   55

 136   rms: 0.5432E-02   max: -.1034E+00   C at   55  1
       a = -0.500      CL =  0.3989
      Cm = -0.0848     CD =  0.00774   =>   CDf =  0.00555    CDp =  0.00219

 Side 1  free  transition at x/c =  0.5712   55
 Side 2  free  transition at x/c =  0.5641   55

 137   rms: 0.5432E-02   max: -.1034E+00   C at   55  1
       a = -0.500      CL =  0.3989
      Cm = -0.0848     CD =  0.00774   =>   CDf =  0.00555    CDp =  0.00219

 Side 1  free  transition at x/c =  0.5712   55
 Side 2  free  transition at x/c =  0.5641   55

 138   rms: 0.5432E-02   max: -.1034E+00   C at   55  1
       a = -0.500      CL =  0.3989
      Cm = -0.0848     CD =  0.00774   =>   CDf =  0.00555    CDp =  0.00219

 Side 1  free  transition at x/c =  0.5712   55
 Side 2  free  transition at x/c =  0.5641   55

 139   rms: 0.5432E-02   max: -.1034E+00   C at   55  1
       a = -0.500      CL =  0.3989
      Cm = -0.0848     CD =  0.00774   =>   CDf =  0.00555    CDp =  0.00219

 Side 1  free  transition at x/c =  0.5712   55
 Side 2  free  transition at x/c =  0.5641   55

 140   rms: 0.5432E-02   max: -.1034E+00   C at   55  1
       a = -0.500      CL =  0.3989
      Cm = -0.0848     CD =  0.00774   =>   CDf =  0.00555    CDp =  0.00219

 Side 1  free  transition at x/c =  0.5712   55
 Side 2  free  transition at x/c =  0.5641   55

 141   rms: 0.5432E-02   max: -.1034E+00   C at   55  1
       a = -0.500      CL =  0.3989
      Cm = -0.0848     CD =  0.00774   =>   CDf =  0.00555    CDp =  0.00219

 Side 1  free  transition at x/c =  0.5712   55
 Side 2  free  transition at x/c =  0.5641   55

 142   rms: 0.5432E-02   max: -.1034E+00   C at   55  1
       a = -0.500      CL =  0.3989
      Cm = -0.0848     CD =  0.00774   =>   CDf =  0.00555    CDp =  0.00219

 Side 1  free  transition at x/c =  0.5712   55
 Side 2  free  transition at x/c =  0.5641   55

 143   rms: 0.5432E-02   max: -.1034E+00   C at   55  1
       a = -0.500      CL =  0.3989
      Cm = -0.0848     CD =  0.00774   =>   CDf =  0.00555    CDp =  0.00219

 Side 1  free  transition at x/c =  0.5712   55
 Side 2  free  transition at x/c =  0.5641   55

 144   rms: 0.5432E-02   max: -.1034E+00   C at   55  1
       a = -0.500      CL =  0.3989
      Cm = -0.0848     CD =  0.00774   =>   CDf =  0.00555    CDp =  0.00219

 Side 1  free  transition at x/c =  0.5712   55
 Side 2  free  transition at x/c =  0.5641   55

 145   rms: 0.5432E-02   max: -.1034E+00   C at   55  1
       a = -0.500      CL =  0.3989
      Cm = -0.0848     CD =  0.00774   =>   CDf =  0.00555    CDp =  0.00219

 Side 1  free  transition at x/c =  0.5712   55
 Side 2  free  transition at x/c =  0.5641   55

 146   rms: 0.5432E-02   max: -.1034E+00   C at   55  1
       a = -0.500      CL =  0.3989
      Cm = -0.0848     CD =  0.00774   =>   CDf =  0.00555    CDp =  0.00219

 Side 1  free  transition at x/c =  0.5712   55
 Side 2  free  transition at x/c =  0.5641   55

 147   rms: 0.5432E-02   max: -.1034E+00   C at   55  1
       a = -0.500      CL =  0.3989
      Cm = -0.0848     CD =  0.00774   =>   CDf =  0.00555    CDp =  0.00219

 Side 1  free  transition at x/c =  0.5712   55
 Side 2  free  transition at x/c =  0.5641   55

 148   rms: 0.5432E-02   max: -.1034E+00   C at   55  1
       a = -0.500      CL =  0.3989
      Cm = -0.0848     CD =  0.00774   =>   CDf =  0.00555    CDp =  0.00219

 Side 1  free  transition at x/c =  0.5712   55
 Side 2  free  transition at x/c =  0.5641   55

 149   rms: 0.5432E-02   max: -.1034E+00   C at   55  1
       a = -0.500      CL =  0.3989
      Cm = -0.0848     CD =  0.00774   =>   CDf =  0.00555    CDp =  0.00219

 Side 1  free  transition at x/c =  0.5712   55
 Side 2  free  transition at x/c =  0.5641   55

 150   rms: 0.5432E-02   max: -.1034E+00   C at   55  1
       a = -0.500      CL =  0.3989
      Cm = -0.0848     CD =  0.00774   =>   CDf =  0.00555    CDp =  0.00219

 Side 1  free  transition at x/c =  0.5712   55
 Side 2  free  transition at x/c =  0.5641   55

 151   rms: 0.5432E-02   max: -.1034E+00   C at   55  1
       a = -0.500      CL =  0.3989
      Cm = -0.0848     CD =  0.00774   =>   CDf =  0.00555    CDp =  0.00219

 Side 1  free  transition at x/c =  0.5712   55
 Side 2  free  transition at x/c =  0.5641   55

 152   rms: 0.5432E-02   max: -.1034E+00   C at   55  1
       a = -0.500      CL =  0.3989
      Cm = -0.0848     CD =  0.00774   =>   CDf =  0.00555    CDp =  0.00219

 Side 1  free  transition at x/c =  0.5712   55
 Side 2  free  transition at x/c =  0.5641   55

 153   rms: 0.5432E-02   max: -.1034E+00   C at   55  1
       a = -0.500      CL =  0.3989
      Cm = -0.0848     CD =  0.00774   =>   CDf =  0.00555    CDp =  0.00219

 Side 1  free  transition at x/c =  0.5712   55
 Side 2  free  transition at x/c =  0.5641   55

 154   rms: 0.5432E-02   max: -.1034E+00   C at   55  1
       a = -0.500      CL =  0.3989
      Cm = -0.0848     CD =  0.00774   =>   CDf =  0.00555    CDp =  0.00219

 Side 1  free  transition at x/c =  0.5712   55
 Side 2  free  transition at x/c =  0.5641   55

 155   rms: 0.5432E-02   max: -.1034E+00   C at   55  1
       a = -0.500      CL =  0.3989
      Cm = -0.0848     CD =  0.00774   =>   CDf =  0.00555    CDp =  0.00219
 VISCAL:  Convergence failed
 Calculating wake trajectory ...
 Calculating source influence matrix ...

 Solving BL system ...

 Side 1  free  transition at x/c =  0.5712   55
 Side 2  free  transition at x/c =  0.5641   55

   1   rms: 0.1117E+00   max: -.1368E+01   C at   55  2   RLX: 0.365
       a =  0.000      CL =  0.4197
      Cm = -0.0847     CD =  0.00770   =>   CDf =  0.00551    CDp =  0.00219

 Side 1  free  transition at x/c =  0.5639   56
 Side 2  free  transition at x/c =  0.5869   55

   2   rms: 0.6155E-01   max: -.4619E+00   C at   55  2
       a =  0.000      CL =  0.4556
      Cm = -0.0846     CD =  0.00775   =>   CDf =  0.00550    CDp =  0.00224

 Side 1  free  transition at x/c =  0.5510   55
 Side 2  free  transition at x/c =  0.6237   57

   3   rms: 0.1207E-01   max: -.1933E+00   C at   57  2
       a =  0.000      CL =  0.4548
      Cm = -0.0844     CD =  0.00773   =>   CDf =  0.00552    CDp =  0.00220

 Side 1  free  transition at x/c =  0.5524   55
 Side 2  free  transition at x/c =  0.6376   58

   4   rms: 0.7535E-02   max: 0.1480E+00   C at   58  2
       a =  0.000      CL =  0.4544
      Cm = -0.0844     CD =  0.00769   =>   CDf =  0.00540    CDp =  0.00229

 Side 1  free  transition at x/c =  0.5524   55
 Side 2  free  transition at x/c =  0.6338   58

   5   rms: 0.2832E-03   max: -.5144E-02   D at   60  2
       a =  0.000      CL =  0.4544
      Cm = -0.0844     CD =  0.00769   =>   CDf =  0.00542    CDp =  0.00227

 Side 1  free  transition at x/c =  0.5524   55
 Side 2  free  transition at x/c =  0.6336   58

   6   rms: 0.8642E-06   max: -.1588E-04   D at   60  2
       a =  0.000      CL =  0.4544
      Cm = -0.0844     CD =  0.00769   =>   CDf =  0.00542    CDp =  0.00227
 plradd ia,ip,cpol            8           0  0.16708602    

 Point added to stored polar  1
 Point written to save file  sd7062_Re600k.base.pol                          
 Dump file unspecified or not available
 Calculating wake trajectory ...
 Calculating source influence matrix ...

 Solving BL system ...

 Side 1  free  transition at x/c =  0.5524   55
 Side 2  free  transition at x/c =  0.6336   58

   1   rms: 0.1020E+00   max: -.1178E+01   C at   58  2   RLX: 0.425
       a =  0.500      CL =  0.4783
      Cm = -0.0843     CD =  0.00765   =>   CDf =  0.00542    CDp =  0.00223

 Side 1  free  transition at x/c =  0.5426   55
 Side 2  free  transition at x/c =  0.6539   59

   2   rms: 0.9204E-01   max: 0.9913E+00   D at    3  2   RLX: 0.523
       a =  0.500      CL =  0.4949
      Cm = -0.0842     CD =  0.00773   =>   CDf =  0.00537    CDp =  0.00236

 Side 1  free  transition at x/c =  0.5374   56
 Side 2  free  transition at x/c =  0.6723   59

   3   rms: 0.3454E-01   max: -.4855E+00   C at   59  2
       a =  0.500      CL =  0.5089
      Cm = -0.0838     CD =  0.00774   =>   CDf =  0.00542    CDp =  0.00232

 Side 1  free  transition at x/c =  0.5331   55
 Side 2  free  transition at x/c =  0.6918   60

   4   rms: 0.8128E-02   max: -.1509E+00   C at   60  2
       a =  0.500      CL =  0.5095
      Cm = -0.0839     CD =  0.00768   =>   CDf =  0.00537    CDp =  0.00231

 Side 1  free  transition at x/c =  0.5328   55
 Side 2  free  transition at x/c =  0.6973   61

   5   rms: 0.9150E-03   max: -.1670E-01   C at   61  2
       a =  0.500      CL =  0.5095
      Cm = -0.0839     CD =  0.00768   =>   CDf =  0.00534    CDp =  0.00234

 Side 1  free  transition at x/c =  0.5327   55
 Side 2  free  transition at x/c =  0.6976   61

   6   rms: 0.7351E-05   max: 0.1165E-03   C at   61  2
       a =  0.500      CL =  0.5095
      Cm = -0.0839     CD =  0.00768   =>   CDf =  0.00534    CDp =  0.00234
 plradd ia,ip,cpol            9           0  0.15337558    

 Point added to stored polar  1
 Point written to save file  sd7062_Re600k.base.pol                          
 Dump file unspecified or not available
 Calculating wake trajectory ...
 Calculating source influence matrix ...

 Solving BL system ...

 Side 1  free  transition at x/c =  0.5327   55
 Side 2  free  transition at x/c =  0.6976   61

   1   rms: 0.1102E+00   max: -.1277E+01   C at   61  2   RLX: 0.392
       a =  1.000      CL =  0.5306
      Cm = -0.0836     CD =  0.00762   =>   CDf =  0.00534    CDp =  0.00228

 Side 1  free  transition at x/c =  0.5237   55
 Side 2  free  transition at x/c =  0.7137   61

   2   rms: 0.5406E-01   max: -.2535E+00   T at   61  2
       a =  1.000      CL =  0.5652
      Cm = -0.0835     CD =  0.00790   =>   CDf =  0.00533    CDp =  0.00257

 Side 1  free  transition at x/c =  0.5135   55
 Side 2  free  transition at x/c =  0.7753   64

   3   rms: 0.1574E-01   max: 0.2617E+00   C at   64  2
       a =  1.000      CL =  0.5636
      Cm = -0.0831     CD =  0.00770   =>   CDf =  0.00522    CDp =  0.00248

 Side 1  free  transition at x/c =  0.5129   55
 Side 2  free  transition at x/c =  0.7641   63

   4   rms: 0.2463E-02   max: 0.3744E-01   C at   63  2
       a =  1.000      CL =  0.5634
      Cm = -0.0831     CD =  0.00769   =>   CDf =  0.00523    CDp =  0.00246

 Side 1  free  transition at x/c =  0.5129   55
 Side 2  free  transition at x/c =  0.7619   63

   5   rms: 0.6833E-04   max: -.1351E-02   C at   63  2
       a =  1.000      CL =  0.5634
      Cm = -0.0831     CD =  0.00769   =>   CDf =  0.00524    CDp =  0.00245
 plradd ia,ip,cpol           10           0  0.15337558    

 Point added to stored polar  1
 Point written to save file  sd7062_Re600k.base.pol                          
 Dump file unspecified or not available
 Calculating wake trajectory ...
 Calculating source influence matrix ...

 Solving BL system ...

 Side 1  free  transition at x/c =  0.5129   55
 Side 2  free  transition at x/c =  0.7620   63

   1   rms: 0.9927E-01   max: -.1135E+01   C at   63  2   RLX: 0.440
       a =  1.500      CL =  0.5871
      Cm = -0.0827     CD =  0.00770   =>   CDf =  0.00524    CDp =  0.00246

 Side 1  free  transition at x/c =  0.5031   55
 Side 2  free  transition at x/c =  0.7848   64

   2   rms: 0.5241E-01   max: -.4990E+00   C at   64  2
       a =  1.500      CL =  0.6162
      Cm = -0.0821     CD =  0.00790   =>   CDf =  0.00527    CDp =  0.00262

 Side 1  free  transition at x/c =  0.4933   54
 Side 2  free  transition at x/c =  0.8251   67

   3   rms: 0.1275E-01   max: -.1991E+00   C at   67  2
       a =  1.500      CL =  0.6154
      Cm = -0.0818     CD =  0.00770   =>   CDf =  0.00518    CDp =  0.00252

 Side 1  free  transition at x/c =  0.4934   54
 Side 2  free  transition at x/c =  0.8303   67

   4   rms: 0.3121E-03   max: 0.3650E-02   C at   54  1
       a =  1.500      CL =  0.6154
      Cm = -0.0818     CD =  0.00772   =>   CDf =  0.00514    CDp =  0.00258

 Side 1  free  transition at x/c =  0.4933   54
 Side 2  free  transition at x/c =  0.8304   67

   5   rms: 0.1385E-05   max: -.1986E-04   C at   67  2
       a =  1.500      CL =  0.6154
      Cm = -0.0818     CD =  0.00772   =>   CDf =  0.00514    CDp =  0.00258
 plradd ia,ip,cpol           11           0  0.14010057    

 Point added to stored polar  1
 Point written to save file  sd7062_Re600k.base.pol                          
 Dump file unspecified or not available
 Calculating wake trajectory ...
 Calculating source influence matrix ...

 Solving BL system ...

 Side 1  free  transition at x/c =  0.4933   54
 Side 2  free  transition at x/c =  0.8304   67

   1   rms: 0.1074E+00   max: -.1426E+01   C at   67  2   RLX: 0.351
       a =  2.000      CL =  0.6328
      Cm = -0.0812     CD =  0.00772   =>   CDf =  0.00507    CDp =  0.00265

 Side 1  free  transition at x/c =  0.4861   55
 Side 2  free  transition at x/c =  0.8508   67

   2   rms: 0.6867E-01   max: -.8730E+00   C at   67  2   RLX: 0.573
       a =  2.000      CL =  0.6509
      Cm = -0.0806     CD =  0.00785   =>   CDf =  0.00516    CDp =  0.00269

 Side 1  free  transition at x/c =  0.4794   54
 Side 2  free  transition at x/c =  0.8774   69

   3   rms: 0.4328E-01   max: -.7310E+00   C at   69  2   RLX: 0.684
       a =  2.000      CL =  0.6591
      Cm = -0.0799     CD =  0.00772   =>   CDf =  0.00510    CDp =  0.00262

 Side 1  free  transition at x/c =  0.4756   54
 Side 2  free  transition at x/c =  0.8928   70

   4   rms: 0.2794E-01   max: -.5182E+00   C at   70  2   RLX: 0.965
       a =  2.000      CL =  0.6625
      Cm = -0.0794     CD =  0.00770   =>   CDf =  0.00509    CDp =  0.00261

 Side 1  free  transition at x/c =  0.4741   54
 Side 2  free  transition at x/c =  0.9096   71

   5   rms: 0.1161E-01   max: -.2233E+00   C at   71  2
       a =  2.000      CL =  0.6625
      Cm = -0.0793     CD =  0.00772   =>   CDf =  0.00505    CDp =  0.00267

 Side 1  free  transition at x/c =  0.4741   54
 Side 2  free  transition at x/c =  0.9152   71

   6   rms: 0.3246E-03   max: -.4301E-02   D at   73  2
       a =  2.000      CL =  0.6625
      Cm = -0.0794     CD =  0.00773   =>   CDf =  0.00502    CDp =  0.00270

 Side 1  free  transition at x/c =  0.4741   54
 Side 2  free  transition at x/c =  0.9150   71

   7   rms: 0.1851E-05   max: -.3143E-04   C at   71  2
       a =  2.000      CL =  0.6625
      Cm = -0.0794     CD =  0.00773   =>   CDf =  0.00502    CDp =  0.00270
 plradd ia,ip,cpol           12           0  0.12730815    

 Point added to stored polar  1
 Point written to save file  sd7062_Re600k.base.pol                          
 Dump file unspecified or not available
 Calculating wake trajectory ...
 Calculating source influence matrix ...

 Solving BL system ...

 Side 1  free  transition at x/c =  0.4741   54
 Side 2  free  transition at x/c =  0.9150   71

   1   rms: 0.1403E+00   max: -.2281E+01   C at   71  2   RLX: 0.219
       a =  2.500      CL =  0.6723
      Cm = -0.0787     CD =  0.00773   =>   CDf =  0.00503    CDp =  0.00270

 Side 1  free  transition at x/c =  0.4700   54
 Side 2  free  transition at x/c =  0.9347   72

   2   rms: 0.1205E+00   max: -.1922E+01   C at   72  2   RLX: 0.260
       a =  2.500      CL =  0.6837
      Cm = -0.0787     CD =  0.00779   =>   CDf =  0.00503    CDp =  0.00275

 Side 1  free  transition at x/c =  0.4666   53
 Side 2  free  transition at x/c =  0.9558   73

   3   rms: 0.1015E+00   max: -.1527E+01   C at   73  2   RLX: 0.328
       a =  2.500      CL =  0.6996
      Cm = -0.0798     CD =  0.00777   =>   CDf =  0.00499    CDp =  0.00278

 Side 1  free  transition at x/c =  0.4622   54
 Side 2  free  transition at x/c =  0.9764   74

   4   rms: 0.9195E-01   max: -.1415E+01   C at   74  2   RLX: 0.353
       a =  2.500      CL =  0.7150
      Cm = -0.0815     CD =  0.00779   =>   CDf =  0.00503    CDp =  0.00276

 Side 1  free  transition at x/c =  0.4585   54
 Side 2  free  transition at x/c =  0.9889   75

   5   rms: 0.8272E-01   max: -.1515E+01   C at   75  2   RLX: 0.330
       a =  2.500      CL =  0.7238
      Cm = -0.0824     CD =  0.00784   =>   CDf =  0.00505    CDp =  0.00279

 Side 1  free  transition at x/c =  0.4565   54
 Side 2 forced transition at x/c =  1.0000   76

   6   rms: 0.1759E-01   max: -.1834E+00   C at   76  2
       a =  2.500      CL =  0.7304
      Cm = -0.0816     CD =  0.00789   =>   CDf =  0.00507    CDp =  0.00282

 Side 1  free  transition at x/c =  0.4535   54
 Side 2 forced transition at x/c =  1.0000   76

   7   rms: 0.9151E-03   max: 0.1227E-01   C at   76  2
       a =  2.500      CL =  0.7305
      Cm = -0.0817     CD =  0.00790   =>   CDf =  0.00512    CDp =  0.00278

 Side 1  free  transition at x/c =  0.4536   54
 Side 2 forced transition at x/c =  1.0000   76

   8   rms: 0.5985E-05   max: 0.5097E-04   C at   76  2
       a =  2.500      CL =  0.7305
      Cm = -0.0817     CD =  0.00790   =>   CDf =  0.00511    CDp =  0.00278
 plradd ia,ip,cpol           13           0  0.12730815    

 Point added to stored polar  1
 Point written to save file  sd7062_Re600k.base.pol                          
 Dump file unspecified or not available
 Calculating wake trajectory ...
 Calculating source influence matrix ...

 Solving BL system ...

 Side 1  free  transition at x/c =  0.4536   54
 Side 2 forced transition at x/c =  1.0000   76

   1   rms: 0.8779E-01   max: -.2328E+00   C at   76  2
       a =  3.000      CL =  0.7834
      Cm = -0.0812     CD =  0.00833   =>   CDf =  0.00508    CDp =  0.00325

 Side 1  free  transition at x/c =  0.4346   53
 Side 2 forced transition at x/c =  1.0000   75

   2   rms: 0.1447E-01   max: 0.2325E+00   D at   54  1
       a =  3.000      CL =  0.7849
      Cm = -0.0814     CD =  0.00821   =>   CDf =  0.00526    CDp =  0.00295

 Side 1  free  transition at x/c =  0.4351   53
 Side 2 forced transition at x/c =  1.0000   75

   3   rms: 0.1203E-02   max: 0.1937E-01   C at   53  1
       a =  3.000      CL =  0.7850
      Cm = -0.0814     CD =  0.00820   =>   CDf =  0.00525    CDp =  0.00295

 Side 1  free  transition at x/c =  0.4344   53
 Side 2 forced transition at x/c =  1.0000   75

   4   rms: 0.1162E-04   max: -.1767E-03   C at   53  1
       a =  3.000      CL =  0.7850
      Cm = -0.0814     CD =  0.00820   =>   CDf =  0.00525    CDp =  0.00295
 plradd ia,ip,cpol           14           0  0.11505268    

 Point added to stored polar  1
 Point written to save file  sd7062_Re600k.base.pol                          
 Dump file unspecified or not available
 Calculating wake trajectory ...
 Calculating source influence matrix ...

 Solving BL system ...

 Side 1  free  transition at x/c =  0.4344   53
 Side 2 forced transition at x/c =  1.0000   75

   1   rms: 0.8000E-01   max: -.1649E+00   C at   75  2
       a =  3.500      CL =  0.8414
      Cm = -0.0814     CD =  0.00838   =>   CDf =  0.00525    CDp =  0.00312

 Side 1  free  transition at x/c =  0.4126   52
 Side 2 forced transition at x/c =  1.0000   75

   2   rms: 0.9673E-02   max: -.1414E+00   C at   52  1
       a =  3.500      CL =  0.8393
      Cm = -0.0811     CD =  0.00851   =>   CDf =  0.00540    CDp =  0.00311

 Side 1  free  transition at x/c =  0.4156   52
 Side 2 forced transition at x/c =  1.0000   75

   3   rms: 0.5037E-03   max: -.7912E-02   D at   53  1
       a =  3.500      CL =  0.8394
      Cm = -0.0811     CD =  0.00851   =>   CDf =  0.00536    CDp =  0.00315

 Side 1  free  transition at x/c =  0.4153   52
 Side 2 forced transition at x/c =  1.0000   75

   4   rms: 0.3356E-05   max: -.5458E-04   C at   52  1
       a =  3.500      CL =  0.8394
      Cm = -0.0811     CD =  0.00851   =>   CDf =  0.00536    CDp =  0.00315
 plradd ia,ip,cpol           15           0  0.10338894    

 Point added to stored polar  1
[...]

 Side 1  free  transition at x/c =  0.1509   47
 Side 2 forced transition at x/c =  1.0000   63

   4   rms: 0.2830E-05   max: 0.4125E-04   C at   63  2
       a = 12.500      CL =  1.5915
      Cm = -0.0486     CD =  0.02222   =>   CDf =  0.00592    CDp =  0.01630
 plradd ia,ip,cpol           39           0  1.13502331E-02

 Point added to stored polar  1
 Point written to save file  sd7062_Re600k.base.pol                          
 Dump file unspecified or not available
 Calculating wake trajectory ...
 Calculating source influence matrix ...

 Solving BL system ...

 Side 1  free  transition at x/c =  0.1509   47
 Side 2 forced transition at x/c =  1.0000   63

   1   rms: 0.3332E-01   max: -.9443E-01   D at   47  1
       a = 12.750      CL =  1.6054
      Cm = -0.0474     CD =  0.02304   =>   CDf =  0.00592    CDp =  0.01712

 Side 1  free  transition at x/c =  0.1453   47
 Side 2 forced transition at x/c =  1.0000   63

   2   rms: 0.4036E-02   max: -.3260E-01   C at   47  1
       a = 12.750      CL =  1.6026
      Cm = -0.0472     CD =  0.02318   =>   CDf =  0.00590    CDp =  0.01728

 Side 1  free  transition at x/c =  0.1460   47
 Side 2 forced transition at x/c =  1.0000   63

   3   rms: 0.9797E-04   max: 0.1719E-02   D at   87  1
       a = 12.750      CL =  1.6026
      Cm = -0.0472     CD =  0.02318   =>   CDf =  0.00589    CDp =  0.01729
 plradd ia,ip,cpol           40           0  1.13502331E-02

 Point added to stored polar  1
 Point written to save file  sd7062_Re600k.base.pol                          
 Dump file unspecified or not available
 Calculating wake trajectory ...
 Calculating source influence matrix ...

 Solving BL system ...

 Side 1  free  transition at x/c =  0.1460   47
 Side 2 forced transition at x/c =  1.0000   63

   1   rms: 0.3537E-01   max: -.1483E+00   D at   47  1
       a = 13.000      CL =  1.6121
      Cm = -0.0458     CD =  0.02434   =>   CDf =  0.00589    CDp =  0.01845

 Side 1  free  transition at x/c =  0.1410   47
 Side 2 forced transition at x/c =  1.0000   63

   2   rms: 0.4078E-02   max: 0.2704E-01   D at   86  1
       a = 13.000      CL =  1.6090
      Cm = -0.0456     CD =  0.02450   =>   CDf =  0.00590    CDp =  0.01859

 Side 1  free  transition at x/c =  0.1411   47
 Side 2 forced transition at x/c =  1.0000   63

   3   rms: 0.1641E-03   max: 0.2517E-02   D at   86  1
       a = 13.000      CL =  1.6090
      Cm = -0.0456     CD =  0.02449   =>   CDf =  0.00589    CDp =  0.01860

 Side 1  free  transition at x/c =  0.1411   47
 Side 2 forced transition at x/c =  1.0000   63

   4   rms: 0.3179E-05   max: -.5370E-04   C at   63  2
       a = 13.000      CL =  1.6090
      Cm = -0.0456     CD =  0.02449   =>   CDf =  0.00589    CDp =  0.01860
 plradd ia,ip,cpol           41           0  1.13502331E-02

 Point added to stored polar  1
 Point written to save file  sd7062_Re600k.base.pol                          
 Dump file unspecified or not available
 Calculating wake trajectory ...
 Calculating source influence matrix ...

 Solving BL system ...

 Side 1  free  transition at x/c =  0.1411   47
 Side 2 forced transition at x/c =  1.0000   63

   1   rms: 0.3801E-01   max: -.1548E+00   D at   47  1
       a = 13.250      CL =  1.6139
      Cm = -0.0441     CD =  0.02607   =>   CDf =  0.00590    CDp =  0.02017

 Side 1  free  transition at x/c =  0.1370   46
 Side 2 forced transition at x/c =  1.0000   63

   2   rms: 0.1133E-01   max: -.9467E-01   D at   46  1
       a = 13.250      CL =  1.6199
      Cm = -0.0445     CD =  0.02552   =>   CDf =  0.00583    CDp =  0.01969

 Side 1  free  transition at x/c =  0.1372   46
 Side 2 forced transition at x/c =  1.0000   63

   3   rms: 0.4247E-03   max: 0.3742E-02   C at   46  1
       a = 13.250      CL =  1.6201
      Cm = -0.0445     CD =  0.02555   =>   CDf =  0.00583    CDp =  0.01972

 Side 1  free  transition at x/c =  0.1371   46
 Side 2 forced transition at x/c =  1.0000   63

   4   rms: 0.6256E-05   max: 0.1317E-03   C at   63  2
       a = 13.250      CL =  1.6201
      Cm = -0.0445     CD =  0.02555   =>   CDf =  0.00583    CDp =  0.01972
 plradd ia,ip,cpol           42           0  9.26369056E-03

 Point added to stored polar  1
 Point written to save file  sd7062_Re600k.base.pol                          
 Dump file unspecified or not available
 Calculating wake trajectory ...
 Calculating source influence matrix ...

 Solving BL system ...

 Side 1  free  transition at x/c =  0.1371   46
 Side 2 forced transition at x/c =  1.0000   63

   1   rms: 0.3313E-01   max: -.9674E-01   D at   46  1
       a = 13.500      CL =  1.6320
      Cm = -0.0435     CD =  0.02666   =>   CDf =  0.00583    CDp =  0.02082

 Side 1  free  transition at x/c =  0.1321   46
 Side 2 forced transition at x/c =  1.0000   63

   2   rms: 0.4226E-02   max: -.2781E-01   C at   46  1
       a = 13.500      CL =  1.6291
      Cm = -0.0433     CD =  0.02680   =>   CDf =  0.00581    CDp =  0.02098

 Side 1  free  transition at x/c =  0.1327   46
 Side 2 forced transition at x/c =  1.0000   63

   3   rms: 0.1568E-03   max: 0.2144E-02   D at   84  1
       a = 13.500      CL =  1.6291
      Cm = -0.0433     CD =  0.02679   =>   CDf =  0.00580    CDp =  0.02100

 Side 1  free  transition at x/c =  0.1328   46
 Side 2 forced transition at x/c =  1.0000   63

   4   rms: 0.3967E-05   max: -.3401E-04   C at   63  2
       a = 13.500      CL =  1.6290
      Cm = -0.0433     CD =  0.02679   =>   CDf =  0.00580    CDp =  0.02100
 plradd ia,ip,cpol           43           0  9.26369056E-03

 Point added to stored polar  1
 Point written to save file  sd7062_Re600k.base.pol                          
 Dump file unspecified or not available
 Calculating wake trajectory ...
 Calculating source influence matrix ...

 Solving BL system ...

 Side 1  free  transition at x/c =  0.1328   46
 Side 2 forced transition at x/c =  1.0000   63

   1   rms: 0.3597E-01   max: -.1460E+00   D at   46  1   RLX: 0.988
       a = 13.750      CL =  1.6363
      Cm = -0.0422     CD =  0.02829   =>   CDf =  0.00551    CDp =  0.02278

 Side 1  free  transition at x/c =  0.1280   47
 Side 2 forced transition at x/c =  1.0000   62

   2   rms: 0.4764E-02   max: 0.3051E-01   D at   84  1
       a = 13.750      CL =  1.6330
      Cm = -0.0420     CD =  0.02848   =>   CDf =  0.00580    CDp =  0.02268

 Side 1  free  transition at x/c =  0.1281   47
 Side 2 forced transition at x/c =  1.0000   62

   3   rms: 0.4431E-03   max: -.3988E-02   D at    4  1
       a = 13.750      CL =  1.6329
      Cm = -0.0420     CD =  0.02848   =>   CDf =  0.00579    CDp =  0.02268

 Side 1  free  transition at x/c =  0.1281   47
 Side 2 forced transition at x/c =  1.0000   62

   4   rms: 0.7860E-05   max: -.1102E-03   C at   62  2
       a = 13.750      CL =  1.6329
      Cm = -0.0420     CD =  0.02848   =>   CDf =  0.00579    CDp =  0.02268
 plradd ia,ip,cpol           44           0  9.26369056E-03

 Point added to stored polar  1
 Point written to save file  sd7062_Re600k.base.pol                          
 Dump file unspecified or not available
 Calculating wake trajectory ...
 Calculating source influence matrix ...

 Solving BL system ...

 Side 1  free  transition at x/c =  0.1281   47
 Side 2 forced transition at x/c =  1.0000   62

   1   rms: 0.3823E-01   max: -.1338E+00   D at   47  1   RLX: 0.934
       a = 14.000      CL =  1.6358
      Cm = -0.0409     CD =  0.03032   =>   CDf =  0.00580    CDp =  0.02452

 Side 1  free  transition at x/c =  0.1247   46
 Side 2 forced transition at x/c =  1.0000   62

   2   rms: 0.1125E-01   max: -.1045E+00   C at   46  1
       a = 14.000      CL =  1.6423
      Cm = -0.0411     CD =  0.02975   =>   CDf =  0.00573    CDp =  0.02403

 Side 1  free  transition at x/c =  0.1248   46
 Side 2 forced transition at x/c =  1.0000   62

   3   rms: 0.3978E-03   max: 0.6010E-02   C at   46  1
       a = 14.000      CL =  1.6423
      Cm = -0.0411     CD =  0.02979   =>   CDf =  0.00572    CDp =  0.02407

 Side 1  free  transition at x/c =  0.1247   46
 Side 2 forced transition at x/c =  1.0000   62

   4   rms: 0.9716E-05   max: 0.7870E-04   C at   62  2
       a = 14.000      CL =  1.6423
      Cm = -0.0411     CD =  0.02979   =>   CDf =  0.00572    CDp =  0.02407
 plradd ia,ip,cpol           45           0  7.45612942E-03

 Point added to stored polar  1
 Point written to save file  sd7062_Re600k.base.pol                          
 Dump file unspecified or not available
 Calculating wake trajectory ...
 Calculating source influence matrix ...

 Solving BL system ...

 Side 1  free  transition at x/c =  0.1247   46
 Side 2 forced transition at x/c =  1.0000   62

   1   rms: 0.3343E-01   max: -.9341E-01   D at   46  1   RLX: 0.913
       a = 14.250      CL =  1.6518
      Cm = -0.0404     CD =  0.03107   =>   CDf =  0.00572    CDp =  0.02534

 Side 1  free  transition at x/c =  0.1208   46
 Side 2 forced transition at x/c =  1.0000   62

   2   rms: 0.5060E-02   max: 0.2718E-01   D at   82  1
       a = 14.250      CL =  1.6496
      Cm = -0.0402     CD =  0.03134   =>   CDf =  0.00569    CDp =  0.02566

 Side 1  free  transition at x/c =  0.1208   46
 Side 2 forced transition at x/c =  1.0000   62

   3   rms: 0.3447E-03   max: 0.3143E-02   D at   82  1
       a = 14.250      CL =  1.6494
      Cm = -0.0402     CD =  0.03133   =>   CDf =  0.00567    CDp =  0.02566

 Side 1  free  transition at x/c =  0.1208   46
 Side 2 forced transition at x/c =  1.0000   62

   4   rms: 0.1464E-04   max: -.1428E-03   C at   62  2
       a = 14.250      CL =  1.6494
      Cm = -0.0402     CD =  0.03133   =>   CDf =  0.00567    CDp =  0.02566
 plradd ia,ip,cpol           46           0  9.26369056E-03

 Point added to stored polar  1
 Point written to save file  sd7062_Re600k.base.pol                          
 Dump file unspecified or not available
 Calculating wake trajectory ...
 Calculating source influence matrix ...

 Solving BL system ...

 Side 1  free  transition at x/c =  0.1208   46
 Side 2 forced transition at x/c =  1.0000   62

   1   rms: 0.3544E-01   max: -.1357E+00   D at   46  1   RLX: 0.871
       a = 14.500      CL =  1.6546
      Cm = -0.0395     CD =  0.03295   =>   CDf =  0.00568    CDp =  0.02727

 Side 1  free  transition at x/c =  0.1172   46
 Side 2 forced transition at x/c =  1.0000   62

   2   rms: 0.7037E-02   max: 0.3833E-01   D at   81  1
       a = 14.500      CL =  1.6521
      Cm = -0.0392     CD =  0.03335   =>   CDf =  0.00567    CDp =  0.02768

 Side 1  free  transition at x/c =  0.1169   46
 Side 2 forced transition at x/c =  1.0000   62

   3   rms: 0.7166E-03   max: 0.7110E-02   D at   81  1
       a = 14.500      CL =  1.6517
      Cm = -0.0392     CD =  0.03334   =>   CDf =  0.00566    CDp =  0.02768

 Side 1  free  transition at x/c =  0.1169   46
 Side 2 forced transition at x/c =  1.0000   62

   4   rms: 0.3148E-04   max: 0.2125E-03   D at   73  2
       a = 14.500      CL =  1.6517
      Cm = -0.0392     CD =  0.03334   =>   CDf =  0.00566    CDp =  0.02768
 plradd ia,ip,cpol           47           0  7.45612942E-03

 Point added to stored polar  1
 Point written to save file  sd7062_Re600k.base.pol                          
 Dump file unspecified or not available
 Calculating wake trajectory ...
 Calculating source influence matrix ...

 Solving BL system ...

 Side 1  free  transition at x/c =  0.1169   46
 Side 2 forced transition at x/c =  1.0000   62

   1   rms: 0.3739E-01   max: -.1432E+00   D at   46  1   RLX: 0.827
       a = 14.750      CL =  1.6532
      Cm = -0.0386     CD =  0.03528   =>   CDf =  0.00566    CDp =  0.02962

 Side 1  free  transition at x/c =  0.1141   45
 Side 2 forced transition at x/c =  1.0000   62

   2   rms: 0.7410E-02   max: -.7599E-01   C at   45  1
       a = 14.750      CL =  1.6570
      Cm = -0.0385     CD =  0.03515   =>   CDf =  0.00562    CDp =  0.02954

 Side 1  free  transition at x/c =  0.1136   45
 Side 2 forced transition at x/c =  1.0000   62

   3   rms: 0.4898E-03   max: 0.3268E-02   C at   45  1
       a = 14.750      CL =  1.6566
      Cm = -0.0385     CD =  0.03518   =>   CDf =  0.00560    CDp =  0.02959

 Side 1  free  transition at x/c =  0.1136   45
 Side 2 forced transition at x/c =  1.0000   62

   4   rms: 0.3048E-04   max: 0.1747E-03   D at   73  2
       a = 14.750      CL =  1.6566
      Cm = -0.0385     CD =  0.03518   =>   CDf =  0.00560    CDp =  0.02959
 plradd ia,ip,cpol           48           0  7.45612942E-03

 Point added to stored polar  1
 Point written to save file  sd7062_Re600k.base.pol                          
 Dump file unspecified or not available
 Calculating wake trajectory ...
 Calculating source influence matrix ...

 Solving BL system ...

 Side 1  free  transition at x/c =  0.1136   45
 Side 2 forced transition at x/c =  1.0000   62

   1   rms: 0.3210E-01   max: 0.9031E-01   D at   79  1   RLX: 0.805
       a = 15.000      CL =  1.6642
      Cm = -0.0381     CD =  0.03652   =>   CDf =  0.00529    CDp =  0.03123

 Side 1  free  transition at x/c =  0.1106   46
 Side 2 forced transition at x/c =  1.0000   61

   2   rms: 0.7817E-02   max: 0.3536E-01   D at   80  1
       a = 15.000      CL =  1.6631
      Cm = -0.0379     CD =  0.03700   =>   CDf =  0.00555    CDp =  0.03146

 Side 1  free  transition at x/c =  0.1102   46
 Side 2 forced transition at x/c =  1.0000   61

   3   rms: 0.9371E-03   max: -.7735E-02   D at    4  1
       a = 15.000      CL =  1.6626
      Cm = -0.0379     CD =  0.03698   =>   CDf =  0.00553    CDp =  0.03146

 Side 1  free  transition at x/c =  0.1102   46
 Side 2 forced transition at x/c =  1.0000   61

   4   rms: 0.3222E-04   max: 0.2014E-03   D at   72  2
       a = 15.000      CL =  1.6626
      Cm = -0.0379     CD =  0.03698   =>   CDf =  0.00553    CDp =  0.03145
 plradd ia,ip,cpol           49           0  7.45612942E-03

 Point added to stored polar  1
 Point written to save file  sd7062_Re600k.base.pol                          
 Dump file unspecified or not available
 Calculating wake trajectory ...
 Calculating source influence matrix ...

 Solving BL system ...

 Side 1  free  transition at x/c =  0.1102   46
 Side 2 forced transition at x/c =  1.0000   61

   1   rms: 0.3446E-01   max: 0.1140E+00   D at   79  1   RLX: 0.772
       a = 15.250      CL =  1.6667
      Cm = -0.0375     CD =  0.03864   =>   CDf =  0.00553    CDp =  0.03311

 Side 1  free  transition at x/c =  0.1073   46
 Side 2 forced transition at x/c =  1.0000   61

   2   rms: 0.9817E-02   max: 0.4788E-01   D at   80  1
       a = 15.250      CL =  1.6645
      Cm = -0.0373     CD =  0.03931   =>   CDf =  0.00551    CDp =  0.03381

 Side 1  free  transition at x/c =  0.1067   46
 Side 2 forced transition at x/c =  1.0000   61

   3   rms: 0.9057E-03   max: 0.7239E-02   D at   79  1
       a = 15.250      CL =  1.6639
      Cm = -0.0373     CD =  0.03929   =>   CDf =  0.00549    CDp =  0.03379

 Side 1  free  transition at x/c =  0.1068   46
 Side 2 forced transition at x/c =  1.0000   61

   4   rms: 0.4731E-04   max: 0.2886E-03   D at   73  2
       a = 15.250      CL =  1.6639
      Cm = -0.0373     CD =  0.03928   =>   CDf =  0.00549    CDp =  0.03379
 plradd ia,ip,cpol           50           0  7.45612942E-03

 Point added to stored polar  1
 Point written to save file  sd7062_Re600k.base.pol                          
 Dump file unspecified or not available
 Calculating wake trajectory ...
 Calculating source influence matrix ...

 Solving BL system ...

 Side 1  free  transition at x/c =  0.1068   46
 Side 2 forced transition at x/c =  1.0000   61

   1   rms: 0.3646E-01   max: 0.1383E+00   D at   78  1   RLX: 0.736
       a = 15.500      CL =  1.6647
      Cm = -0.0370     CD =  0.04127   =>   CDf =  0.00549    CDp =  0.03578

 Side 1  free  transition at x/c =  0.1044   46
 Side 2 forced transition at x/c =  1.0000   61

   2   rms: 0.1182E-01   max: 0.5744E-01   D at   78  1
       a = 15.500      CL =  1.6621
      Cm = -0.0368     CD =  0.04210   =>   CDf =  0.00548    CDp =  0.03663

 Side 1  free  transition at x/c =  0.1034   46
 Side 2 forced transition at x/c =  1.0000   61

   3   rms: 0.1918E-02   max: 0.1543E-01   D at   78  1
       a = 15.500      CL =  1.6609
      Cm = -0.0368     CD =  0.04212   =>   CDf =  0.00547    CDp =  0.03666

 Side 1  free  transition at x/c =  0.1034   46
 Side 2 forced transition at x/c =  1.0000   61

   4   rms: 0.1178E-03   max: 0.8936E-03   D at   73  2
       a = 15.500      CL =  1.6608
      Cm = -0.0368     CD =  0.04211   =>   CDf =  0.00546    CDp =  0.03665

 Side 1  free  transition at x/c =  0.1034   46
 Side 2 forced transition at x/c =  1.0000   61

   5   rms: 0.3803E-05   max: -.4737E-04   C at   61  2
       a = 15.500      CL =  1.6608
      Cm = -0.0368     CD =  0.04211   =>   CDf =  0.00546    CDp =  0.03665
 plradd ia,ip,cpol           51           0  7.45612942E-03

 Point added to stored polar  1
 Point written to save file  sd7062_Re600k.base.pol                          
 Dump file unspecified or not available
 Calculating wake trajectory ...
 Calculating source influence matrix ...

 Solving BL system ...

 Side 1  free  transition at x/c =  0.1034   46
 Side 2 forced transition at x/c =  1.0000   61

   1   rms: 0.4020E-01   max: 0.1707E+00   D at   77  1   RLX: 0.697
       a = 15.750      CL =  1.6574
      Cm = -0.0366     CD =  0.04457   =>   CDf =  0.00547    CDp =  0.03910

 Side 1  free  transition at x/c =  0.1014   45
 Side 2 forced transition at x/c =  1.0000   61

   2   rms: 0.1589E-01   max: -.1346E+00   C at   45  1
       a = 15.750      CL =  1.6678
      Cm = -0.0366     CD =  0.04395   =>   CDf =  0.00539    CDp =  0.03856

 Side 1  free  transition at x/c =  0.1010   45
 Side 2 forced transition at x/c =  1.0000   61

   3   rms: 0.8769E-03   max: 0.1157E-01   C at   45  1
       a = 15.750      CL =  1.6674
      Cm = -0.0366     CD =  0.04404   =>   CDf =  0.00536    CDp =  0.03868

 Side 1  free  transition at x/c =  0.1009   45
 Side 2 forced transition at x/c =  1.0000   61

   4   rms: 0.6586E-04   max: 0.2553E-03   D at   73  2
       a = 15.750      CL =  1.6673
      Cm = -0.0366     CD =  0.04404   =>   CDf =  0.00537    CDp =  0.03868
 plradd ia,ip,cpol           52           0  7.45612942E-03

 Point added to stored polar  1
 Point written to save file  sd7062_Re600k.base.pol                          
 Dump file unspecified or not available
 Calculating wake trajectory ...
 Calculating source influence matrix ...

 Solving BL system ...

 Side 1  free  transition at x/c =  0.1009   45
 Side 2 forced transition at x/c =  1.0000   61

   1   rms: 0.3199E-01   max: 0.1095E+00   D at   76  1   RLX: 0.686
       a = 16.000      CL =  1.6711
      Cm = -0.0365     CD =  0.04568   =>   CDf =  0.00537    CDp =  0.04032

 Side 1  free  transition at x/c =  0.0987   45
 Side 2 forced transition at x/c =  1.0000   61

   2   rms: 0.1134E-01   max: 0.5093E-01   D at   76  1
       a = 16.000      CL =  1.6701
      Cm = -0.0364     CD =  0.04657   =>   CDf =  0.00532    CDp =  0.04125

 Side 1  free  transition at x/c =  0.0979   45
 Side 2 forced transition at x/c =  1.0000   61

   3   rms: 0.1209E-02   max: 0.7365E-02   D at   76  1
       a = 16.000      CL =  1.6692
      Cm = -0.0364     CD =  0.04653   =>   CDf =  0.00530    CDp =  0.04123

 Side 1  free  transition at x/c =  0.0979   45
 Side 2 forced transition at x/c =  1.0000   61

   4   rms: 0.7408E-04   max: 0.4309E-03   D at   74  2
       a = 16.000      CL =  1.6692
      Cm = -0.0364     CD =  0.04652   =>   CDf =  0.00530    CDp =  0.04122
 plradd ia,ip,cpol           53           0  7.45612942E-03

 Point added to stored polar  1
 Point written to save file  sd7062_Re600k.base.pol                          
 Dump file unspecified or not available

.OPERva   c>  
 Polar accumulation disabled

.OPERv   c>  
 XFOIL   c>  
 XFOIL   c>  