
 ===================================================
  XFOIL Version 6.99
  Copyright (C) 2000   Mark Drela, Harold Youngren

  This software comes with ABSOLUTELY NO WARRANTY,
    subject to the GNU General Public License.

  Caveat computor
 ===================================================

 File  xfoil.def  not found

   QUIT    Exit program

  .OPER    Direct operating point(s)
  .MDES    Complex mapping design routine
  .QDES    Surface speed design routine
  .GDES    Geometry design routine

   SAVE f  Write airfoil to labeled coordinate file
   PSAV f  Write airfoil to plain coordinate file
   ISAV f  Write airfoil to ISES coordinate file
   MSAV f  Write airfoil to MSES coordinate file
   REVE    Reverse written-airfoil node ordering

   LOAD f  Read buffer airfoil from coordinate file
   NACA i  Set NACA 4,5-digit airfoil and buffer airfoil
   INTE    Set buffer airfoil by interpolating two airfoils
   NORM    Buffer airfoil normalization toggle
   XYCM rr Change CM reference location, currently  0.25000 0.00000

   BEND    Display structural properties of current airfoil

   PCOP    Set current-airfoil panel nodes directly from buffer airfoil points
   PANE    Set current-airfoil panel nodes ( 160 ) based on curvature
  .PPAR    Show/change paneling

  .PLOP    Plotting options

   WDEF f  Write  current-settings file
   RDEF f  Reread current-settings file
   NAME s  Specify new airfoil name
   NINC    Increment name version number

   Z       Zoom    | (available in all menus)
   U       Unzoom  | 

 XFOIL   c>  
 Labeled airfoil file.  Name:    SD7034                                        

 Number of input coordinate points:  61
 Counterclockwise ordering
 Max thickness =     0.105248  at x =   0.282
 Max camber    =     0.039046  at x =   0.394

  LE  x,y  =   0.00011  -0.00022  |   Chord =   0.99990
  TE  x,y  =   1.00001   0.00000  |

 Current airfoil nodes set from buffer airfoil nodes (  61 )

 WARNING: Poor input coordinate distribution
          Excessive panel angle   44.0  at i =  33
          Repaneling with PANE and/or PPAR suggested
           (doing GDES,CADD before repaneling _may_
            improve excessively coarse LE spacing

 XFOIL   c>  
 XFOIL   c>  
 Sharp trailing edge

 Paneling parameters used...
   Number of panel nodes       160
   Panel bunching parameter    1.000
   TE/LE panel density ratio   0.150
   Refined-area/LE panel density ratio    0.200
   Top    side refined area x/c limits  1.000 1.000
   Bottom side refined area x/c limits  1.000 1.000

 XFOIL   c>  
.OPERi   c>  
 Xtr/c     =  1.0000    top    side
 Xtr/c     =  1.0000    bottom side
 Ncrit     =    9.00   ( 0.070 % turb. level )
 Vacc      =  0.0100

 Klag  =  5.6000     Uxwt  =    1.00
 A     =  6.7000     B     =  0.7500       KCt = 0.01485
 CtiniK=  1.8000     CtiniX=  3.3000

..VPAR   c>  
..VPAR   c>  
.OPERi   c>  
 M  =    0.0000
 Re =    600000

.OPERv   c>  
.OPERv   c>  
.OPERv   c>  
 Polar  1 newly created for accumulation
 Airfoil archived with polar: SD7034                                          

Enter  polar save filename  OR  <return> for no file   s>  
 New polar save file available

Enter  polar dump filename  OR  <return> for no file   s>  
 Polar dump file will NOT be written

 Polar accumulation enabled

.OPERva   c>   Calculating unit vorticity distributions ...
 Calculating wake trajectory ...
 Calculating source influence matrix ...

 Solving BL system ...

 Initializing BL ...
    side            1  ...
 MRCHUE: Inverse mode at  51     Hk =   4.253
 MRCHUE: Inverse mode at  52     Hk =   4.938
 MRCHUE: Inverse mode at  53     Hk =   5.611
 MRCHUE: Inverse mode at  54     Hk =   6.277
 MRCHUE: Inverse mode at  55     Hk =   6.936
 MRCHUE: Inverse mode at  56     Hk =   7.591
 MRCHUE: Inverse mode at  57     Hk =   8.243
 MRCHUE: Inverse mode at  58     Hk =   6.186
 MRCHUE: Inverse mode at  59     Hk =   3.965
 MRCHUE: Inverse mode at  60     Hk =   2.513
    side            2  ...
 MRCHUE: Inverse mode at  18     Hk =   4.736
 MRCHUE: Inverse mode at  19     Hk =   5.775
 MRCHUE: Inverse mode at  20     Hk =   6.862
 MRCHUE: Inverse mode at  21     Hk =   8.037
 MRCHUE: Inverse mode at  22     Hk =   9.342
 MRCHUE: Inverse mode at  23     Hk =   5.627
 MRCHUE: Inverse mode at  24     Hk =   2.500

 Side 1  free  transition at x/c =  0.7307   58
 Side 2  free  transition at x/c =  0.0361   23

   1   rms: 0.1225E+00   max: -.9554E+00   T at   58  1   RLX: 0.523
       a = -4.000      CL = -0.0540
      Cm = -0.0790     CD =  0.01083   =>   CDf =  0.00640    CDp =  0.00443

 Side 1  free  transition at x/c =  0.7465   59
 Side 2  free  transition at x/c =  0.0350   23

   2   rms: 0.7038E-01   max: -.6758E+00   T at   59  1   RLX: 0.740
       a = -4.000      CL = -0.0435
      Cm = -0.0792     CD =  0.01021   =>   CDf =  0.00640    CDp =  0.00381

 Side 1  free  transition at x/c =  0.7672   60
 Side 2  free  transition at x/c =  0.0343   23

   3   rms: 0.1856E-01   max: -.1842E+00   T at   60  1
       a = -4.000      CL = -0.0388
      Cm = -0.0795     CD =  0.01013   =>   CDf =  0.00630    CDp =  0.00383

 Side 1  free  transition at x/c =  0.7780   61
 Side 2  free  transition at x/c =  0.0339   23

   4   rms: 0.2863E-02   max: 0.5494E-01   D at   61  1
       a = -4.000      CL = -0.0385
      Cm = -0.0796     CD =  0.01015   =>   CDf =  0.00624    CDp =  0.00391

 Side 1  free  transition at x/c =  0.7779   61
 Side 2  free  transition at x/c =  0.0338   23

   5   rms: 0.1766E-03   max: 0.2462E-02   C at   61  1
       a = -4.000      CL = -0.0385
      Cm = -0.0796     CD =  0.01015   =>   CDf =  0.00624    CDp =  0.00391

 Side 1  free  transition at x/c =  0.7778   61
 Side 2  free  transition at x/c =  0.0338   23

   6   rms: 0.8083E-06   max: -.6067E-05   D at   63  1
       a = -4.000      CL = -0.0385
      Cm = -0.0796     CD =  0.01015   =>   CDf =  0.00624    CDp =  0.00391
 plradd ia,ip,cpol            1           0  1.64148118E-03

 Point added to stored polar  1
 Point written to save file  sd7034_Re600k.base.pol                          
 Dump file unspecified or not available
 Calculating wake trajectory ...
 Calculating source influence matrix ...

 Solving BL system ...

 Side 1  free  transition at x/c =  0.7778   61
 Side 2  free  transition at x/c =  0.0338   23

   1   rms: 0.1249E+00   max: -.6930E+00   T at   23  2   RLX: 0.722
       a = -3.500      CL =  0.0006
      Cm = -0.0794     CD =  0.00936   =>   CDf =  0.00632    CDp =  0.00304

 Side 1  free  transition at x/c =  0.7677   61
 Side 2  free  transition at x/c =  0.0395   22

   2   rms: 0.3481E-01   max: -.1387E+00   D at   23  2
       a = -3.500      CL =  0.0177
      Cm = -0.0794     CD =  0.00973   =>   CDf =  0.00629    CDp =  0.00344

 Side 1  free  transition at x/c =  0.7622   61
 Side 2  free  transition at x/c =  0.0401   23

   3   rms: 0.3997E-02   max: -.2766E-01   C at   61  1
       a = -3.500      CL =  0.0175
      Cm = -0.0794     CD =  0.00968   =>   CDf =  0.00633    CDp =  0.00335

 Side 1  free  transition at x/c =  0.7629   61
 Side 2  free  transition at x/c =  0.0403   23

   4   rms: 0.1319E-03   max: 0.9289E-03   D at   22  2
       a = -3.500      CL =  0.0175
      Cm = -0.0794     CD =  0.00968   =>   CDf =  0.00632    CDp =  0.00337

 Side 1  free  transition at x/c =  0.7628   61
 Side 2  free  transition at x/c =  0.0403   23

   5   rms: 0.1237E-05   max: 0.4824E-05   D at   29  2
       a = -3.500      CL =  0.0175
      Cm = -0.0794     CD =  0.00968   =>   CDf =  0.00632    CDp =  0.00336
 plradd ia,ip,cpol            2           0  2.86955573E-03

 Point added to stored polar  1
 Point written to save file  sd7034_Re600k.base.pol                          
 Dump file unspecified or not available
 Calculating wake trajectory ...
 Calculating source influence matrix ...

 Solving BL system ...

 Side 1  free  transition at x/c =  0.7628   61
 Side 2  free  transition at x/c =  0.0403   23

   1   rms: 0.2019E+00   max: -.9139E+00   T at   23  2   RLX: 0.547
       a = -3.000      CL =  0.0467
      Cm = -0.0792     CD =  0.00867   =>   CDf =  0.00632    CDp =  0.00235

 MRCHDU: Convergence failed at  24  side 2    Res =  0.3895E+02
 MRCHDU: Convergence failed at  25  side 2    Res =  0.1962E+01
 MRCHDU: Convergence failed at  26  side 2    Res =  0.1313E+01
 MRCHDU: Convergence failed at  27  side 2    Res =  0.1609E+01
 MRCHDU: Convergence failed at  28  side 2    Res =  0.1958E+01
 MRCHDU: Convergence failed at  29  side 2    Res =  0.2485E+01
 MRCHDU: Convergence failed at  30  side 2    Res =  0.3237E+01
 MRCHDU: Convergence failed at  31  side 2    Res =  0.4006E+01
 MRCHDU: Convergence failed at  32  side 2    Res =  0.4926E+01
 MRCHDU: Convergence failed at  33  side 2    Res =  0.6371E+01
 MRCHDU: Convergence failed at  34  side 2    Res =  0.8891E+01
 MRCHDU: Convergence failed at  35  side 2    Res =  0.1137E+02
 MRCHDU: Convergence failed at  36  side 2    Res =  0.1650E+02
 MRCHDU: Convergence failed at  37  side 2    Res =  0.2297E+02
 MRCHDU: Convergence failed at  38  side 2    Res =  0.5383E+02
 MRCHDU: Convergence failed at  39  side 2    Res =  0.6029E+03
 MRCHDU: Convergence failed at  40  side 2    Res =  0.5442E+02
 MRCHDU: Convergence failed at  41  side 2    Res =  0.3670E+02
 MRCHDU: Convergence failed at  42  side 2    Res =  0.2538E+02
 MRCHDU: Convergence failed at  43  side 2    Res =  0.1901E+02
 MRCHDU: Convergence failed at  44  side 2    Res =  0.1579E+02
 MRCHDU: Convergence failed at  45  side 2    Res =  0.1065E+02
 MRCHDU: Convergence failed at  46  side 2    Res =  0.1104E+02
 MRCHDU: Convergence failed at  47  side 2    Res =  0.1167E+02
 MRCHDU: Convergence failed at  48  side 2    Res =  0.1204E+02
 MRCHDU: Convergence failed at  49  side 2    Res =  0.1206E+02
 MRCHDU: Convergence failed at  50  side 2    Res =  0.1229E+02
 MRCHDU: Convergence failed at  51  side 2    Res =  0.1253E+02
 MRCHDU: Convergence failed at  52  side 2    Res =  0.1277E+02
 MRCHDU: Convergence failed at  53  side 2    Res =  0.1267E+02
 MRCHDU: Convergence failed at  54  side 2    Res =  0.1290E+02
 MRCHDU: Convergence failed at  55  side 2    Res =  0.1314E+02
 MRCHDU: Convergence failed at  56  side 2    Res =  0.1338E+02
 MRCHDU: Convergence failed at  57  side 2    Res =  0.2184E+02
 MRCHDU: Convergence failed at  58  side 2    Res =  0.9702E+01
 MRCHDU: Convergence failed at  59  side 2    Res =  0.9583E+01
 MRCHDU: Convergence failed at  60  side 2    Res =  0.9485E+01
 MRCHDU: Convergence failed at  61  side 2    Res =  0.1441E+02
 MRCHDU: Convergence failed at  62  side 2    Res =  0.1451E+02
 MRCHDU: Convergence failed at  63  side 2    Res =  0.1463E+02
 MRCHDU: Convergence failed at  64  side 2    Res =  0.1468E+02
 MRCHDU: Convergence failed at  65  side 2    Res =  0.1478E+02
 MRCHDU: Convergence failed at  66  side 2    Res =  0.1486E+02
 MRCHDU: Convergence failed at  67  side 2    Res =  0.1495E+02
 MRCHDU: Convergence failed at  68  side 2    Res =  0.1512E+02
 MRCHDU: Convergence failed at  69  side 2    Res =  0.1597E+02
 MRCHDU: Convergence failed at  70  side 2    Res =  0.1553E+02
 MRCHDU: Convergence failed at  71  side 2    Res =  0.1557E+02
 MRCHDU: Convergence failed at  72  side 2    Res =  0.1703E+02
 MRCHDU: Convergence failed at  73  side 2    Res =  0.1618E+02
 MRCHDU: Convergence failed at  74  side 2    Res =  0.1623E+02
 MRCHDU: Convergence failed at  75  side 2    Res =  0.1624E+02
 MRCHDU: Convergence failed at  76  side 2    Res =  0.1614E+02
 MRCHDU: Convergence failed at  77  side 2    Res =  0.1608E+02
 MRCHDU: Convergence failed at  78  side 2    Res =  0.3417E+02
 MRCHDU: Convergence failed at  79  side 2    Res =  0.3520E+02
 MRCHDU: Convergence failed at  80  side 2    Res =  0.3644E+02
 MRCHDU: Convergence failed at  81  side 2    Res =  0.2035E+02
 MRCHDU: Convergence failed at  82  side 2    Res =  0.2118E+02
 MRCHDU: Convergence failed at  83  side 2    Res =  0.2200E+02
 MRCHDU: Convergence failed at  84  side 2    Res =  0.2279E+02
 MRCHDU: Convergence failed at  85  side 2    Res =  0.4643E+02
 Side 1  free  transition at x/c =  0.7548   60
 Side 2  free  transition at x/c =  0.0546   24

   2   rms: 0.5991E+00   max: -.5349E+00   U at   85  2   RLX: 0.701
       a = -3.000      CL = -0.1864
      Cm =  0.0019     CD =  0.00536   =>   CDf =  0.00251    CDp =  0.00285

 Side 1  free  transition at x/c =  0.7500   61
 Side 2  free  transition at x/c =  0.0568   23

   3   rms: 0.1720E+00   max: -.1653E+00   U at   84  2
       a = -3.000      CL =  0.0719
      Cm = -0.0790     CD =  0.00875   =>   CDf =  0.00750    CDp =  0.00125

 Side 1  free  transition at x/c =  0.7473   61
 Side 2  free  transition at x/c =  0.0535   23

   4   rms: 0.3310E-02   max: -.2786E-01   T at   23  2
       a = -3.000      CL =  0.0735
      Cm = -0.0792     CD =  0.00911   =>   CDf =  0.00634    CDp =  0.00277

 Side 1  free  transition at x/c =  0.7475   61
 Side 2  free  transition at x/c =  0.0538   23

   5   rms: 0.3775E-04   max: -.5904E-03   D at   23  2
       a = -3.000      CL =  0.0735
      Cm = -0.0792     CD =  0.00911   =>   CDf =  0.00634    CDp =  0.00277
 plradd ia,ip,cpol            3           0  2.86955573E-03

 Point added to stored polar  1
 Point written to save file  sd7034_Re600k.base.pol                          
 Dump file unspecified or not available
 Calculating wake trajectory ...
 Calculating source influence matrix ...

 Solving BL system ...

 Side 1  free  transition at x/c =  0.7475   61
 Side 2  free  transition at x/c =  0.0538   23

   1   rms: 0.1141E+00   max: 0.8789E+00   D at   23  2   RLX: 0.575
       a = -2.500      CL =  0.1056
      Cm = -0.0791     CD =  0.00890   =>   CDf =  0.00634    CDp =  0.00256

 Side 1  free  transition at x/c =  0.7386   60
 Side 2  free  transition at x/c =  0.0678   24

   2   rms: 0.4436E-01   max: 0.4660E+00   D at   24  2
       a = -2.500      CL =  0.1301
      Cm = -0.0791     CD =  0.00874   =>   CDf =  0.00637    CDp =  0.00237

 Side 1  free  transition at x/c =  0.7306   60
 Side 2  free  transition at x/c =  0.0767   25

   3   rms: 0.4478E-02   max: -.4524E-01   C at   60  1
       a = -2.500      CL =  0.1299
      Cm = -0.0791     CD =  0.00873   =>   CDf =  0.00637    CDp =  0.00236

 Side 1  free  transition at x/c =  0.7318   60
 Side 2  free  transition at x/c =  0.0770   25

   4   rms: 0.1716E-03   max: -.1784E-02   D at   62  1
       a = -2.500      CL =  0.1299
      Cm = -0.0791     CD =  0.00873   =>   CDf =  0.00635    CDp =  0.00238

 Side 1  free  transition at x/c =  0.7318   60
 Side 2  free  transition at x/c =  0.0770   25

   5   rms: 0.1110E-05   max: -.6160E-05   D at   25  2
       a = -2.500      CL =  0.1299
      Cm = -0.0791     CD =  0.00873   =>   CDf =  0.00635    CDp =  0.00238
 plradd ia,ip,cpol            4           0  2.86955573E-03

 Point added to stored polar  1
 Point written to save file  sd7034_Re600k.base.pol                          
 Dump file unspecified or not available
 Calculating wake trajectory ...
 Calculating source influence matrix ...

 Solving BL system ...

 Side 1  free  transition at x/c =  0.7318   60
 Side 2  free  transition at x/c =  0.0770   25

   1   rms: 0.1124E+00   max: 0.9513E+00   D at   25  2   RLX: 0.788
       a = -2.000      CL =  0.1739
      Cm = -0.0790     CD =  0.00845   =>   CDf =  0.00637    CDp =  0.00208

 Side 1  free  transition at x/c =  0.7190   60
 Side 2  free  transition at x/c =  0.0952   25

   2   rms: 0.2755E-01   max: -.1581E+00   C at   25  2
       a = -2.000      CL =  0.1864
      Cm = -0.0790     CD =  0.00845   =>   CDf =  0.00639    CDp =  0.00206

 Side 1  free  transition at x/c =  0.7149   60
 Side 2  free  transition at x/c =  0.1026   26

   3   rms: 0.8634E-02   max: -.8633E-01   C at   26  2
       a = -2.000      CL =  0.1863
      Cm = -0.0790     CD =  0.00842   =>   CDf =  0.00637    CDp =  0.00206

 Side 1  free  transition at x/c =  0.7154   60
 Side 2  free  transition at x/c =  0.1055   26

   4   rms: 0.8851E-03   max: 0.1436E-01   C at   26  2
       a = -2.000      CL =  0.1863
      Cm = -0.0790     CD =  0.00843   =>   CDf =  0.00634    CDp =  0.00209

 Side 1  free  transition at x/c =  0.7153   60
 Side 2  free  transition at x/c =  0.1052   26

   5   rms: 0.3630E-05   max: -.4736E-04   D at   27  2
       a = -2.000      CL =  0.1863
      Cm = -0.0790     CD =  0.00843   =>   CDf =  0.00634    CDp =  0.00209
 plradd ia,ip,cpol            5           0  4.45944164E-03

 Point added to stored polar  1
 Point written to save file  sd7034_Re600k.base.pol                          
 Dump file unspecified or not available
 Calculating wake trajectory ...
 Calculating source influence matrix ...

 Solving BL system ...

 Side 1  free  transition at x/c =  0.7153   60
 Side 2  free  transition at x/c =  0.1052   26

   1   rms: 0.1232E+00   max: -.1061E+01   C at   26  2   RLX: 0.471
       a = -1.500      CL =  0.2126
      Cm = -0.0790     CD =  0.00827   =>   CDf =  0.00634    CDp =  0.00193

 Side 1  free  transition at x/c =  0.7078   59
 Side 2  free  transition at x/c =  0.1221   27

   2   rms: 0.7223E-01   max: -.8377E+00   C at   27  2   RLX: 0.597
       a = -1.500      CL =  0.2309
      Cm = -0.0790     CD =  0.00819   =>   CDf =  0.00636    CDp =  0.00183

 Side 1  free  transition at x/c =  0.7013   60
 Side 2  free  transition at x/c =  0.1378   27

   3   rms: 0.4915E-01   max: -.8180E+00   C at   27  2   RLX: 0.611
       a = -1.500      CL =  0.2381
      Cm = -0.0789     CD =  0.00814   =>   CDf =  0.00631    CDp =  0.00183

 Side 1  free  transition at x/c =  0.6994   60
 Side 2  free  transition at x/c =  0.1490   28

   4   rms: 0.3537E-01   max: -.5642E+00   C at   28  2   RLX: 0.886
       a = -1.500      CL =  0.2420
      Cm = -0.0790     CD =  0.00806   =>   CDf =  0.00628    CDp =  0.00178

 Side 1  free  transition at x/c =  0.6985   60
 Side 2  free  transition at x/c =  0.1598   29

   5   rms: 0.2109E-01   max: -.2699E+00   C at   29  2
       a = -1.500      CL =  0.2425
      Cm = -0.0790     CD =  0.00805   =>   CDf =  0.00627    CDp =  0.00179

 Side 1  free  transition at x/c =  0.6984   60
 Side 2  free  transition at x/c =  0.1764   30

   6   rms: 0.8273E-02   max: 0.1149E+00   C at   30  2
       a = -1.500      CL =  0.2425
      Cm = -0.0790     CD =  0.00807   =>   CDf =  0.00618    CDp =  0.00189

 Side 1  free  transition at x/c =  0.6984   60
 Side 2  free  transition at x/c =  0.1709   29

   7   rms: 0.1192E-02   max: -.2039E-01   D at   30  2
       a = -1.500      CL =  0.2425
      Cm = -0.0790     CD =  0.00806   =>   CDf =  0.00619    CDp =  0.00187

 Side 1  free  transition at x/c =  0.6984   60
 Side 2  free  transition at x/c =  0.1705   29

   8   rms: 0.1597E-04   max: 0.3279E-03   C at   29  2
       a = -1.500      CL =  0.2425
      Cm = -0.0790     CD =  0.00806   =>   CDf =  0.00620    CDp =  0.00186
 plradd ia,ip,cpol            6           0  8.65579490E-03

 Point added to stored polar  1
 Point written to save file  sd7034_Re600k.base.pol                          
 Dump file unspecified or not available
 Calculating wake trajectory ...
 Calculating source influence matrix ...

 Solving BL system ...

 Side 1  free  transition at x/c =  0.6984   60
 Side 2  free  transition at x/c =  0.1705   29

   1   rms: 0.1873E+00   max: -.3590E+01   C at   29  2   RLX: 0.139
       a = -1.000      CL =  0.2502
      Cm = -0.0790     CD =  0.00801   =>   CDf =  0.00620    CDp =  0.00181

 Side 1  free  transition at x/c =  0.6961   60
 Side 2  free  transition at x/c =  0.1849   30

   2   rms: 0.1880E+00   max: -.3714E+01   C at   30  2   RLX: 0.135
       a = -1.000      CL =  0.2566
      Cm = -0.0790     CD =  0.00796   =>   CDf =  0.00617    CDp =  0.00179

 Side 1  free  transition at x/c =  0.6943   59
 Side 2  free  transition at x/c =  0.1966   31

   3   rms: 0.1818E+00   max: -.3396E+01   C at   31  2   RLX: 0.147
       a = -1.000      CL =  0.2631
      Cm = -0.0790     CD =  0.00790   =>   CDf =  0.00615    CDp =  0.00174

 Side 1  free  transition at x/c =  0.6923   59
 Side 2  free  transition at x/c =  0.2067   31

   4   rms: 0.8022E-01   max: -.1056E+01   C at   31  2   RLX: 0.474
       a = -1.000      CL =  0.2804
      Cm = -0.0790     CD =  0.00786   =>   CDf =  0.00613    CDp =  0.00173

 Side 1  free  transition at x/c =  0.6859   59
 Side 2  free  transition at x/c =  0.2692   35

   5   rms: 0.2198E+00   max: -.4713E+01   C at   35  2   RLX: 0.106
       a = -1.000      CL =  0.2798
      Cm = -0.0789     CD =  0.00765   =>   CDf =  0.00592    CDp =  0.00173

 Side 1  free  transition at x/c =  0.6854   59
 Side 2  free  transition at x/c =  0.2712   36

   6   rms: 0.9876E-01   max: -.1661E+01   C at   36  2   RLX: 0.301
       a = -1.000      CL =  0.2857
      Cm = -0.0790     CD =  0.00761   =>   CDf =  0.00595    CDp =  0.00167

 Side 1  free  transition at x/c =  0.6840   59
 Side 2  free  transition at x/c =  0.2902   37

   7   rms: 0.1077E+00   max: -.2233E+01   C at   37  2   RLX: 0.224
       a = -1.000      CL =  0.2885
      Cm = -0.0790     CD =  0.00757   =>   CDf =  0.00586    CDp =  0.00170

 Side 1  free  transition at x/c =  0.6833   59
 Side 2  free  transition at x/c =  0.3020   37

   8   rms: 0.7112E-01   max: -.1499E+01   C at   37  2   RLX: 0.334
       a = -1.000      CL =  0.2918
      Cm = -0.0791     CD =  0.00755   =>   CDf =  0.00583    CDp =  0.00172

 Side 1  free  transition at x/c =  0.6825   59
 Side 2  free  transition at x/c =  0.3178   38

   9   rms: 0.3611E-01   max: -.7419E+00   C at   38  2   RLX: 0.674
       a = -1.000      CL =  0.2959
      Cm = -0.0791     CD =  0.00750   =>   CDf =  0.00579    CDp =  0.00171

 Side 1  free  transition at x/c =  0.6814   59
 Side 2  free  transition at x/c =  0.3379   40

  10   rms: 0.1006E-01   max: -.1905E+00   C at   40  2
       a = -1.000      CL =  0.2977
      Cm = -0.0791     CD =  0.00745   =>   CDf =  0.00573    CDp =  0.00172

 Side 1  free  transition at x/c =  0.6809   59
 Side 2  free  transition at x/c =  0.3432   40

  11   rms: 0.1098E-02   max: -.2343E-01   C at   40  2
       a = -1.000      CL =  0.2978
      Cm = -0.0791     CD =  0.00745   =>   CDf =  0.00572    CDp =  0.00174

 Side 1  free  transition at x/c =  0.6809   59
 Side 2  free  transition at x/c =  0.3438   40

  12   rms: 0.1523E-05   max: -.1956E-04   C at   40  2
       a = -1.000      CL =  0.2978
      Cm = -0.0791     CD =  0.00745   =>   CDf =  0.00572    CDp =  0.00174
 plradd ia,ip,cpol            7           0  1.12858610E-02

 Point added to stored polar  1
 Point written to save file  sd7034_Re600k.base.pol                          
 Dump file unspecified or not available
 Calculating wake trajectory ...
 Calculating source influence matrix ...

 Solving BL system ...

 Side 1  free  transition at x/c =  0.6809   59
 Side 2  free  transition at x/c =  0.3438   40

   1   rms: 0.3077E+00   max: -.6226E+01   C at   40  2   RLX: 0.080
       a = -0.500      CL =  0.3021
      Cm = -0.0791     CD =  0.00741   =>   CDf =  0.00572    CDp =  0.00170

 Side 1  free  transition at x/c =  0.6797   59
 Side 2  free  transition at x/c =  0.3585   41

   2   rms: 0.2733E+00   max: -.5468E+01   C at   41  2   RLX: 0.091
       a = -0.500      CL =  0.3068
      Cm = -0.0791     CD =  0.00738   =>   CDf =  0.00568    CDp =  0.00170

 Side 1  free  transition at x/c =  0.6784   59
 Side 2  free  transition at x/c =  0.3734   41

   3   rms: 0.2486E+00   max: -.4701E+01   C at   41  2   RLX: 0.106
       a = -0.500      CL =  0.3119
      Cm = -0.0791     CD =  0.00732   =>   CDf =  0.00565    CDp =  0.00167

 Side 1  free  transition at x/c =  0.6767   59
 Side 2  free  transition at x/c =  0.3853   42

   4   rms: 0.1962E+00   max: -.3640E+01   C at   42  2   RLX: 0.137
       a = -0.500      CL =  0.3180
      Cm = -0.0792     CD =  0.00727   =>   CDf =  0.00562    CDp =  0.00165

 Side 1  free  transition at x/c =  0.6746   59
 Side 2  free  transition at x/c =  0.3984   42

   5   rms: 0.1532E+00   max: -.2996E+01   C at   42  2   RLX: 0.167
       a = -0.500      CL =  0.3242
      Cm = -0.0792     CD =  0.00726   =>   CDf =  0.00558    CDp =  0.00167

 Side 1  free  transition at x/c =  0.6724   59
 Side 2  free  transition at x/c =  0.4154   43

   6   rms: 0.1205E+00   max: -.2322E+01   C at   43  2   RLX: 0.215
       a = -0.500      CL =  0.3306
      Cm = -0.0792     CD =  0.00721   =>   CDf =  0.00554    CDp =  0.00167

 Side 1  free  transition at x/c =  0.6701   59
 Side 2  free  transition at x/c =  0.4422   45

   7   rms: 0.1400E+00   max: -.2790E+01   C at   45  2   RLX: 0.179
       a = -0.500      CL =  0.3343
      Cm = -0.0791     CD =  0.00713   =>   CDf =  0.00546    CDp =  0.00167

 Side 1  free  transition at x/c =  0.6687   59
 Side 2  free  transition at x/c =  0.4592   46

   8   rms: 0.1034E+00   max: -.2030E+01   C at   46  2   RLX: 0.246
       a = -0.500      CL =  0.3389
      Cm = -0.0791     CD =  0.00709   =>   CDf =  0.00542    CDp =  0.00167

 Side 1  free  transition at x/c =  0.6672   59
 Side 2  free  transition at x/c =  0.4800   47

   9   rms: 0.5719E-01   max: -.1064E+01   C at   47  2   RLX: 0.470
       a = -0.500      CL =  0.3455
      Cm = -0.0790     CD =  0.00705   =>   CDf =  0.00537    CDp =  0.00168

 Side 1  free  transition at x/c =  0.6652   59
 Side 2  free  transition at x/c =  0.5180   50

  10   rms: 0.3804E-01   max: -.7164E+00   C at   50  2   RLX: 0.698
       a = -0.500      CL =  0.3501
      Cm = -0.0789     CD =  0.00693   =>   CDf =  0.00527    CDp =  0.00166

 Side 1  free  transition at x/c =  0.6638   59
 Side 2  free  transition at x/c =  0.5300   51

  11   rms: 0.1668E-01   max: -.3220E+00   C at   51  2
       a = -0.500      CL =  0.3524
      Cm = -0.0789     CD =  0.00693   =>   CDf =  0.00526    CDp =  0.00167

 Side 1  free  transition at x/c =  0.6632   58
 Side 2  free  transition at x/c =  0.5399   51

  12   rms: 0.1622E-02   max: -.3242E-01   C at   51  2
       a = -0.500      CL =  0.3525
      Cm = -0.0790     CD =  0.00693   =>   CDf =  0.00522    CDp =  0.00170

 Side 1  free  transition at x/c =  0.6631   58
 Side 2  free  transition at x/c =  0.5410   51

  13   rms: 0.2842E-04   max: -.5618E-03   C at   51  2
       a = -0.500      CL =  0.3525
      Cm = -0.0790     CD =  0.00693   =>   CDf =  0.00522    CDp =  0.00171
 plradd ia,ip,cpol            8           0  0.20803928    

 Point added to stored polar  1
 Point written to save file  sd7034_Re600k.base.pol                          
 Dump file unspecified or not available
 Calculating wake trajectory ...
 Calculating source influence matrix ...

 Solving BL system ...

 Side 1  free  transition at x/c =  0.6631   58
 Side 2  free  transition at x/c =  0.5411   51

   1   rms: 0.2620E+00   max: -.4956E+01   C at   51  2   RLX: 0.101
       a =  0.000      CL =  0.3581
      Cm = -0.0789     CD =  0.00688   =>   CDf =  0.00522    CDp =  0.00166

 Side 1  free  transition at x/c =  0.6611   58
 Side 2  free  transition at x/c =  0.5609   53

   2   rms: 0.2509E+00   max: -.4643E+01   C at   53  2   RLX: 0.108
       a =  0.000      CL =  0.3633
      Cm = -0.0789     CD =  0.00681   =>   CDf =  0.00516    CDp =  0.00164

 Side 1  free  transition at x/c =  0.6591   58
 Side 2  free  transition at x/c =  0.5750   53

   3   rms: 0.1814E+00   max: -.3340E+01   C at   53  2   RLX: 0.150
       a =  0.000      CL =  0.3703
      Cm = -0.0790     CD =  0.00679   =>   CDf =  0.00512    CDp =  0.00167

 Side 1  free  transition at x/c =  0.6567   58
 Side 2  free  transition at x/c =  0.5971   55

   4   rms: 0.1823E+00   max: -.3419E+01   C at   55  2   RLX: 0.146
       a =  0.000      CL =  0.3755
      Cm = -0.0789     CD =  0.00672   =>   CDf =  0.00506    CDp =  0.00167

 Side 1  free  transition at x/c =  0.6547   58
 Side 2  free  transition at x/c =  0.6111   56

   5   rms: 0.1467E+00   max: -.2706E+01   C at   56  2   RLX: 0.185
       a =  0.000      CL =  0.3815
      Cm = -0.0789     CD =  0.00669   =>   CDf =  0.00503    CDp =  0.00166

 Side 1  free  transition at x/c =  0.6527   58
 Side 2  free  transition at x/c =  0.6252   57

   6   rms: 0.1395E+00   max: -.2254E+01   C at   57  2   RLX: 0.222
       a =  0.000      CL =  0.3872
      Cm = -0.0789     CD =  0.00666   =>   CDf =  0.00499    CDp =  0.00167

 Side 1  free  transition at x/c =  0.6508   59
 Side 2  free  transition at x/c =  0.6405   56

   7   rms: 0.1032E+00   max: -.1873E+01   C at   56  2   RLX: 0.267
       a =  0.000      CL =  0.3926
      Cm = -0.0789     CD =  0.00665   =>   CDf =  0.00498    CDp =  0.00168

 Side 1  free  transition at x/c =  0.6492   59
 Side 2  free  transition at x/c =  0.6602   58

   8   rms: 0.9361E-01   max: -.1789E+01   C at   58  2   RLX: 0.280
       a =  0.000      CL =  0.3962
      Cm = -0.0787     CD =  0.00659   =>   CDf =  0.00493    CDp =  0.00167

 Side 1  free  transition at x/c =  0.6480   59
 Side 2  free  transition at x/c =  0.6751   59

   9   rms: 0.7168E-01   max: -.1371E+01   C at   59  2   RLX: 0.365
       a =  0.000      CL =  0.3997
      Cm = -0.0786     CD =  0.00656   =>   CDf =  0.00489    CDp =  0.00167

 Side 1  free  transition at x/c =  0.6470   58
 Side 2  free  transition at x/c =  0.6905   60

  10   rms: 0.5351E-01   max: -.1029E+01   C at   60  2   RLX: 0.486
       a =  0.000      CL =  0.4028
      Cm = -0.0785     CD =  0.00651   =>   CDf =  0.00485    CDp =  0.00166

 Side 1  free  transition at x/c =  0.6457   58
 Side 2  free  transition at x/c =  0.7059   61

  11   rms: 0.3576E-01   max: -.6928E+00   C at   61  2   RLX: 0.722
       a =  0.000      CL =  0.4048
      Cm = -0.0783     CD =  0.00646   =>   CDf =  0.00480    CDp =  0.00166

 Side 1  free  transition at x/c =  0.6448   58
 Side 2  free  transition at x/c =  0.7215   62

  12   rms: 0.1717E-01   max: -.3355E+00   C at   62  2
       a =  0.000      CL =  0.4054
      Cm = -0.0781     CD =  0.00644   =>   CDf =  0.00475    CDp =  0.00169

 Side 1  free  transition at x/c =  0.6444   58
 Side 2  free  transition at x/c =  0.7329   62

  13   rms: 0.2130E-02   max: -.4114E-01   C at   62  2
       a =  0.000      CL =  0.4054
      Cm = -0.0781     CD =  0.00644   =>   CDf =  0.00471    CDp =  0.00174

 Side 1  free  transition at x/c =  0.6444   58
 Side 2  free  transition at x/c =  0.7345   62

  14   rms: 0.3763E-04   max: -.7091E-03   C at   62  2
       a =  0.000      CL =  0.4054
      Cm = -0.0781     CD =  0.00644   =>   CDf =  0.00470    CDp =  0.00174
 plradd ia,ip,cpol            9           0  0.19368976    

 Point added to stored polar  1
 Point written to save file  sd7034_Re600k.base.pol                          
 Dump file unspecified or not available
 Calculating wake trajectory ...
 Calculating source influence matrix ...

 Solving BL system ...

 Side 1  free  transition at x/c =  0.6444   58
 Side 2  free  transition at x/c =  0.7345   62

   1   rms: 0.2474E+00   max: -.4485E+01   C at   62  2   RLX: 0.111
       a =  0.500      CL =  0.4112
      Cm = -0.0780     CD =  0.00640   =>   CDf =  0.00470    CDp =  0.00169

 Side 1  free  transition at x/c =  0.6421   58
 Side 2  free  transition at x/c =  0.7600   64

   2   rms: 0.2494E+00   max: -.4615E+01   C at   64  2   RLX: 0.108
       a =  0.500      CL =  0.4156
      Cm = -0.0777     CD =  0.00632   =>   CDf =  0.00462    CDp =  0.00170

 Side 1  free  transition at x/c =  0.6401   58
 Side 2  free  transition at x/c =  0.7816   65

   3   rms: 0.1840E+00   max: -.3294E+01   C at   65  2   RLX: 0.152
       a =  0.500      CL =  0.4216
      Cm = -0.0775     CD =  0.00628   =>   CDf =  0.00457    CDp =  0.00172

 Side 1  free  transition at x/c =  0.6377   58
 Side 2  free  transition at x/c =  0.8170   68

   4   rms: 0.2026E+00   max: -.3813E+01   C at   68  2   RLX: 0.131
       a =  0.500      CL =  0.4247
      Cm = -0.0769     CD =  0.00618   =>   CDf =  0.00447    CDp =  0.00171

 Side 1  free  transition at x/c =  0.6361   58
 Side 2  free  transition at x/c =  0.8326   69

   5   rms: 0.1688E+00   max: -.3175E+01   C at   69  2   RLX: 0.158
       a =  0.500      CL =  0.4286
      Cm = -0.0767     CD =  0.00615   =>   CDf =  0.00444    CDp =  0.00171

 Side 1  free  transition at x/c =  0.6345   58
 Side 2  free  transition at x/c =  0.8489   70

   6   rms: 0.1523E+00   max: -.2884E+01   C at   70  2   RLX: 0.173
       a =  0.500      CL =  0.4321
      Cm = -0.0764     CD =  0.00612   =>   CDf =  0.00441    CDp =  0.00172

 Side 1  free  transition at x/c =  0.6331   58
 Side 2  free  transition at x/c =  0.8654   71

   7   rms: 0.1444E+00   max: -.2746E+01   C at   71  2   RLX: 0.182
       a =  0.500      CL =  0.4349
      Cm = -0.0761     CD =  0.00610   =>   CDf =  0.00437    CDp =  0.00172

 Side 1  free  transition at x/c =  0.6321   57
 Side 2  free  transition at x/c =  0.8823   72

   8   rms: 0.1357E+00   max: -.2570E+01   C at   72  2   RLX: 0.195
       a =  0.500      CL =  0.4374
      Cm = -0.0758     CD =  0.00605   =>   CDf =  0.00433    CDp =  0.00172

 Side 1  free  transition at x/c =  0.6308   57
 Side 2  free  transition at x/c =  0.9002   73

   9   rms: 0.1230E+00   max: -.2291E+01   C at   73  2   RLX: 0.218
       a =  0.500      CL =  0.4402
      Cm = -0.0756     CD =  0.00602   =>   CDf =  0.00429    CDp =  0.00173

 Side 1  free  transition at x/c =  0.6297   57
 Side 2  free  transition at x/c =  0.9203   74

  10   rms: 0.1035E+00   max: -.1856E+01   C at   74  2   RLX: 0.269
       a =  0.500      CL =  0.4444
      Cm = -0.0757     CD =  0.00599   =>   CDf =  0.00425    CDp =  0.00174

 Side 1  free  transition at x/c =  0.6284   57
 Side 2  free  transition at x/c =  0.9429   76

  11   rms: 0.9191E-01   max: -.1577E+01   C at   76  2   RLX: 0.317
       a =  0.500      CL =  0.4518
      Cm = -0.0766     CD =  0.00596   =>   CDf =  0.00423    CDp =  0.00173

 Side 1  free  transition at x/c =  0.6271   57
 Side 2  free  transition at x/c =  0.9581   77

  12   rms: 0.6146E-01   max: -.1016E+01   C at   77  2   RLX: 0.492
       a =  0.500      CL =  0.4609
      Cm = -0.0779     CD =  0.00596   =>   CDf =  0.00423    CDp =  0.00174

 Side 1  free  transition at x/c =  0.6257   57
 Side 2  free  transition at x/c =  0.9748   78

  13   rms: 0.3062E-01   max: -.5088E+00   C at   78  2   RLX: 0.983
       a =  0.500      CL =  0.4684
      Cm = -0.0788     CD =  0.00595   =>   CDf =  0.00424    CDp =  0.00171

 Side 1  free  transition at x/c =  0.6244   58
 Side 2  free  transition at x/c =  0.9989   79

  14   rms: 0.3253E-02   max: -.2924E-01   D at   79  2
       a =  0.500      CL =  0.4673
      Cm = -0.0785     CD =  0.00596   =>   CDf =  0.00425    CDp =  0.00172

 Side 1  free  transition at x/c =  0.6245   58
 Side 2 forced transition at x/c =  1.0000   79

  15   rms: 0.1024E-02   max: -.9906E-02   C at   79  2
       a =  0.500      CL =  0.4666
      Cm = -0.0784     CD =  0.00596   =>   CDf =  0.00425    CDp =  0.00171

 Side 1  free  transition at x/c =  0.6245   58
 Side 2 forced transition at x/c =  1.0000   79

  16   rms: 0.3119E-05   max: 0.4672E-04   C at   79  2
       a =  0.500      CL =  0.4666
      Cm = -0.0784     CD =  0.00596   =>   CDf =  0.00425    CDp =  0.00172
 plradd ia,ip,cpol           10           0  0.16547577    

 Point added to stored polar  1
 Point written to save file  sd7034_Re600k.base.pol                          
 Dump file unspecified or not available
 Calculating wake trajectory ...
 Calculating source influence matrix ...

 Solving BL system ...

 Side 1  free  transition at x/c =  0.6245   58
 Side 2 forced transition at x/c =  1.0000   79

   1   rms: 0.9368E-01   max: -.2198E+00   n at   78  2
       a =  1.000      CL =  0.5224
      Cm = -0.0782     CD =  0.00612   =>   CDf =  0.00425    CDp =  0.00187

 Side 1  free  transition at x/c =  0.6026   57
 Side 2 forced transition at x/c =  1.0000   79

   2   rms: 0.1893E-01   max: -.3142E+00   D at   57  1
       a =  1.000      CL =  0.5224
      Cm = -0.0782     CD =  0.00610   =>   CDf =  0.00446    CDp =  0.00165

 Side 1  free  transition at x/c =  0.6059   57
 Side 2 forced transition at x/c =  1.0000   79

   3   rms: 0.5493E-02   max: 0.8880E-01   C at   57  1
       a =  1.000      CL =  0.5224
      Cm = -0.0782     CD =  0.00613   =>   CDf =  0.00440    CDp =  0.00174

 Side 1  free  transition at x/c =  0.6039   57
 Side 2 forced transition at x/c =  1.0000   79

   4   rms: 0.1535E-03   max: -.2299E-02   D at   58  1
       a =  1.000      CL =  0.5224
      Cm = -0.0782     CD =  0.00614   =>   CDf =  0.00442    CDp =  0.00171

 Side 1  free  transition at x/c =  0.6039   57
 Side 2 forced transition at x/c =  1.0000   79

   5   rms: 0.1160E-05   max: 0.1372E-04   D at   57  1
       a =  1.000      CL =  0.5224
      Cm = -0.0782     CD =  0.00614   =>   CDf =  0.00442    CDp =  0.00171
 plradd ia,ip,cpol           11           0  0.15168445    

 Point added to stored polar  1
 Point written to save file  sd7034_Re600k.base.pol                          
 Dump file unspecified or not available
 Calculating wake trajectory ...
 Calculating source influence matrix ...

 Solving BL system ...

 Side 1  free  transition at x/c =  0.6039   57
 Side 2 forced transition at x/c =  1.0000   79

   1   rms: 0.9466E-01   max: -.1830E+00   n at   78  2
       a =  1.500      CL =  0.5775
      Cm = -0.0779     CD =  0.00639   =>   CDf =  0.00443    CDp =  0.00197

 Side 1  free  transition at x/c =  0.5831   56
 Side 2 forced transition at x/c =  1.0000   78

   2   rms: 0.1312E-01   max: 0.2114E+00   D at   57  1
       a =  1.500      CL =  0.5781
      Cm = -0.0780     CD =  0.00633   =>   CDf =  0.00458    CDp =  0.00175

 Side 1  free  transition at x/c =  0.5830   56
 Side 2 forced transition at x/c =  1.0000   78

   3   rms: 0.1128E-02   max: 0.1822E-01   C at   56  1
       a =  1.500      CL =  0.5782
      Cm = -0.0780     CD =  0.00632   =>   CDf =  0.00457    CDp =  0.00175

 Side 1  free  transition at x/c =  0.5825   56
 Side 2 forced transition at x/c =  1.0000   78

   4   rms: 0.7029E-05   max: -.9870E-04   C at   56  1
       a =  1.500      CL =  0.5782
      Cm = -0.0780     CD =  0.00632   =>   CDf =  0.00457    CDp =  0.00175
 plradd ia,ip,cpol           12           0  0.15168445    

 Point added to stored polar  1
 Point written to save file  sd7034_Re600k.base.pol                          
 Dump file unspecified or not available
 Calculating wake trajectory ...
 Calculating source influence matrix ...

 Solving BL system ...

 Side 1  free  transition at x/c =  0.5825   56
 Side 2 forced transition at x/c =  1.0000   78

   1   rms: 0.8944E-01   max: -.1571E+00   n at   77  2
       a =  2.000      CL =  0.6345
      Cm = -0.0780     CD =  0.00647   =>   CDf =  0.00456    CDp =  0.00191

 Side 1  free  transition at x/c =  0.5568   56
 Side 2 forced transition at x/c =  1.0000   77

   2   rms: 0.1898E-01   max: -.3011E+00   D at   56  1
       a =  2.000      CL =  0.6338
      Cm = -0.0779     CD =  0.00651   =>   CDf =  0.00476    CDp =  0.00175

 Side 1  free  transition at x/c =  0.5622   56
 Side 2 forced transition at x/c =  1.0000   77

   3   rms: 0.5614E-02   max: 0.9737E-01   C at   56  1
       a =  2.000      CL =  0.6339
      Cm = -0.0779     CD =  0.00653   =>   CDf =  0.00468    CDp =  0.00185

 Side 1  free  transition at x/c =  0.5599   56
 Side 2 forced transition at x/c =  1.0000   77

   4   rms: 0.1365E-03   max: -.1634E-02   D at   58  1
       a =  2.000      CL =  0.6338
      Cm = -0.0779     CD =  0.00653   =>   CDf =  0.00470    CDp =  0.00183

 Side 1  free  transition at x/c =  0.5599   56
 Side 2 forced transition at x/c =  1.0000   77

   5   rms: 0.1128E-05   max: -.7433E-05   D at    4  1
       a =  2.000      CL =  0.6338
      Cm = -0.0779     CD =  0.00653   =>   CDf =  0.00470    CDp =  0.00183
 plradd ia,ip,cpol           13           0  0.13813534    

 Point added to stored polar  1
 Point written to save file  sd7034_Re600k.base.pol                          
 Dump file unspecified or not available
 Calculating wake trajectory ...
 Calculating source influence matrix ...

 Solving BL system ...

 Side 1  free  transition at x/c =  0.5599   56
 Side 2 forced transition at x/c =  1.0000   77

   1   rms: 0.8913E-01   max: -.1102E+00   C at   77  2
       a =  2.500      CL =  0.6890
      Cm = -0.0777     CD =  0.00680   =>   CDf =  0.00470    CDp =  0.00210

 Side 1  free  transition at x/c =  0.5362   54
 Side 2 forced transition at x/c =  1.0000   77

   2   rms: 0.1145E-01   max: 0.2092E+00   D at   55  1
       a =  2.500      CL =  0.6892
      Cm = -0.0777     CD =  0.00678   =>   CDf =  0.00485    CDp =  0.00193

 Side 1  free  transition at x/c =  0.5375   54
 Side 2 forced transition at x/c =  1.0000   77

   3   rms: 0.1305E-02   max: 0.2389E-01   C at   54  1
       a =  2.500      CL =  0.6893
      Cm = -0.0777     CD =  0.00677   =>   CDf =  0.00483    CDp =  0.00194

 Side 1  free  transition at x/c =  0.5368   54
 Side 2 forced transition at x/c =  1.0000   77

   4   rms: 0.9481E-05   max: -.1456E-03   C at   54  1
       a =  2.500      CL =  0.6893
      Cm = -0.0777     CD =  0.00677   =>   CDf =  0.00483    CDp =  0.00194
 plradd ia,ip,cpol           14           0  0.12484860    

 Point added to stored polar  1
 Point written to save file  sd7034_Re600k.base.pol                          
 Dump file unspecified or not available
 Calculating wake trajectory ...
 Calculating source influence matrix ...

 Solving BL system ...

 Side 1  free  transition at x/c =  0.5368   54
 Side 2 forced transition at x/c =  1.0000   77

   1   rms: 0.8443E-01   max: -.9812E-01   C at   77  2
       a =  3.000      CL =  0.7453
      Cm = -0.0777     CD =  0.00696   =>   CDf =  0.00479    CDp =  0.00216

 Side 1  free  transition at x/c =  0.5086   53
 Side 2 forced transition at x/c =  1.0000   76

   2   rms: 0.2031E-01   max: -.3971E+00   D at   54  1
       a =  3.000      CL =  0.7440
      Cm = -0.0775     CD =  0.00707   =>   CDf =  0.00501    CDp =  0.00207

 Side 1  free  transition at x/c =  0.5145   54
 Side 2 forced transition at x/c =  1.0000   76

   3   rms: 0.4253E-02   max: 0.6279E-01   C at   54  1
       a =  3.000      CL =  0.7444
      Cm = -0.0776     CD =  0.00704   =>   CDf =  0.00493    CDp =  0.00211

 Side 1  free  transition at x/c =  0.5122   54
 Side 2 forced transition at x/c =  1.0000   76

   4   rms: 0.7358E-04   max: -.1056E-02   D at   55  1
       a =  3.000      CL =  0.7444
      Cm = -0.0776     CD =  0.00704   =>   CDf =  0.00495    CDp =  0.00209
 plradd ia,ip,cpol           15           0  0.11186313    

 Point added to stored polar  1
 Point written to save file  sd7034_Re600k.base.pol                          
 Dump file unspecified or not available
 Calculating wake trajectory ...
 Calculating source influence matrix ...

 Solving BL system ...

 Side 1  free  transition at x/c =  0.5121   54
 Side 2 forced transition at x/c =  1.0000   76

   1   rms: 0.9032E-01   max: 0.5255E+00   C at   54  1
       a =  3.500      CL =  0.7986
      Cm = -0.0773     CD =  0.00742   =>   CDf =  0.00495    CDp =  0.00247

 Side 1  free  transition at x/c =  0.4864   52
 Side 2 forced transition at x/c =  1.0000   76

   2   rms: 0.1439E-01   max: 0.2384E+00   D at   53  1
       a =  3.500      CL =  0.7993
      Cm = -0.0774     CD =  0.00734   =>   CDf =  0.00507    CDp =  0.00227

 Side 1  free  transition at x/c =  0.4873   52
 Side 2 forced transition at x/c =  1.0000   76

   3   rms: 0.1818E-02   max: 0.3117E-01   C at   52  1
       a =  3.500      CL =  0.7993
      Cm = -0.0774     CD =  0.00734   =>   CDf =  0.00505    CDp =  0.00229

 Side 1  free  transition at x/c =  0.4865   52
 Side 2 forced transition at x/c =  1.0000   76

   4   rms: 0.1873E-04   max: -.4062E-03   D at   53  1
       a =  3.500      CL =  0.7993
      Cm = -0.0774     CD =  0.00734   =>   CDf =  0.00506    CDp =  0.00228
 plradd ia,ip,cpol           16           0  9.92387831E-02

 Point added to stored polar  1
 Point written to save file  sd7034_Re600k.base.pol                          
 Dump file unspecified or not available
 Calculating wake trajectory ...
 Calculating source influence matrix ...

 Solving BL system ...

 Side 1  free  transition at x/c =  0.4865   52
 Side 2 forced transition at x/c =  1.0000   76

   1   rms: 0.8858E-01   max: -.9029E-01   C at   76  2
       a =  4.000      CL =  0.8540
      Cm = -0.0772     CD =  0.00765   =>   CDf =  0.00499    CDp =  0.00266

 Side 1  free  transition at x/c =  0.4576   51
 Side 2 forced transition at x/c =  1.0000   75

   2   rms: 0.1385E-01   max: 0.2150E+00   D at   52  1
       a =  4.000      CL =  0.8536
      Cm = -0.0771     CD =  0.00769   =>   CDf =  0.00519    CDp =  0.00250

 Side 1  free  transition at x/c =  0.4605   51
 Side 2 forced transition at x/c =  1.0000   75

   3   rms: 0.1763E-02   max: 0.3172E-01   C at   51  1
       a =  4.000      CL =  0.8536
      Cm = -0.0771     CD =  0.00768   =>   CDf =  0.00516    CDp =  0.00252

 Side 1  free  transition at x/c =  0.4597   51
 Side 2 forced transition at x/c =  1.0000   75

   4   rms: 0.1192E-04   max: -.1423E-03   C at   51  1
       a =  4.000      CL =  0.8536
      Cm = -0.0771     CD =  0.00768   =>   CDf =  0.00517    CDp =  0.00252
 plradd ia,ip,cpol           17           0  7.54197240E-02

 Point added to stored polar  1
 Point written to save file  sd7034_Re600k.base.pol                          
 Dump file unspecified or not available
 Calculating wake trajectory ...
 Calculating source influence matrix ...

 Solving BL system ...

 Side 1  free  transition at x/c =  0.4597   51
 Side 2 forced transition at x/c =  1.0000   75

   1   rms: 0.8515E-01   max: -.8371E-01   C at   75  2
       a =  4.500      CL =  0.9087
      Cm = -0.0770     CD =  0.00796   =>   CDf =  0.00508    CDp =  0.00288

 Side 1  free  transition at x/c =  0.4284   50
 Side 2 forced transition at x/c =  1.0000   74

   2   rms: 0.1278E-01   max: 0.1928E+00   D at   51  1
       a =  4.500      CL =  0.9074
      Cm = -0.0768     CD =  0.00808   =>   CDf =  0.00531    CDp =  0.00277

 Side 1  free  transition at x/c =  0.4326   50
 Side 2 forced transition at x/c =  1.0000   74

   3   rms: 0.1498E-02   max: 0.2259E-01   C at   50  1
       a =  4.500      CL =  0.9074
      Cm = -0.0768     CD =  0.00808   =>   CDf =  0.00527    CDp =  0.00281

 Side 1  free  transition at x/c =  0.4318   50
 Side 2 forced transition at x/c =  1.0000   74

   4   rms: 0.2125E-04   max: -.3965E-03   C at   50  1
       a =  4.500      CL =  0.9074
      Cm = -0.0768     CD =  0.00808   =>   CDf =  0.00528    CDp =  0.00280
 plradd ia,ip,cpol           18           0  6.44598007E-02

 Point added to stored polar  1
 Point written to save file  sd7034_Re600k.base.pol                          
 Dump file unspecified or not available
 Calculating wake trajectory ...
 Calculating source influence matrix ...

 Solving BL system ...

 Side 1  free  transition at x/c =  0.4318   50
 Side 2 forced transition at x/c =  1.0000   74

   1   rms: 0.8395E-01   max: -.7750E-01   C at   74  2
       a =  5.000      CL =  0.9627
      Cm = -0.0767     CD =  0.00833   =>   CDf =  0.00528    CDp =  0.00305

 Side 1  free  transition at x/c =  0.3987   48
 Side 2 forced transition at x/c =  1.0000   74

   2   rms: 0.1210E-01   max: -.1898E+00   C at   48  1
       a =  5.000      CL =  0.9606
      Cm = -0.0765     CD =  0.00852   =>   CDf =  0.00543    CDp =  0.00309

 Side 1  free  transition at x/c =  0.4029   49
 Side 2 forced transition at x/c =  1.0000   74

   3   rms: 0.3349E-02   max: -.4519E-01   D at   48  1
       a =  5.000      CL =  0.9607
      Cm = -0.0765     CD =  0.00851   =>   CDf =  0.00540    CDp =  0.00311

 Side 1  free  transition at x/c =  0.4029   49
 Side 2 forced transition at x/c =  1.0000   74

   4   rms: 0.2538E-03   max: 0.3528E-02   C at   49  1
       a =  5.000      CL =  0.9607
      Cm = -0.0765     CD =  0.00851   =>   CDf =  0.00538    CDp =  0.00313

 Side 1  free  transition at x/c =  0.4028   49
 Side 2 forced transition at x/c =  1.0000   74

   5   rms: 0.1929E-05   max: 0.1772E-04   C at   49  1
       a =  5.000      CL =  0.9607
      Cm = -0.0765     CD =  0.00851   =>   CDf =  0.00538    CDp =  0.00313
 plradd ia,ip,cpol           19           0  5.43262400E-02

 Point added to stored polar  1
 Point written to save file  sd7034_Re600k.base.pol                          
 Dump file unspecified or not available
 Calculating wake trajectory ...
 Calculating source influence matrix ...

 Solving BL system ...

 Side 1  free  transition at x/c =  0.4028   49
 Side 2 forced transition at x/c =  1.0000   74

   1   rms: 0.9504E-01   max: 0.6054E+00   C at   49  1   RLX: 0.952
       a =  5.500      CL =  1.0095
      Cm = -0.0759     CD =  0.00912   =>   CDf =  0.00527    CDp =  0.00385

 Side 1  free  transition at x/c =  0.3740   48
 Side 2 forced transition at x/c =  1.0000   73

   2   rms: 0.1998E-01   max: 0.2255E+00   D at   49  1
       a =  5.500      CL =  1.0135
      Cm = -0.0761     CD =  0.00897   =>   CDf =  0.00547    CDp =  0.00350

 Side 1  free  transition at x/c =  0.3742   48
 Side 2 forced transition at x/c =  1.0000   73

   3   rms: 0.2267E-02   max: 0.3134E-01   C at   48  1
       a =  5.500      CL =  1.0135
      Cm = -0.0761     CD =  0.00897   =>   CDf =  0.00546    CDp =  0.00352

 Side 1  free  transition at x/c =  0.3734   48
 Side 2 forced transition at x/c =  1.0000   73

   4   rms: 0.3548E-04   max: -.6616E-03   D at   49  1
       a =  5.500      CL =  1.0134
      Cm = -0.0761     CD =  0.00898   =>   CDf =  0.00547    CDp =  0.00351
 plradd ia,ip,cpol           20           0  3.71024683E-02

 Point added to stored polar  1
 Point written to save file  sd7034_Re600k.base.pol                          
 Dump file unspecified or not available
 Calculating wake trajectory ...
 Calculating source influence matrix ...

 Solving BL system ...

 Side 1  free  transition at x/c =  0.3734   48
 Side 2 forced transition at x/c =  1.0000   73

   1   rms: 0.9521E-01   max: 0.6682E+00   C at   48  1   RLX: 0.962
       a =  6.000      CL =  1.0623
      Cm = -0.0755     CD =  0.00962   =>   CDf =  0.00534    CDp =  0.00428

 Side 1  free  transition at x/c =  0.3431   47
 Side 2 forced transition at x/c =  1.0000   72

   2   rms: 0.1816E-01   max: 0.2248E+00   D at   48  1
       a =  6.000      CL =  1.0654
      Cm = -0.0756     CD =  0.00949   =>   CDf =  0.00558    CDp =  0.00392

 Side 1  free  transition at x/c =  0.3440   47
 Side 2 forced transition at x/c =  1.0000   72

   3   rms: 0.2307E-02   max: -.3293E-01   D at   48  1
       a =  6.000      CL =  1.0654
      Cm = -0.0756     CD =  0.00950   =>   CDf =  0.00555    CDp =  0.00395

 Side 1  free  transition at x/c =  0.3433   47
 Side 2 forced transition at x/c =  1.0000   72

   4   rms: 0.4527E-04   max: -.8745E-03   D at   48  1
       a =  6.000      CL =  1.0654
      Cm = -0.0756     CD =  0.00950   =>   CDf =  0.00556    CDp =  0.00394
 plradd ia,ip,cpol           21           0  1.96067039E-02

 Point added to stored polar  1
 Point written to save file  sd7034_Re600k.base.pol                          
 Dump file unspecified or not available
 Calculating wake trajectory ...
 Calculating source influence matrix ...

 Solving BL system ...

 Side 1  free  transition at x/c =  0.3433   47
 Side 2 forced transition at x/c =  1.0000   72

   1   rms: 0.9672E-01   max: 0.7042E+00   C at   47  1   RLX: 0.900
       a =  6.500      CL =  1.1102
      Cm = -0.0750     CD =  0.01017   =>   CDf =  0.00556    CDp =  0.00461

 Side 1  free  transition at x/c =  0.3137   45
 Side 2 forced transition at x/c =  1.0000   72

   2   rms: 0.1907E-01   max: 0.1985E+00   D at   46  1
       a =  6.500      CL =  1.1162
      Cm = -0.0750     CD =  0.01010   =>   CDf =  0.00567    CDp =  0.00443

 Side 1  free  transition at x/c =  0.3127   45
 Side 2 forced transition at x/c =  1.0000   72

   3   rms: 0.1840E-02   max: 0.2440E-01   C at   45  1
       a =  6.500      CL =  1.1162
      Cm = -0.0750     CD =  0.01011   =>   CDf =  0.00566    CDp =  0.00444

 Side 1  free  transition at x/c =  0.3121   45
 Side 2 forced transition at x/c =  1.0000   72

   4   rms: 0.3258E-04   max: -.4858E-03   D at   46  1
       a =  6.500      CL =  1.1162
      Cm = -0.0750     CD =  0.01011   =>   CDf =  0.00567    CDp =  0.00443
 plradd ia,ip,cpol           22           0  1.96067039E-02

 Point added to stored polar  1
 Point written to save file  sd7034_Re600k.base.pol                          
 Dump file unspecified or not available
 Calculating wake trajectory ...
 Calculating source influence matrix ...

 Solving BL system ...

 Side 1  free  transition at x/c =  0.3121   45
 Side 2 forced transition at x/c =  1.0000   72

   1   rms: 0.1000E+00   max: 0.6694E+00   C at   45  1   RLX: 0.764
       a =  7.000      CL =  1.1529
      Cm = -0.0743     CD =  0.01079   =>   CDf =  0.00551    CDp =  0.00527

 Side 1  free  transition at x/c =  0.2885   44
 Side 2 forced transition at x/c =  1.0000   71

   2   rms: 0.2763E-01   max: -.2342E+00   D at   46  1
       a =  7.000      CL =  1.1665
      Cm = -0.0744     CD =  0.01074   =>   CDf =  0.00573    CDp =  0.00501

 Side 1  free  transition at x/c =  0.2810   43
 Side 2 forced transition at x/c =  1.0000   71

   3   rms: 0.2076E-02   max: -.2933E-01   C at   43  1
       a =  7.000      CL =  1.1661
      Cm = -0.0743     CD =  0.01077   =>   CDf =  0.00577    CDp =  0.00499

 Side 1  free  transition at x/c =  0.2807   43
 Side 2 forced transition at x/c =  1.0000   71

   4   rms: 0.5845E-02   max: -.1181E+00   C at   43  1
       a =  7.000      CL =  1.1660
      Cm = -0.0743     CD =  0.01077   =>   CDf =  0.00579    CDp =  0.00498

 Side 1  free  transition at x/c =  0.2808   43
 Side 2 forced transition at x/c =  1.0000   71

   5   rms: 0.5700E-02   max: -.1155E+00   C at   43  1
       a =  7.000      CL =  1.1660
      Cm = -0.0743     CD =  0.01077   =>   CDf =  0.00579    CDp =  0.00498

 Side 1  free  transition at x/c =  0.2808   43
 Side 2 forced transition at x/c =  1.0000   71

   6   rms: 0.5717E-02   max: -.1158E+00   C at   43  1
       a =  7.000      CL =  1.1660
      Cm = -0.0743     CD =  0.01077   =>   CDf =  0.00579    CDp =  0.00498

 Side 1  free  transition at x/c =  0.2808   43
 Side 2 forced transition at x/c =  1.0000   71

   7   rms: 0.5715E-02   max: -.1158E+00   C at   43  1
       a =  7.000      CL =  1.1660
      Cm = -0.0743     CD =  0.01077   =>   CDf =  0.00579    CDp =  0.00498

 Side 1  free  transition at x/c =  0.2808   43
 Side 2 forced transition at x/c =  1.0000   71

   8   rms: 0.5716E-02   max: -.1158E+00   C at   43  1
       a =  7.000      CL =  1.1660
      Cm = -0.0743     CD =  0.01077   =>   CDf =  0.00579    CDp =  0.00498

 Side 1  free  transition at x/c =  0.2808   43
 Side 2 forced transition at x/c =  1.0000   71

   9   rms: 0.5716E-02   max: -.1158E+00   C at   43  1
       a =  7.000      CL =  1.1660
      Cm = -0.0743     CD =  0.01077   =>   CDf =  0.00579    CDp =  0.00498

 Side 1  free  transition at x/c =  0.2808   43
 Side 2 forced transition at x/c =  1.0000   71

  10   rms: 0.5716E-02   max: -.1158E+00   C at   43  1
       a =  7.000      CL =  1.1660
      Cm = -0.0743     CD =  0.01077   =>   CDf =  0.00579    CDp =  0.00498

 Side 1  free  transition at x/c =  0.2808   43
 Side 2 forced transition at x/c =  1.0000   71

  11   rms: 0.5716E-02   max: -.1158E+00   C at   43  1
       a =  7.000      CL =  1.1660
      Cm = -0.0743     CD =  0.01077   =>   CDf =  0.00579    CDp =  0.00498

 Side 1  free  transition at x/c =  0.2808   43
 Side 2 forced transition at x/c =  1.0000   71

  12   rms: 0.5716E-02   max: -.1158E+00   C at   43  1
       a =  7.000      CL =  1.1660
      Cm = -0.0743     CD =  0.01077   =>   CDf =  0.00579    CDp =  0.00498

 Side 1  free  transition at x/c =  0.2808   43
 Side 2 forced transition at x/c =  1.0000   71

  13   rms: 0.5716E-02   max: -.1158E+00   C at   43  1
       a =  7.000      CL =  1.1660
      Cm = -0.0743     CD =  0.01077   =>   CDf =  0.00579    CDp =  0.00498

 Side 1  free  transition at x/c =  0.2808   43
 Side 2 forced transition at x/c =  1.0000   71

  14   rms: 0.5716E-02   max: -.1158E+00   C at   43  1
       a =  7.000      CL =  1.1660
      Cm = -0.0743     CD =  0.01077   =>   CDf =  0.00579    CDp =  0.00498

 Side 1  free  transition at x/c =  0.2808   43
 Side 2 forced transition at x/c =  1.0000   71

  15   rms: 0.5716E-02   max: -.1158E+00   C at   43  1
       a =  7.000      CL =  1.1660
      Cm = -0.0743     CD =  0.01077   =>   CDf =  0.00579    CDp =  0.00498

 Side 1  free  transition at x/c =  0.2808   43
 Side 2 forced transition at x/c =  1.0000   71

  16   rms: 0.5716E-02   max: -.1158E+00   C at   43  1
       a =  7.000      CL =  1.1660
      Cm = -0.0743     CD =  0.01077   =>   CDf =  0.00579    CDp =  0.00498

 Side 1  free  transition at x/c =  0.2808   43
 Side 2 forced transition at x/c =  1.0000   71

  17   rms: 0.5716E-02   max: -.1158E+00   C at   43  1
       a =  7.000      CL =  1.1660
      Cm = -0.0743     CD =  0.01077   =>   CDf =  0.00579    CDp =  0.00498

 Side 1  free  transition at x/c =  0.2808   43
 Side 2 forced transition at x/c =  1.0000   71

  18   rms: 0.5716E-02   max: -.1158E+00   C at   43  1
       a =  7.000      CL =  1.1660
      Cm = -0.0743     CD =  0.01077   =>   CDf =  0.00579    CDp =  0.00498

 Side 1  free  transition at x/c =  0.2808   43
 Side 2 forced transition at x/c =  1.0000   71

  19   rms: 0.5716E-02   max: -.1158E+00   C at   43  1
       a =  7.000      CL =  1.1660
      Cm = -0.0743     CD =  0.01077   =>   CDf =  0.00579    CDp =  0.00498

 Side 1  free  transition at x/c =  0.2808   43
 Side 2 forced transition at x/c =  1.0000   71

  20   rms: 0.5716E-02   max: -.1158E+00   C at   43  1
       a =  7.000      CL =  1.1660
      Cm = -0.0743     CD =  0.01077   =>   CDf =  0.00579    CDp =  0.00498

 Side 1  free  transition at x/c =  0.2808   43
 Side 2 forced transition at x/c =  1.0000   71

  21   rms: 0.5716E-02   max: -.1158E+00   C at   43  1
       a =  7.000      CL =  1.1660
      Cm = -0.0743     CD =  0.01077   =>   CDf =  0.00579    CDp =  0.00498

 Side 1  free  transition at x/c =  0.2808   43
 Side 2 forced transition at x/c =  1.0000   71

  22   rms: 0.5716E-02   max: -.1158E+00   C at   43  1
       a =  7.000      CL =  1.1660
      Cm = -0.0743     CD =  0.01077   =>   CDf =  0.00579    CDp =  0.00498

 Side 1  free  transition at x/c =  0.2808   43
 Side 2 forced transition at x/c =  1.0000   71

  23   rms: 0.5716E-02   max: -.1158E+00   C at   43  1
       a =  7.000      CL =  1.1660
      Cm = -0.0743     CD =  0.01077   =>   CDf =  0.00579    CDp =  0.00498

 Side 1  free  transition at x/c =  0.2808   43
 Side 2 forced transition at x/c =  1.0000   71

  24   rms: 0.5716E-02   max: -.1158E+00   C at   43  1
       a =  7.000      CL =  1.1660
      Cm = -0.0743     CD =  0.01077   =>   CDf =  0.00579    CDp =  0.00498

 Side 1  free  transition at x/c =  0.2808   43
 Side 2 forced transition at x/c =  1.0000   71

  25   rms: 0.5716E-02   max: -.1158E+00   C at   43  1
       a =  7.000      CL =  1.1660
      Cm = -0.0743     CD =  0.01077   =>   CDf =  0.00579    CDp =  0.00498

 Side 1  free  transition at x/c =  0.2808   43
 Side 2 forced transition at x/c =  1.0000   71

  26   rms: 0.5716E-02   max: -.1158E+00   C at   43  1
       a =  7.000      CL =  1.1660
      Cm = -0.0743     CD =  0.01077   =>   CDf =  0.00579    CDp =  0.00498

 Side 1  free  transition at x/c =  0.2808   43
 Side 2 forced transition at x/c =  1.0000   71

  27   rms: 0.5716E-02   max: -.1158E+00   C at   43  1
       a =  7.000      CL =  1.1660
      Cm = -0.0743     CD =  0.01077   =>   CDf =  0.00579    CDp =  0.00498

 Side 1  free  transition at x/c =  0.2808   43
 Side 2 forced transition at x/c =  1.0000   71

  28   rms: 0.5716E-02   max: -.1158E+00   C at   43  1
       a =  7.000      CL =  1.1660
      Cm = -0.0743     CD =  0.01077   =>   CDf =  0.00579    CDp =  0.00498

 Side 1  free  transition at x/c =  0.2808   43
 Side 2 forced transition at x/c =  1.0000   71

  29   rms: 0.5716E-02   max: -.1158E+00   C at   43  1
       a =  7.000      CL =  1.1660
      Cm = -0.0743     CD =  0.01077   =>   CDf =  0.00579    CDp =  0.00498

 Side 1  free  transition at x/c =  0.2808   43
 Side 2 forced transition at x/c =  1.0000   71

  30   rms: 0.5716E-02   max: -.1158E+00   C at   43  1
       a =  7.000      CL =  1.1660
      Cm = -0.0743     CD =  0.01077   =>   CDf =  0.00579    CDp =  0.00498

 Side 1  free  transition at x/c =  0.2808   43
 Side 2 forced transition at x/c =  1.0000   71

  31   rms: 0.5716E-02   max: -.1158E+00   C at   43  1
       a =  7.000      CL =  1.1660
      Cm = -0.0743     CD =  0.01077   =>   CDf =  0.00579    CDp =  0.00498

 Side 1  free  transition at x/c =  0.2808   43
 Side 2 forced transition at x/c =  1.0000   71

  32   rms: 0.5716E-02   max: -.1158E+00   C at   43  1
       a =  7.000      CL =  1.1660
      Cm = -0.0743     CD =  0.01077   =>   CDf =  0.00579    CDp =  0.00498

 Side 1  free  transition at x/c =  0.2808   43
 Side 2 forced transition at x/c =  1.0000   71

  33   rms: 0.5716E-02   max: -.1158E+00   C at   43  1
       a =  7.000      CL =  1.1660
      Cm = -0.0743     CD =  0.01077   =>   CDf =  0.00579    CDp =  0.00498

 Side 1  free  transition at x/c =  0.2808   43
 Side 2 forced transition at x/c =  1.0000   71

  34   rms: 0.5716E-02   max: -.1158E+00   C at   43  1
       a =  7.000      CL =  1.1660
      Cm = -0.0743     CD =  0.01077   =>   CDf =  0.00579    CDp =  0.00498

 Side 1  free  transition at x/c =  0.2808   43
 Side 2 forced transition at x/c =  1.0000   71

  35   rms: 0.5716E-02   max: -.1158E+00   C at   43  1
       a =  7.000      CL =  1.1660
      Cm = -0.0743     CD =  0.01077   =>   CDf =  0.00579    CDp =  0.00498

 Side 1  free  transition at x/c =  0.2808   43
 Side 2 forced transition at x/c =  1.0000   71

  36   rms: 0.5716E-02   max: -.1158E+00   C at   43  1
       a =  7.000      CL =  1.1660
      Cm = -0.0743     CD =  0.01077   =>   CDf =  0.00579    CDp =  0.00498

 Side 1  free  transition at x/c =  0.2808   43
 Side 2 forced transition at x/c =  1.0000   71

  37   rms: 0.5716E-02   max: -.1158E+00   C at   43  1
       a =  7.000      CL =  1.1660
      Cm = -0.0743     CD =  0.01077   =>   CDf =  0.00579    CDp =  0.00498

 Side 1  free  transition at x/c =  0.2808   43
 Side 2 forced transition at x/c =  1.0000   71

  38   rms: 0.5716E-02   max: -.1158E+00   C at   43  1
       a =  7.000      CL =  1.1660
      Cm = -0.0743     CD =  0.01077   =>   CDf =  0.00579    CDp =  0.00498

 Side 1  free  transition at x/c =  0.2808   43
 Side 2 forced transition at x/c =  1.0000   71

  39   rms: 0.5716E-02   max: -.1158E+00   C at   43  1
       a =  7.000      CL =  1.1660
      Cm = -0.0743     CD =  0.01077   =>   CDf =  0.00579    CDp =  0.00498

 Side 1  free  transition at x/c =  0.2808   43
 Side 2 forced transition at x/c =  1.0000   71

  40   rms: 0.5716E-02   max: -.1158E+00   C at   43  1
       a =  7.000      CL =  1.1660
      Cm = -0.0743     CD =  0.01077   =>   CDf =  0.00579    CDp =  0.00498

 Side 1  free  transition at x/c =  0.2808   43
 Side 2 forced transition at x/c =  1.0000   71

  41   rms: 0.5715E-02   max: -.1158E+00   C at   43  1
       a =  7.000      CL =  1.1660
      Cm = -0.0743     CD =  0.01077   =>   CDf =  0.00579    CDp =  0.00498

 Side 1  free  transition at x/c =  0.2808   43
 Side 2 forced transition at x/c =  1.0000   71

  42   rms: 0.5716E-02   max: -.1158E+00   C at   43  1
       a =  7.000      CL =  1.1660
      Cm = -0.0743     CD =  0.01077   =>   CDf =  0.00579    CDp =  0.00498

 Side 1  free  transition at x/c =  0.2808   43
 Side 2 forced transition at x/c =  1.0000   71

  43   rms: 0.5716E-02   max: -.1158E+00   C at   43  1
       a =  7.000      CL =  1.1660
      Cm = -0.0743     CD =  0.01077   =>   CDf =  0.00579    CDp =  0.00498

 Side 1  free  transition at x/c =  0.2808   43
 Side 2 forced transition at x/c =  1.0000   71

  44   rms: 0.5716E-02   max: -.1158E+00   C at   43  1
       a =  7.000      CL =  1.1660
      Cm = -0.0743     CD =  0.01077   =>   CDf =  0.00579    CDp =  0.00498

 Side 1  free  transition at x/c =  0.2808   43
 Side 2 forced transition at x/c =  1.0000   71

  45   rms: 0.5716E-02   max: -.1158E+00   C at   43  1
       a =  7.000      CL =  1.1660
      Cm = -0.0743     CD =  0.01077   =>   CDf =  0.00579    CDp =  0.00498

 Side 1  free  transition at x/c =  0.2808   43
 Side 2 forced transition at x/c =  1.0000   71

  46   rms: 0.5716E-02   max: -.1158E+00   C at   43  1
       a =  7.000      CL =  1.1660
      Cm = -0.0743     CD =  0.01077   =>   CDf =  0.00579    CDp =  0.00498

 Side 1  free  transition at x/c =  0.2808   43
 Side 2 forced transition at x/c =  1.0000   71

  47   rms: 0.5716E-02   max: -.1158E+00   C at   43  1
       a =  7.000      CL =  1.1660
      Cm = -0.0743     CD =  0.01077   =>   CDf =  0.00579    CDp =  0.00498

 Side 1  free  transition at x/c =  0.2808   43
 Side 2 forced transition at x/c =  1.0000   71

  48   rms: 0.5716E-02   max: -.1158E+00   C at   43  1
       a =  7.000      CL =  1.1660
      Cm = -0.0743     CD =  0.01077   =>   CDf =  0.00579    CDp =  0.00498

 Side 1  free  transition at x/c =  0.2808   43
 Side 2 forced transition at x/c =  1.0000   71

  49   rms: 0.5716E-02   max: -.1158E+00   C at   43  1
       a =  7.000      CL =  1.1660
      Cm = -0.0743     CD =  0.01077   =>   CDf =  0.00579    CDp =  0.00498

 Side 1  free  transition at x/c =  0.2808   43
 Side 2 forced transition at x/c =  1.0000   71

  50   rms: 0.5716E-02   max: -.1158E+00   C at   43  1
       a =  7.000      CL =  1.1660
      Cm = -0.0743     CD =  0.01077   =>   CDf =  0.00579    CDp =  0.00498

 Side 1  free  transition at x/c =  0.2808   43
 Side 2 forced transition at x/c =  1.0000   71

  51   rms: 0.5716E-02   max: -.1158E+00   C at   43  1
       a =  7.000      CL =  1.1660
      Cm = -0.0743     CD =  0.01077   =>   CDf =  0.00579    CDp =  0.00498

 Side 1  free  transition at x/c =  0.2808   43
 Side 2 forced transition at x/c =  1.0000   71

  52   rms: 0.5716E-02   max: -.1158E+00   C at   43  1
       a =  7.000      CL =  1.1660
      Cm = -0.0743     CD =  0.01077   =>   CDf =  0.00579    CDp =  0.00498

 Side 1  free  transition at x/c =  0.2808   43
 Side 2 forced transition at x/c =  1.0000   71

  53   rms: 0.5716E-02   max: -.1158E+00   C at   43  1
       a =  7.000      CL =  1.1660
      Cm = -0.0743     CD =  0.01077   =>   CDf =  0.00579    CDp =  0.00498

 Side 1  free  transition at x/c =  0.2808   43
 Side 2 forced transition at x/c =  1.0000   71

  54   rms: 0.5716E-02   max: -.1158E+00   C at   43  1
       a =  7.000      CL =  1.1660
      Cm = -0.0743     CD =  0.01077   =>   CDf =  0.00579    CDp =  0.00498

 Side 1  free  transition at x/c =  0.2808   43
 Side 2 forced transition at x/c =  1.0000   71

  55   rms: 0.5716E-02   max: -.1158E+00   C at   43  1
       a =  7.000      CL =  1.1660
      Cm = -0.0743     CD =  0.01077   =>   CDf =  0.00579    CDp =  0.00498

 Side 1  free  transition at x/c =  0.2808   43
 Side 2 forced transition at x/c =  1.0000   71

  56   rms: 0.5716E-02   max: -.1158E+00   C at   43  1
       a =  7.000      CL =  1.1660
      Cm = -0.0743     CD =  0.01077   =>   CDf =  0.00579    CDp =  0.00498

 Side 1  free  transition at x/c =  0.2808   43
 Side 2 forced transition at x/c =  1.0000   71

  57   rms: 0.5715E-02   max: -.1158E+00   C at   43  1
       a =  7.000      CL =  1.1660
      Cm = -0.0743     CD =  0.01077   =>   CDf =  0.00579    CDp =  0.00498

 Side 1  free  transition at x/c =  0.2808   43
 Side 2 forced transition at x/c =  1.0000   71

  58   rms: 0.5716E-02   max: -.1158E+00   C at   43  1
       a =  7.000      CL =  1.1660
      Cm = -0.0743     CD =  0.01077   =>   CDf =  0.00579    CDp =  0.00498

 Side 1  free  transition at x/c =  0.2808   43
 Side 2 forced transition at x/c =  1.0000   71

  59   rms: 0.5716E-02   max: -.1158E+00   C at   43  1
       a =  7.000      CL =  1.1660
      Cm = -0.0743     CD =  0.01077   =>   CDf =  0.00579    CDp =  0.00498

 Side 1  free  transition at x/c =  0.2808   43
 Side 2 forced transition at x/c =  1.0000   71

  60   rms: 0.5716E-02   max: -.1158E+00   C at   43  1
       a =  7.000      CL =  1.1660
      Cm = -0.0743     CD =  0.01077   =>   CDf =  0.00579    CDp =  0.00498

 Side 1  free  transition at x/c =  0.2808   43
 Side 2 forced transition at x/c =  1.0000   71

  61   rms: 0.5716E-02   max: -.1158E+00   C at   43  1
       a =  7.000      CL =  1.1660
      Cm = -0.0743     CD =  0.01077   =>   CDf =  0.00579    CDp =  0.00498

 Side 1  free  transition at x/c =  0.2808   43
 Side 2 forced transition at x/c =  1.0000   71

  62   rms: 0.5716E-02   max: -.1158E+00   C at   43  1
       a =  7.000      CL =  1.1660
      Cm = -0.0743     CD =  0.01077   =>   CDf =  0.00579    CDp =  0.00498

 Side 1  free  transition at x/c =  0.2808   43
 Side 2 forced transition at x/c =  1.0000   71

  63   rms: 0.5716E-02   max: -.1158E+00   C at   43  1
       a =  7.000      CL =  1.1660
      Cm = -0.0743     CD =  0.01077   =>   CDf =  0.00579    CDp =  0.00498

 Side 1  free  transition at x/c =  0.2808   43
 Side 2 forced transition at x/c =  1.0000   71

  64   rms: 0.5716E-02   max: -.1158E+00   C at   43  1
       a =  7.000      CL =  1.1660
      Cm = -0.0743     CD =  0.01077   =>   CDf =  0.00579    CDp =  0.00498

 Side 1  free  transition at x/c =  0.2808   43
 Side 2 forced transition at x/c =  1.0000   71

  65   rms: 0.5716E-02   max: -.1158E+00   C at   43  1
       a =  7.000      CL =  1.1660
      Cm = -0.0743     CD =  0.01077   =>   CDf =  0.00579    CDp =  0.00498

 Side 1  free  transition at x/c =  0.2808   43
 Side 2 forced transition at x/c =  1.0000   71

  66   rms: 0.5716E-02   max: -.1158E+00   C at   43  1
       a =  7.000      CL =  1.1660
      Cm = -0.0743     CD =  0.01077   =>   CDf =  0.00579    CDp =  0.00498

 Side 1  free  transition at x/c =  0.2808   43
 Side 2 forced transition at x/c =  1.0000   71

  67   rms: 0.5716E-02   max: -.1158E+00   C at   43  1
       a =  7.000      CL =  1.1660
      Cm = -0.0743     CD =  0.01077   =>   CDf =  0.00579    CDp =  0.00498

 Side 1  free  transition at x/c =  0.2808   43
 Side 2 forced transition at x/c =  1.0000   71

  68   rms: 0.5716E-02   max: -.1158E+00   C at   43  1
       a =  7.000      CL =  1.1660
      Cm = -0.0743     CD =  0.01077   =>   CDf =  0.00579    CDp =  0.00498

 Side 1  free  transition at x/c =  0.2808   43
 Side 2 forced transition at x/c =  1.0000   71

  69   rms: 0.5716E-02   max: -.1158E+00   C at   43  1
       a =  7.000      CL =  1.1660
      Cm = -0.0743     CD =  0.01077   =>   CDf =  0.00579    CDp =  0.00498

 Side 1  free  transition at x/c =  0.2808   43
 Side 2 forced transition at x/c =  1.0000   71

  70   rms: 0.5716E-02   max: -.1158E+00   C at   43  1
       a =  7.000      CL =  1.1660
      Cm = -0.0743     CD =  0.01077   =>   CDf =  0.00579    CDp =  0.00498

 Side 1  free  transition at x/c =  0.2808   43
 Side 2 forced transition at x/c =  1.0000   71

  71   rms: 0.5716E-02   max: -.1158E+00   C at   43  1
       a =  7.000      CL =  1.1660
      Cm = -0.0743     CD =  0.01077   =>   CDf =  0.00579    CDp =  0.00498

 Side 1  free  transition at x/c =  0.2808   43
 Side 2 forced transition at x/c =  1.0000   71

  72   rms: 0.5716E-02   max: -.1158E+00   C at   43  1
       a =  7.000      CL =  1.1660
      Cm = -0.0743     CD =  0.01077   =>   CDf =  0.00579    CDp =  0.00498

 Side 1  free  transition at x/c =  0.2808   43
 Side 2 forced transition at x/c =  1.0000   71

  73   rms: 0.5716E-02   max: -.1158E+00   C at   43  1
       a =  7.000      CL =  1.1660
      Cm = -0.0743     CD =  0.01077   =>   CDf =  0.00579    CDp =  0.00498

 Side 1  free  transition at x/c =  0.2808   43
 Side 2 forced transition at x/c =  1.0000   71

  74   rms: 0.5716E-02   max: -.1158E+00   C at   43  1
       a =  7.000      CL =  1.1660
      Cm = -0.0743     CD =  0.01077   =>   CDf =  0.00579    CDp =  0.00498

 Side 1  free  transition at x/c =  0.2808   43
 Side 2 forced transition at x/c =  1.0000   71

  75   rms: 0.5716E-02   max: -.1158E+00   C at   43  1
       a =  7.000      CL =  1.1660
      Cm = -0.0743     CD =  0.01077   =>   CDf =  0.00579    CDp =  0.00498

 Side 1  free  transition at x/c =  0.2808   43
 Side 2 forced transition at x/c =  1.0000   71

  76   rms: 0.5716E-02   max: -.1158E+00   C at   43  1
       a =  7.000      CL =  1.1660
      Cm = -0.0743     CD =  0.01077   =>   CDf =  0.00579    CDp =  0.00498

 Side 1  free  transition at x/c =  0.2808   43
 Side 2 forced transition at x/c =  1.0000   71

  77   rms: 0.5716E-02   max: -.1158E+00   C at   43  1
       a =  7.000      CL =  1.1660
      Cm = -0.0743     CD =  0.01077   =>   CDf =  0.00579    CDp =  0.00498

 Side 1  free  transition at x/c =  0.2808   43
 Side 2 forced transition at x/c =  1.0000   71

  78   rms: 0.5716E-02   max: -.1158E+00   C at   43  1
       a =  7.000      CL =  1.1660
      Cm = -0.0743     CD =  0.01077   =>   CDf =  0.00579    CDp =  0.00498

 Side 1  free  transition at x/c =  0.2808   43
 Side 2 forced transition at x/c =  1.0000   71

  79   rms: 0.5716E-02   max: -.1158E+00   C at   43  1
       a =  7.000      CL =  1.1660
      Cm = -0.0743     CD =  0.01077   =>   CDf =  0.00579    CDp =  0.00498

 Side 1  free  transition at x/c =  0.2808   43
 Side 2 forced transition at x/c =  1.0000   71

  80   rms: 0.5716E-02   max: -.1158E+00   C at   43  1
       a =  7.000      CL =  1.1660
      Cm = -0.0743     CD =  0.01077   =>   CDf =  0.00579    CDp =  0.00498

 Side 1  free  transition at x/c =  0.2808   43
 Side 2 forced transition at x/c =  1.0000   71

  81   rms: 0.5716E-02   max: -.1158E+00   C at   43  1
       a =  7.000      CL =  1.1660
      Cm = -0.0743     CD =  0.01077   =>   CDf =  0.00579    CDp =  0.00498

 Side 1  free  transition at x/c =  0.2808   43
 Side 2 forced transition at x/c =  1.0000   71

  82   rms: 0.5715E-02   max: -.1158E+00   C at   43  1
       a =  7.000      CL =  1.1660
      Cm = -0.0743     CD =  0.01077   =>   CDf =  0.00579    CDp =  0.00498

 Side 1  free  transition at x/c =  0.2808   43
 Side 2 forced transition at x/c =  1.0000   71

  83   rms: 0.5716E-02   max: -.1158E+00   C at   43  1
       a =  7.000      CL =  1.1660
      Cm = -0.0743     CD =  0.01077   =>   CDf =  0.00579    CDp =  0.00498

 Side 1  free  transition at x/c =  0.2808   43
 Side 2 forced transition at x/c =  1.0000   71

  84   rms: 0.5716E-02   max: -.1158E+00   C at   43  1
       a =  7.000      CL =  1.1660
      Cm = -0.0743     CD =  0.01077   =>   CDf =  0.00579    CDp =  0.00498

 Side 1  free  transition at x/c =  0.2808   43
 Side 2 forced transition at x/c =  1.0000   71

  85   rms: 0.5716E-02   max: -.1158E+00   C at   43  1
       a =  7.000      CL =  1.1660
      Cm = -0.0743     CD =  0.01077   =>   CDf =  0.00579    CDp =  0.00498

 Side 1  free  transition at x/c =  0.2808   43
 Side 2 forced transition at x/c =  1.0000   71

  86   rms: 0.5716E-02   max: -.1158E+00   C at   43  1
       a =  7.000      CL =  1.1660
      Cm = -0.0743     CD =  0.01077   =>   CDf =  0.00579    CDp =  0.00498

 Side 1  free  transition at x/c =  0.2808   43
 Side 2 forced transition at x/c =  1.0000   71

  87   rms: 0.5716E-02   max: -.1158E+00   C at   43  1
       a =  7.000      CL =  1.1660
      Cm = -0.0743     CD =  0.01077   =>   CDf =  0.00579    CDp =  0.00498

 Side 1  free  transition at x/c =  0.2808   43
 Side 2 forced transition at x/c =  1.0000   71

  88   rms: 0.5715E-02   max: -.1158E+00   C at   43  1
       a =  7.000      CL =  1.1660
      Cm = -0.0743     CD =  0.01077   =>   CDf =  0.00579    CDp =  0.00498

 Side 1  free  transition at x/c =  0.2808   43
 Side 2 forced transition at x/c =  1.0000   71

  89   rms: 0.5716E-02   max: -.1158E+00   C at   43  1
       a =  7.000      CL =  1.1660
      Cm = -0.0743     CD =  0.01077   =>   CDf =  0.00579    CDp =  0.00498

 Side 1  free  transition at x/c =  0.2808   43
 Side 2 forced transition at x/c =  1.0000   71

  90   rms: 0.5716E-02   max: -.1158E+00   C at   43  1
       a =  7.000      CL =  1.1660
      Cm = -0.0743     CD =  0.01077   =>   CDf =  0.00579    CDp =  0.00498

 Side 1  free  transition at x/c =  0.2808   43
 Side 2 forced transition at x/c =  1.0000   71

  91   rms: 0.5716E-02   max: -.1158E+00   C at   43  1
       a =  7.000      CL =  1.1660
      Cm = -0.0743     CD =  0.01077   =>   CDf =  0.00579    CDp =  0.00498

 Side 1  free  transition at x/c =  0.2808   43
 Side 2 forced transition at x/c =  1.0000   71

  92   rms: 0.5716E-02   max: -.1158E+00   C at   43  1
       a =  7.000      CL =  1.1660
      Cm = -0.0743     CD =  0.01077   =>   CDf =  0.00579    CDp =  0.00498

 Side 1  free  transition at x/c =  0.2808   43
 Side 2 forced transition at x/c =  1.0000   71

  93   rms: 0.5716E-02   max: -.1158E+00   C at   43  1
       a =  7.000      CL =  1.1660
      Cm = -0.0743     CD =  0.01077   =>   CDf =  0.00579    CDp =  0.00498

 Side 1  free  transition at x/c =  0.2808   43
 Side 2 forced transition at x/c =  1.0000   71

  94   rms: 0.5716E-02   max: -.1158E+00   C at   43  1
       a =  7.000      CL =  1.1660
      Cm = -0.0743     CD =  0.01077   =>   CDf =  0.00579    CDp =  0.00498

 Side 1  free  transition at x/c =  0.2808   43
 Side 2 forced transition at x/c =  1.0000   71

  95   rms: 0.5716E-02   max: -.1158E+00   C at   43  1
       a =  7.000      CL =  1.1660
      Cm = -0.0743     CD =  0.01077   =>   CDf =  0.00579    CDp =  0.00498

 Side 1  free  transition at x/c =  0.2808   43
 Side 2 forced transition at x/c =  1.0000   71

  96   rms: 0.5716E-02   max: -.1158E+00   C at   43  1
       a =  7.000      CL =  1.1660
      Cm = -0.0743     CD =  0.01077   =>   CDf =  0.00579    CDp =  0.00498

 Side 1  free  transition at x/c =  0.2808   43
 Side 2 forced transition at x/c =  1.0000   71

  97   rms: 0.5716E-02   max: -.1158E+00   C at   43  1
       a =  7.000      CL =  1.1660
      Cm = -0.0743     CD =  0.01077   =>   CDf =  0.00579    CDp =  0.00498

 Side 1  free  transition at x/c =  0.2808   43
 Side 2 forced transition at x/c =  1.0000   71

  98   rms: 0.5716E-02   max: -.1158E+00   C at   43  1
       a =  7.000      CL =  1.1660
      Cm = -0.0743     CD =  0.01077   =>   CDf =  0.00579    CDp =  0.00498

 Side 1  free  transition at x/c =  0.2808   43
 Side 2 forced transition at x/c =  1.0000   71

  99   rms: 0.5716E-02   max: -.1158E+00   C at   43  1
       a =  7.000      CL =  1.1660
      Cm = -0.0743     CD =  0.01077   =>   CDf =  0.00579    CDp =  0.00498

 Side 1  free  transition at x/c =  0.2808   43
 Side 2 forced transition at x/c =  1.0000   71

 100   rms: 0.5716E-02   max: -.1158E+00   C at   43  1
       a =  7.000      CL =  1.1660
      Cm = -0.0743     CD =  0.01077   =>   CDf =  0.00579    CDp =  0.00498

 Side 1  free  transition at x/c =  0.2808   43
[...]
 Side 2 forced transition at x/c =  1.0000   66

   3   rms: 0.3132E-03   max: 0.2101E-02   D at   82  1
       a = 12.750      CL =  1.5350
      Cm = -0.0447     CD =  0.02756   =>   CDf =  0.00624    CDp =  0.02132

 Side 1  free  transition at x/c =  0.0371   30
 Side 2 forced transition at x/c =  1.0000   66

   4   rms: 0.8389E-05   max: -.7242E-04   C at   66  2
       a = 12.750      CL =  1.5350
      Cm = -0.0447     CD =  0.02756   =>   CDf =  0.00624    CDp =  0.02132
 plradd ia,ip,cpol           40           0  1.08076434E-04

 Point added to stored polar  1
 Point written to save file  sd7034_Re600k.base.pol                          
 Dump file unspecified or not available
 Calculating wake trajectory ...
 Calculating source influence matrix ...

 Solving BL system ...

 Side 1  free  transition at x/c =  0.0371   30
 Side 2 forced transition at x/c =  1.0000   66

   1   rms: 0.4789E-01   max: 0.1577E+00   D at   79  1
       a = 13.000      CL =  1.5328
      Cm = -0.0428     CD =  0.02996   =>   CDf =  0.00624    CDp =  0.02372

 Side 1  free  transition at x/c =  0.0346   29
 Side 2 forced transition at x/c =  1.0000   66

   2   rms: 0.3271E-01   max: -.3567E+00   D at   29  1
       a = 13.000      CL =  1.5440
      Cm = -0.0435     CD =  0.02868   =>   CDf =  0.00611    CDp =  0.02257

 Side 1  free  transition at x/c =  0.0355   29
 Side 2 forced transition at x/c =  1.0000   66

   3   rms: 0.3494E-02   max: 0.4437E-01   C at   29  1
       a = 13.000      CL =  1.5443
      Cm = -0.0436     CD =  0.02883   =>   CDf =  0.00615    CDp =  0.02268

 Side 1  free  transition at x/c =  0.0352   29
 Side 2 forced transition at x/c =  1.0000   66

   4   rms: 0.1530E-03   max: 0.6034E-03   D at   81  1
       a = 13.000      CL =  1.5442
      Cm = -0.0435     CD =  0.02884   =>   CDf =  0.00615    CDp =  0.02269

 Side 1  free  transition at x/c =  0.0352   29
 Side 2 forced transition at x/c =  1.0000   66

   5   rms: 0.4004E-05   max: -.4649E-04   C at   66  2
       a = 13.000      CL =  1.5442
      Cm = -0.0435     CD =  0.02884   =>   CDf =  0.00615    CDp =  0.02269
 plradd ia,ip,cpol           41           0  1.08076434E-04

 Point added to stored polar  1
 Point written to save file  sd7034_Re600k.base.pol                          
 Dump file unspecified or not available
 Calculating wake trajectory ...
 Calculating source influence matrix ...

 Solving BL system ...

 Side 1  free  transition at x/c =  0.0352   29
 Side 2 forced transition at x/c =  1.0000   66

   1   rms: 0.3629E-01   max: 0.1418E+00   T at   29  1
       a = 13.250      CL =  1.5534
      Cm = -0.0425     CD =  0.03029   =>   CDf =  0.00615    CDp =  0.02414

 Side 1  free  transition at x/c =  0.0325   29
 Side 2 forced transition at x/c =  1.0000   66

   2   rms: 0.5325E-02   max: -.2961E-01   T at   29  1
       a = 13.250      CL =  1.5499
      Cm = -0.0423     CD =  0.03047   =>   CDf =  0.00611    CDp =  0.02436

 Side 1  free  transition at x/c =  0.0328   29
 Side 2 forced transition at x/c =  1.0000   66

   3   rms: 0.1202E-03   max: 0.2544E-02   D at   79  1
       a = 13.250      CL =  1.5499
      Cm = -0.0423     CD =  0.03046   =>   CDf =  0.00610    CDp =  0.02436

 Side 1  free  transition at x/c =  0.0328   29
 Side 2 forced transition at x/c =  1.0000   66

   4   rms: 0.1752E-05   max: -.2011E-04   C at   66  2
       a = 13.250      CL =  1.5499
      Cm = -0.0423     CD =  0.03046   =>   CDf =  0.00610    CDp =  0.02436
 plradd ia,ip,cpol           42           0  1.08076434E-04

 Point added to stored polar  1
 Point written to save file  sd7034_Re600k.base.pol                          
 Dump file unspecified or not available
 Calculating wake trajectory ...
 Calculating source influence matrix ...

 Solving BL system ...

 Side 1  free  transition at x/c =  0.0328   29
 Side 2 forced transition at x/c =  1.0000   66

   1   rms: 0.3923E-01   max: -.1890E+00   D at   29  1
       a = 13.500      CL =  1.5548
      Cm = -0.0413     CD =  0.03240   =>   CDf =  0.00570    CDp =  0.02669

 Side 1  free  transition at x/c =  0.0307   30
 Side 2 forced transition at x/c =  1.0000   65
 idif Ue xi dudx           1  0.10251269      7.21478462E-03   14.208696    
 Uenew xinew           2  1.94787994E-04  1.37090683E-05

   2   rms: 0.1144E-01   max: -.1395E+00   T at    2  1
       a = 13.500      CL =  1.5495
      Cm = -0.0410     CD =  0.03273   =>   CDf =  0.00643    CDp =  0.02631

 Side 1  free  transition at x/c =  0.0305   29
 Side 2 forced transition at x/c =  1.0000   66

   3   rms: 0.1009E-02   max: -.1498E-01   D at    2  2
       a = 13.500      CL =  1.5493
      Cm = -0.0410     CD =  0.03270   =>   CDf =  0.00606    CDp =  0.02664

 Side 1  free  transition at x/c =  0.0305   29
 Side 2 forced transition at x/c =  1.0000   66

   4   rms: 0.2978E-03   max: 0.3411E-02   D at    4  2
       a = 13.500      CL =  1.5493
      Cm = -0.0410     CD =  0.03270   =>   CDf =  0.00606    CDp =  0.02664

 Side 1  free  transition at x/c =  0.0305   29
 Side 2 forced transition at x/c =  1.0000   66

   5   rms: 0.4650E-05   max: -.5227E-04   D at    4  2
       a = 13.500      CL =  1.5493
      Cm = -0.0410     CD =  0.03270   =>   CDf =  0.00606    CDp =  0.02664
 plradd ia,ip,cpol           43           0  1.08076434E-04

 Point added to stored polar  1
 Point written to save file  sd7034_Re600k.base.pol                          
 Dump file unspecified or not available
 Calculating wake trajectory ...
 Calculating source influence matrix ...

 Solving BL system ...

 Side 1  free  transition at x/c =  0.0305   29
 Side 2 forced transition at x/c =  1.0000   66

   1   rms: 0.4720E-01   max: 0.1635E+00   D at   75  1
       a = 13.750      CL =  1.5459
      Cm = -0.0398     CD =  0.03564   =>   CDf =  0.00565    CDp =  0.02999

 Side 1  free  transition at x/c =  0.0289   29
 Side 2 forced transition at x/c =  1.0000   65

   2   rms: 0.2199E-01   max: -.2276E+00   D at   29  1
       a = 13.750      CL =  1.5532
      Cm = -0.0400     CD =  0.03451   =>   CDf =  0.00592    CDp =  0.02859

 Side 1  free  transition at x/c =  0.0293   29
 Side 2 forced transition at x/c =  1.0000   65

   3   rms: 0.1805E-02   max: 0.1355E-01   T at   29  1
       a = 13.750      CL =  1.5542
      Cm = -0.0401     CD =  0.03456   =>   CDf =  0.00595    CDp =  0.02860

 Side 1  free  transition at x/c =  0.0292   29
 Side 2 forced transition at x/c =  1.0000   65

   4   rms: 0.2716E-04   max: 0.2185E-03   D at   77  1
       a = 13.750      CL =  1.5542
      Cm = -0.0401     CD =  0.03456   =>   CDf =  0.00595    CDp =  0.02861
 plradd ia,ip,cpol           44           0  1.08076434E-04

 Point added to stored polar  1
 Point written to save file  sd7034_Re600k.base.pol                          
 Dump file unspecified or not available
 Calculating wake trajectory ...
 Calculating source influence matrix ...

 Solving BL system ...

 Side 1  free  transition at x/c =  0.0292   29
 Side 2 forced transition at x/c =  1.0000   65

   1   rms: 0.3541E-01   max: 0.1464E+00   T at   29  1
       a = 14.000      CL =  1.5623
      Cm = -0.0395     CD =  0.03640   =>   CDf =  0.00596    CDp =  0.03044

 Side 1  free  transition at x/c =  0.0274   29
 Side 2 forced transition at x/c =  1.0000   65

   2   rms: 0.4908E-02   max: 0.2468E-01   D at   76  1
       a = 14.000      CL =  1.5590
      Cm = -0.0394     CD =  0.03654   =>   CDf =  0.00587    CDp =  0.03066

 Side 1  free  transition at x/c =  0.0275   29
 Side 2 forced transition at x/c =  1.0000   65

   3   rms: 0.2476E-03   max: 0.3181E-02   D at   76  2
       a = 14.000      CL =  1.5589
      Cm = -0.0394     CD =  0.03652   =>   CDf =  0.00587    CDp =  0.03065

 Side 1  free  transition at x/c =  0.0276   29
 Side 2 forced transition at x/c =  1.0000   65

   4   rms: 0.8040E-05   max: 0.8987E-04   D at   76  2
       a = 14.000      CL =  1.5589
      Cm = -0.0394     CD =  0.03652   =>   CDf =  0.00587    CDp =  0.03065
 plradd ia,ip,cpol           45           0  1.08076434E-04

 Point added to stored polar  1
 Point written to save file  sd7034_Re600k.base.pol                          
 Dump file unspecified or not available
 Calculating wake trajectory ...
 Calculating source influence matrix ...

 Solving BL system ...

 Side 1  free  transition at x/c =  0.0276   29
 Side 2 forced transition at x/c =  1.0000   65

   1   rms: 0.3659E-01   max: 0.1182E+00   T at   29  1   RLX: 0.961
       a = 14.250      CL =  1.5633
      Cm = -0.0388     CD =  0.03873   =>   CDf =  0.00587    CDp =  0.03286

 Side 1  free  transition at x/c =  0.0260   29
 Side 2 forced transition at x/c =  1.0000   65

   2   rms: 0.5589E-02   max: 0.3504E-01   D at   75  1
       a = 14.250      CL =  1.5603
      Cm = -0.0387     CD =  0.03888   =>   CDf =  0.00582    CDp =  0.03307

 Side 1  free  transition at x/c =  0.0261   29
 Side 2 forced transition at x/c =  1.0000   65

   3   rms: 0.1833E-03   max: 0.1702E-02   D at   75  1
       a = 14.250      CL =  1.5602
      Cm = -0.0387     CD =  0.03886   =>   CDf =  0.00581    CDp =  0.03305

 Side 1  free  transition at x/c =  0.0261   29
 Side 2 forced transition at x/c =  1.0000   65

   4   rms: 0.3352E-05   max: -.2783E-04   C at   65  2
       a = 14.250      CL =  1.5602
      Cm = -0.0387     CD =  0.03886   =>   CDf =  0.00581    CDp =  0.03305
 plradd ia,ip,cpol           46           0  1.08076434E-04

 Point added to stored polar  1
 Point written to save file  sd7034_Re600k.base.pol                          
 Dump file unspecified or not available
 Calculating wake trajectory ...
 Calculating source influence matrix ...

 Solving BL system ...

 Side 1  free  transition at x/c =  0.0261   29
 Side 2 forced transition at x/c =  1.0000   65

   1   rms: 0.3876E-01   max: 0.1315E+00   D at   73  1   RLX: 0.909
       a = 14.500      CL =  1.5616
      Cm = -0.0384     CD =  0.04140   =>   CDf =  0.00581    CDp =  0.03559

 Side 1  free  transition at x/c =  0.0250   29
 Side 2 forced transition at x/c =  1.0000   65

   2   rms: 0.9982E-02   max: 0.6231E-01   D at   74  1
       a = 14.500      CL =  1.5564
      Cm = -0.0382     CD =  0.04198   =>   CDf =  0.00575    CDp =  0.03623

 Side 1  free  transition at x/c =  0.0249   29
 Side 2 forced transition at x/c =  1.0000   65

   3   rms: 0.7316E-03   max: 0.7227E-02   D at   73  1
       a = 14.500      CL =  1.5559
      Cm = -0.0382     CD =  0.04191   =>   CDf =  0.00573    CDp =  0.03617

 Side 1  free  transition at x/c =  0.0249   29
 Side 2 forced transition at x/c =  1.0000   65

   4   rms: 0.2167E-04   max: 0.1995E-03   D at   77  2
       a = 14.500      CL =  1.5559
      Cm = -0.0382     CD =  0.04190   =>   CDf =  0.00573    CDp =  0.03617
 plradd ia,ip,cpol           47           0  1.08076434E-04

 Point added to stored polar  1
 Point written to save file  sd7034_Re600k.base.pol                          
 Dump file unspecified or not available
 Calculating wake trajectory ...
 Calculating source influence matrix ...

 Solving BL system ...

 Side 1  free  transition at x/c =  0.0249   29
 Side 2 forced transition at x/c =  1.0000   65

   1   rms: 0.4784E-01   max: 0.1860E+00   D at   71  1   RLX: 0.845
       a = 14.750      CL =  1.5497
      Cm = -0.0381     CD =  0.04540   =>   CDf =  0.00574    CDp =  0.03966

 Side 1  free  transition at x/c =  0.0239   28
 Side 2 forced transition at x/c =  1.0000   65

   2   rms: 0.1148E-01   max: -.1118E+00   D at   28  1
       a = 14.750      CL =  1.5530
      Cm = -0.0379     CD =  0.04491   =>   CDf =  0.00563    CDp =  0.03928

 Side 1  free  transition at x/c =  0.0239   28
 Side 2 forced transition at x/c =  1.0000   65

   3   rms: 0.6374E-03   max: 0.4757E-02   D at   28  1
       a = 14.750      CL =  1.5533
      Cm = -0.0379     CD =  0.04489   =>   CDf =  0.00563    CDp =  0.03926

 Side 1  free  transition at x/c =  0.0238   28
 Side 2 forced transition at x/c =  1.0000   65

   4   rms: 0.2773E-04   max: -.2173E-03   D at   77  2
       a = 14.750      CL =  1.5533
      Cm = -0.0379     CD =  0.04490   =>   CDf =  0.00563    CDp =  0.03927
 plradd ia,ip,cpol           48           0  1.08076434E-04

 Point added to stored polar  1
 Point written to save file  sd7034_Re600k.base.pol                          
 Dump file unspecified or not available
 Calculating wake trajectory ...
 Calculating source influence matrix ...

 Solving BL system ...

 Side 1  free  transition at x/c =  0.0238   28
 Side 2 forced transition at x/c =  1.0000   65

   1   rms: 0.3381E-01   max: -.1246E+00   C at   28  1   RLX: 0.821
       a = 15.000      CL =  1.5585
      Cm = -0.0379     CD =  0.04691   =>   CDf =  0.00563    CDp =  0.04128

 Side 1  free  transition at x/c =  0.0231   28
 Side 2 forced transition at x/c =  1.0000   65

   2   rms: 0.8762E-02   max: 0.4998E-01   D at   71  1
       a = 15.000      CL =  1.5560
      Cm = -0.0379     CD =  0.04754   =>   CDf =  0.00554    CDp =  0.04200

 Side 1  free  transition at x/c =  0.0230   28
 Side 2 forced transition at x/c =  1.0000   65

   3   rms: 0.9830E-03   max: 0.5580E-02   D at   78  2
       a = 15.000      CL =  1.5553
      Cm = -0.0378     CD =  0.04748   =>   CDf =  0.00552    CDp =  0.04196

 Side 1  free  transition at x/c =  0.0230   28
 Side 2 forced transition at x/c =  1.0000   65

   4   rms: 0.5737E-04   max: 0.3937E-03   D at   78  2
       a = 15.000      CL =  1.5553
      Cm = -0.0378     CD =  0.04747   =>   CDf =  0.00552    CDp =  0.04196
 plradd ia,ip,cpol           49           0  1.08076434E-04

 Point added to stored polar  1
 Point written to save file  sd7034_Re600k.base.pol                          
 Dump file unspecified or not available
 Calculating wake trajectory ...
 Calculating source influence matrix ...

 Solving BL system ...

 Side 1  free  transition at x/c =  0.0230   28
 Side 2 forced transition at x/c =  1.0000   65

   1   rms: 0.3474E-01   max: 0.1181E+00   T at   28  1   RLX: 0.784
       a = 15.250      CL =  1.5583
      Cm = -0.0380     CD =  0.04977   =>   CDf =  0.00552    CDp =  0.04425

 Side 1  free  transition at x/c =  0.0221   28
 Side 2 forced transition at x/c =  1.0000   65

   2   rms: 0.9138E-02   max: 0.4732E-01   D at   70  1
       a = 15.250      CL =  1.5564
      Cm = -0.0380     CD =  0.05043   =>   CDf =  0.00545    CDp =  0.04498

 Side 1  free  transition at x/c =  0.0220   28
 Side 2 forced transition at x/c =  1.0000   65

   3   rms: 0.1205E-02   max: 0.7685E-02   D at   69  1
       a = 15.250      CL =  1.5556
      Cm = -0.0379     CD =  0.05038   =>   CDf =  0.00543    CDp =  0.04495

 Side 1  free  transition at x/c =  0.0220   28
 Side 2 forced transition at x/c =  1.0000   65

   4   rms: 0.9569E-04   max: 0.7684E-03   D at   78  2
       a = 15.250      CL =  1.5555
      Cm = -0.0379     CD =  0.05037   =>   CDf =  0.00542    CDp =  0.04495
 plradd ia,ip,cpol           50           0  1.08076434E-04

 Point added to stored polar  1
 Point written to save file  sd7034_Re600k.base.pol                          
 Dump file unspecified or not available
 Calculating wake trajectory ...
 Calculating source influence matrix ...

 Solving BL system ...

 Side 1  free  transition at x/c =  0.0220   28
 Side 2 forced transition at x/c =  1.0000   65

   1   rms: 0.3605E-01   max: 0.1265E+00   D at   67  1   RLX: 0.749
       a = 15.500      CL =  1.5570
      Cm = -0.0382     CD =  0.05288   =>   CDf =  0.00543    CDp =  0.04745

 Side 1  free  transition at x/c =  0.0212   28
 Side 2 forced transition at x/c =  1.0000   65

   2   rms: 0.1103E-01   max: 0.5456E-01   D at   68  1
       a = 15.500      CL =  1.5541
      Cm = -0.0383     CD =  0.05378   =>   CDf =  0.00537    CDp =  0.04841

 Side 1  free  transition at x/c =  0.0211   28
 Side 2 forced transition at x/c =  1.0000   65

   3   rms: 0.1613E-02   max: 0.9452E-02   D at   68  1
       a = 15.500      CL =  1.5531
      Cm = -0.0383     CD =  0.05371   =>   CDf =  0.00535    CDp =  0.04836

 Side 1  free  transition at x/c =  0.0211   28
 Side 2 forced transition at x/c =  1.0000   65

   4   rms: 0.1023E-03   max: 0.6627E-03   D at   78  2
       a = 15.500      CL =  1.5531
      Cm = -0.0383     CD =  0.05370   =>   CDf =  0.00534    CDp =  0.04835

 Side 1  free  transition at x/c =  0.0211   28
 Side 2 forced transition at x/c =  1.0000   65

   5   rms: 0.3282E-05   max: -.4054E-04   C at   65  2
       a = 15.500      CL =  1.5531
      Cm = -0.0383     CD =  0.05370   =>   CDf =  0.00534    CDp =  0.04835
 plradd ia,ip,cpol           51           0  1.08076434E-04

 Point added to stored polar  1
 Point written to save file  sd7034_Re600k.base.pol                          
 Dump file unspecified or not available
 Calculating wake trajectory ...
 Calculating source influence matrix ...

 Solving BL system ...

 Side 1  free  transition at x/c =  0.0211   28
 Side 2 forced transition at x/c =  1.0000   65

   1   rms: 0.3687E-01   max: 0.1392E+00   D at   66  1   RLX: 0.714
       a = 15.750      CL =  1.5528
      Cm = -0.0387     CD =  0.05644   =>   CDf =  0.00535    CDp =  0.05110

 Side 1  free  transition at x/c =  0.0205   28
 Side 2 forced transition at x/c =  1.0000   65

   2   rms: 0.1446E-01   max: 0.7650E-01   D at   67  1
       a = 15.750      CL =  1.5484
      Cm = -0.0390     CD =  0.05778   =>   CDf =  0.00530    CDp =  0.05248

 Side 1  free  transition at x/c =  0.0203   28
 Side 2 forced transition at x/c =  1.0000   65

   3   rms: 0.1775E-02   max: 0.9633E-02   D at   79  2
       a = 15.750      CL =  1.5473
      Cm = -0.0389     CD =  0.05763   =>   CDf =  0.00527    CDp =  0.05236

 Side 1  free  transition at x/c =  0.0203   28
 Side 2 forced transition at x/c =  1.0000   65

   4   rms: 0.9644E-04   max: 0.7392E-03   D at   79  2
       a = 15.750      CL =  1.5472
      Cm = -0.0389     CD =  0.05761   =>   CDf =  0.00526    CDp =  0.05235
 plradd ia,ip,cpol           52           0  1.08076434E-04

 Point added to stored polar  1
 Point written to save file  sd7034_Re600k.base.pol                          
 Dump file unspecified or not available
 Calculating wake trajectory ...
 Calculating source influence matrix ...

 Solving BL system ...

 Side 1  free  transition at x/c =  0.0203   28
 Side 2 forced transition at x/c =  1.0000   65

   1   rms: 0.4231E-01   max: 0.1774E+00   D at   65  1   RLX: 0.676
       a = 16.000      CL =  1.5429
      Cm = -0.0397     CD =  0.06101   =>   CDf =  0.00527    CDp =  0.05574

 Side 1  free  transition at x/c =  0.0198   28
 Side 2 forced transition at x/c =  1.0000   65

   2   rms: 0.1865E-01   max: 0.9206E-01   D at   65  1
       a = 16.000      CL =  1.5362
      Cm = -0.0401     CD =  0.06287   =>   CDf =  0.00520    CDp =  0.05766

 Side 1  free  transition at x/c =  0.0196   28
 Side 2 forced transition at x/c =  1.0000   65

   3   rms: 0.2496E-02   max: 0.1524E-01   D at   79  2
       a = 16.000      CL =  1.5348
      Cm = -0.0400     CD =  0.06263   =>   CDf =  0.00516    CDp =  0.05747

 Side 1  free  transition at x/c =  0.0197   28
 Side 2 forced transition at x/c =  1.0000   65

   4   rms: 0.1353E-03   max: 0.1977E-02   D at   79  2
       a = 16.000      CL =  1.5348
      Cm = -0.0400     CD =  0.06260   =>   CDf =  0.00516    CDp =  0.05744

 Side 1  free  transition at x/c =  0.0197   28
 Side 2 forced transition at x/c =  1.0000   65

   5   rms: 0.4946E-05   max: -.1997E-04   D at   81  2
       a = 16.000      CL =  1.5348
      Cm = -0.0400     CD =  0.06260   =>   CDf =  0.00516    CDp =  0.05744
 plradd ia,ip,cpol           53           0  1.08076434E-04

 Point added to stored polar  1
 Point written to save file  sd7034_Re600k.base.pol                          
 Dump file unspecified or not available

.OPERva   c>  
 Polar accumulation disabled

.OPERv   c>  
 XFOIL   c>  
 XFOIL   c>  