
 ===================================================
  XFOIL Version 6.99
  Copyright (C) 2000   Mark Drela, Harold Youngren

  This software comes with ABSOLUTELY NO WARRANTY,
    subject to the GNU General Public License.

  Caveat computor
 ===================================================

 File  xfoil.def  not found

   QUIT    Exit program

  .OPER    Direct operating point(s)
  .MDES    Complex mapping design routine
  .QDES    Surface speed design routine
  .GDES    Geometry design routine

   SAVE f  Write airfoil to labeled coordinate file
   PSAV f  Write airfoil to plain coordinate file
   ISAV f  Write airfoil to ISES coordinate file
   MSAV f  Write airfoil to MSES coordinate file
   REVE    Reverse written-airfoil node ordering

   LOAD f  Read buffer airfoil from coordinate file
   NACA i  Set NACA 4,5-digit airfoil and buffer airfoil
   INTE    Set buffer airfoil by interpolating two airfoils
   NORM    Buffer airfoil normalization toggle
   XYCM rr Change CM reference location, currently  0.25000 0.00000

   BEND    Display structural properties of current airfoil

   PCOP    Set current-airfoil panel nodes directly from buffer airfoil points
   PANE    Set current-airfoil panel nodes ( 160 ) based on curvature
  .PPAR    Show/change paneling

  .PLOP    Plotting options

   WDEF f  Write  current-settings file
   RDEF f  Reread current-settings file
   NAME s  Specify new airfoil name
   NINC    Increment name version number

   Z       Zoom    | (available in all menus)
   U       Unzoom  | 

 XFOIL   c>  
 Labeled airfoil file.  Name:    SD7037-092-88                                 

 Number of input coordinate points:  61
 Counterclockwise ordering
 Max thickness =     0.092124  at x =   0.291
 Max camber    =     0.029901  at x =   0.399

  LE  x,y  =   0.00011   0.00046  |   Chord =   0.99989
  TE  x,y  =   1.00000   0.00000  |

 Current airfoil nodes set from buffer airfoil nodes (  61 )

 WARNING: Poor input coordinate distribution
          Excessive panel angle   46.3  at i =  33
          Repaneling with PANE and/or PPAR suggested
           (doing GDES,CADD before repaneling _may_
            improve excessively coarse LE spacing

 XFOIL   c>  
 XFOIL   c>  
 Sharp trailing edge

 Paneling parameters used...
   Number of panel nodes       160
   Panel bunching parameter    1.000
   TE/LE panel density ratio   0.150
   Refined-area/LE panel density ratio    0.200
   Top    side refined area x/c limits  1.000 1.000
   Bottom side refined area x/c limits  1.000 1.000

 XFOIL   c>  
.OPERi   c>  
 Xtr/c     =  1.0000    top    side
 Xtr/c     =  1.0000    bottom side
 Ncrit     =    9.00   ( 0.070 % turb. level )
 Vacc      =  0.0100

 Klag  =  5.6000     Uxwt  =    1.00
 A     =  6.7000     B     =  0.7500       KCt = 0.01485
 CtiniK=  1.8000     CtiniX=  3.3000

..VPAR   c>  
..VPAR   c>  
.OPERi   c>  
 M  =    0.0000
 Re =    200000

.OPERv   c>  
.OPERv   c>  
.OPERv   c>  
 Polar  1 newly created for accumulation
 Airfoil archived with polar: SD7037-092-88                                   

Enter  polar save filename  OR  <return> for no file   s>  
 New polar save file available

Enter  polar dump filename  OR  <return> for no file   s>  
 Polar dump file will NOT be written

 Polar accumulation enabled

.OPERva   c>   Calculating unit vorticity distributions ...
 Calculating wake trajectory ...
 Calculating source influence matrix ...

 Solving BL system ...

 Initializing BL ...
    side            1  ...
 MRCHUE: Inverse mode at  63     Hk =   3.865
 MRCHUE: Inverse mode at  64     Hk =   4.182
 MRCHUE: Inverse mode at  65     Hk =   4.496
 MRCHUE: Inverse mode at  66     Hk =   4.806
 MRCHUE: Inverse mode at  67     Hk =   5.113
 MRCHUE: Inverse mode at  68     Hk =   5.417
 MRCHUE: Inverse mode at  69     Hk =   5.719
 MRCHUE: Inverse mode at  70     Hk =   6.020
 MRCHUE: Inverse mode at  71     Hk =   6.318
 MRCHUE: Inverse mode at  72     Hk =   6.609
 MRCHUE: Inverse mode at  73     Hk =   6.889
 MRCHUE: Inverse mode at  74     Hk =   7.154
 MRCHUE: Inverse mode at  75     Hk =   7.386
 MRCHUE: Inverse mode at  76     Hk =   7.577
 MRCHUE: Inverse mode at  77     Hk =   7.680
    side            2  ...
 MRCHUE: Inverse mode at  12     Hk =   3.800
 MRCHUE: Inverse mode at  13     Hk =   4.564
 MRCHUE: Convergence failed at  14  side 2    Res =  0.2187E+01
 MRCHUE: Inverse mode at  15     Hk =   5.403
 MRCHUE: Inverse mode at  16     Hk =   6.223
 MRCHUE: Inverse mode at  17     Hk =   7.045
 MRCHUE: Inverse mode at  18     Hk =   7.899
 MRCHUE: Inverse mode at  19     Hk =   8.847
 MRCHUE: Inverse mode at  20     Hk =   9.964
 MRCHUE: Inverse mode at  21     Hk =   5.233
 MRCHUE: Inverse mode at  22     Hk =   2.500
 MRCHUE: Inverse mode at  23     Hk =   2.500

 MRCHDU: Convergence failed at  21  side 2    Res =  0.6533E+01
 MRCHDU: Convergence failed at  22  side 2    Res =  0.3433E+02
 MRCHDU: Convergence failed at  23  side 2    Res =  0.4300E+02
 MRCHDU: Convergence failed at  24  side 2    Res =  0.2154E+02
 MRCHDU: Convergence failed at  25  side 2    Res =  0.1799E+02
 MRCHDU: Convergence failed at  26  side 2    Res =  0.1997E+02
 MRCHDU: Convergence failed at  27  side 2    Res =  0.2742E+02
 MRCHDU: Convergence failed at  28  side 2    Res =  0.3385E+02
 MRCHDU: Convergence failed at  29  side 2    Res =  0.3975E+02
 MRCHDU: Convergence failed at  30  side 2    Res =  0.4053E+02
 MRCHDU: Convergence failed at  31  side 2    Res =  0.4223E+02
 MRCHDU: Convergence failed at  32  side 2    Res =  0.4247E+02
 MRCHDU: Convergence failed at  33  side 2    Res =  0.4403E+02
 MRCHDU: Convergence failed at  34  side 2    Res =  0.4085E+02
 MRCHDU: Convergence failed at  35  side 2    Res =  0.3610E+02
 MRCHDU: Convergence failed at  36  side 2    Res =  0.3481E+02
 MRCHDU: Convergence failed at  37  side 2    Res =  0.3693E+02
 MRCHDU: Convergence failed at  38  side 2    Res =  0.3915E+02
 MRCHDU: Convergence failed at  39  side 2    Res =  0.3816E+02
 MRCHDU: Convergence failed at  40  side 2    Res =  0.4020E+02
 MRCHDU: Convergence failed at  41  side 2    Res =  0.4239E+02
 MRCHDU: Convergence failed at  42  side 2    Res =  0.4463E+02
 MRCHDU: Convergence failed at  43  side 2    Res =  0.4704E+02
 MRCHDU: Convergence failed at  44  side 2    Res =  0.4941E+02
 MRCHDU: Convergence failed at  45  side 2    Res =  0.5235E+02
 MRCHDU: Convergence failed at  46  side 2    Res =  0.5074E+02
 MRCHDU: Convergence failed at  47  side 2    Res =  0.5311E+02
 MRCHDU: Convergence failed at  48  side 2    Res =  0.5562E+02
 MRCHDU: Convergence failed at  49  side 2    Res =  0.5618E+02
 MRCHDU: Convergence failed at  50  side 2    Res =  0.5897E+02
 MRCHDU: Convergence failed at  51  side 2    Res =  0.6395E+02
 MRCHDU: Convergence failed at  52  side 2    Res =  0.6604E+02
 MRCHDU: Convergence failed at  53  side 2    Res =  0.6912E+02
 MRCHDU: Convergence failed at  54  side 2    Res =  0.7309E+02
 MRCHDU: Convergence failed at  55  side 2    Res =  0.7984E+02
 MRCHDU: Convergence failed at  56  side 2    Res =  0.8478E+02
 MRCHDU: Convergence failed at  57  side 2    Res =  0.9643E+02
 MRCHDU: Convergence failed at  58  side 2    Res =  0.1051E+03
 MRCHDU: Convergence failed at  59  side 2    Res =  0.1497E+03
 MRCHDU: Convergence failed at  60  side 2    Res =  0.1721E+03
 MRCHDU: Convergence failed at  61  side 2    Res =  0.1996E+03
 MRCHDU: Convergence failed at  62  side 2    Res =  0.2425E+03
 MRCHDU: Convergence failed at  63  side 2    Res =  0.1535E+03
 MRCHDU: Convergence failed at  64  side 2    Res =  0.1396E+03
 MRCHDU: Convergence failed at  65  side 2    Res =  0.1274E+03
 MRCHDU: Convergence failed at  66  side 2    Res =  0.1180E+03
 MRCHDU: Convergence failed at  67  side 2    Res =  0.1087E+03
 MRCHDU: Convergence failed at  68  side 2    Res =  0.1016E+03
 MRCHDU: Convergence failed at  69  side 2    Res =  0.9506E+02
 MRCHDU: Convergence failed at  70  side 2    Res =  0.9003E+02
 MRCHDU: Convergence failed at  71  side 2    Res =  0.4563E+02
 MRCHDU: Convergence failed at  72  side 2    Res =  0.5205E+04
 MRCHDU: Convergence failed at  73  side 2    Res =  0.1129E+04
 MRCHDU: Convergence failed at  74  side 2    Res =  0.6353E+03
 MRCHDU: Convergence failed at  75  side 2    Res =  0.4233E+03
 MRCHDU: Convergence failed at  76  side 2    Res =  0.7240E+02
 MRCHDU: Convergence failed at  77  side 2    Res =  0.7613E+02
 MRCHDU: Convergence failed at  78  side 2    Res =  0.8060E+02
 MRCHDU: Convergence failed at  79  side 2    Res =  0.8470E+02
 MRCHDU: Convergence failed at  80  side 2    Res =  0.9044E+02
 MRCHDU: Convergence failed at  81  side 2    Res =  0.9938E+02
 MRCHDU: Convergence failed at  82  side 2    Res =  0.1133E+03
 MRCHDU: Convergence failed at  83  side 2    Res =  0.1103E+03
 MRCHDU: Convergence failed at  84  side 2    Res =  0.1711E+03
 MRCHDU: Convergence failed at  85  side 2    Res =  0.2705E+03
 Side 1 forced transition at x/c =  1.0000   77
 Side 2  free  transition at x/c =  0.0462   21

   1   rms: 0.1685E+01   max: 0.7595E+01   D at   87  2   RLX: 0.198
       a = -4.000      CL = -1.5554
      Cm =  0.3544     CD =  0.00528   =>   CDf =  0.00275    CDp =  0.00253

 MRCHDU: Convergence failed at  36  side 2    Res =  0.2395E+00
 MRCHDU: Convergence failed at  37  side 2    Res =  0.2287E+00
 MRCHDU: Convergence failed at  38  side 2    Res =  0.2182E+00
 MRCHDU: Convergence failed at  39  side 2    Res =  0.2075E+00
 MRCHDU: Convergence failed at  40  side 2    Res =  0.1957E+00
 MRCHDU: Convergence failed at  41  side 2    Res =  0.1848E+00
 MRCHDU: Convergence failed at  42  side 2    Res =  0.1724E+00
 MRCHDU: Convergence failed at  43  side 2    Res =  0.1584E+00
 MRCHDU: Convergence failed at  44  side 2    Res =  0.1428E+00
 MRCHDU: Convergence failed at  45  side 2    Res =  0.1221E+00
 MRCHDU: Convergence failed at  46  side 2    Res =  0.9811E-01
 MRCHDU: Convergence failed at  77  side 2    Res =  0.1404E+00
 MRCHDU: Convergence failed at  78  side 2    Res =  0.1514E+00
 MRCHDU: Convergence failed at  79  side 2    Res =  0.1636E+00
 MRCHDU: Convergence failed at  80  side 2    Res =  0.1768E+00
 MRCHDU: Convergence failed at  81  side 2    Res =  0.1901E+00
 MRCHDU: Convergence failed at  82  side 2    Res =  0.2027E+00
 MRCHDU: Convergence failed at  83  side 2    Res =  0.2123E+00
 MRCHDU: Convergence failed at  84  side 2    Res =  0.2161E+00
 MRCHDU: Convergence failed at  85  side 2    Res =  0.1750E+00
 Side 1 forced transition at x/c =  1.0000   77
 Side 2  free  transition at x/c =  0.0389   20

   2   rms: 0.6555E+00   max: 0.6346E+01   T at   20  2   RLX: 0.141
       a = -4.000      CL = -0.9534
      Cm =  0.1665     CD =  0.02667   =>   CDf =  0.00451    CDp =  0.02216

 MRCHDU: Convergence failed at  46  side 2    Res =  0.3917E+00
 MRCHDU: Convergence failed at  47  side 2    Res =  0.7702E+00
 MRCHDU: Convergence failed at  48  side 2    Res =  0.4958E-01
 MRCHDU: Convergence failed at  49  side 2    Res =  0.9696E-03
 Side 1 forced transition at x/c =  1.0000   77
 Side 2  free  transition at x/c =  0.0329   20
 idif Ue xi dudx           1  0.22332220      4.30250168E-03   51.905197    
 Uenew xinew           2  7.05013052E-02  1.35827065E-03

   3   rms: 0.5076E+00   max: 0.2716E+01   T at   20  2   RLX: 0.446
       a = -4.000      CL = -0.5921
      Cm =  0.0464     CD =  0.03066   =>   CDf =  0.00412    CDp =  0.02655

 MRCHDU: Convergence failed at  21  side 2    Res =  0.1775E+02
 MRCHDU: Convergence failed at  22  side 2    Res =  0.2666E+02
 MRCHDU: Convergence failed at  23  side 2    Res =  0.2748E+02
 MRCHDU: Convergence failed at  24  side 2    Res =  0.1046E+02
 MRCHDU: Convergence failed at  25  side 2    Res =  0.9467E+02
 MRCHDU: Convergence failed at  26  side 2    Res =  0.1745E+02
 MRCHDU: Convergence failed at  27  side 2    Res =  0.1904E+02
 MRCHDU: Convergence failed at  28  side 2    Res =  0.2528E+02
 MRCHDU: Convergence failed at  29  side 2    Res =  0.3794E+02
 MRCHDU: Convergence failed at  30  side 2    Res =  0.2550E+03
 MRCHDU: Convergence failed at  31  side 2    Res =  0.1678E+03
 MRCHDU: Convergence failed at  32  side 2    Res =  0.9883E+02
 MRCHDU: Convergence failed at  33  side 2    Res =  0.2066E+04
 MRCHDU: Convergence failed at  34  side 2    Res =  0.6545E+02
 MRCHDU: Convergence failed at  35  side 2    Res =  0.1455E+03
 MRCHDU: Convergence failed at  36  side 2    Res =  0.8197E+02
 MRCHDU: Convergence failed at  37  side 2    Res =  0.3462E+03
 MRCHDU: Convergence failed at  38  side 2    Res =  0.2191E+03
 MRCHDU: Convergence failed at  39  side 2    Res =  0.1057E+03
 MRCHDU: Convergence failed at  40  side 2    Res =  0.2843E+03
 MRCHDU: Convergence failed at  41  side 2    Res =  0.5893E+03
 MRCHDU: Convergence failed at  42  side 2    Res =  0.6319E+02
 MRCHDU: Convergence failed at  43  side 2    Res =  0.6469E+02
 MRCHDU: Convergence failed at  44  side 2    Res =  0.4319E+03
 MRCHDU: Convergence failed at  45  side 2    Res =  0.3361E+02
 MRCHDU: Convergence failed at  46  side 2    Res =  0.3063E+02
 MRCHDU: Convergence failed at  47  side 2    Res =  0.3812E+02
 MRCHDU: Convergence failed at  48  side 2    Res =  0.6252E+03
 MRCHDU: Convergence failed at  49  side 2    Res =  0.7945E+02
 MRCHDU: Convergence failed at  50  side 2    Res =  0.2754E+02
 MRCHDU: Convergence failed at  51  side 2    Res =  0.6157E+02
 MRCHDU: Convergence failed at  52  side 2    Res =  0.5079E+02
 MRCHDU: Convergence failed at  53  side 2    Res =  0.2988E+02
 MRCHDU: Convergence failed at  54  side 2    Res =  0.6918E+02
 MRCHDU: Convergence failed at  55  side 2    Res =  0.7342E+02
 MRCHDU: Convergence failed at  56  side 2    Res =  0.7582E+02
 MRCHDU: Convergence failed at  57  side 2    Res =  0.7837E+02
 MRCHDU: Convergence failed at  58  side 2    Res =  0.1197E+03
 MRCHDU: Convergence failed at  59  side 2    Res =  0.8297E+02
 MRCHDU: Convergence failed at  60  side 2    Res =  0.2857E+02
 MRCHDU: Convergence failed at  61  side 2    Res =  0.3411E+02
 MRCHDU: Convergence failed at  62  side 2    Res =  0.9007E+02
 MRCHDU: Convergence failed at  63  side 2    Res =  0.3338E+02
 MRCHDU: Convergence failed at  64  side 2    Res =  0.9749E+02
 MRCHDU: Convergence failed at  65  side 2    Res =  0.9717E+02
 MRCHDU: Convergence failed at  66  side 2    Res =  0.1002E+03
 MRCHDU: Convergence failed at  67  side 2    Res =  0.1044E+03
 MRCHDU: Convergence failed at  68  side 2    Res =  0.1081E+03
 MRCHDU: Convergence failed at  69  side 2    Res =  0.1116E+03
 MRCHDU: Convergence failed at  70  side 2    Res =  0.1150E+03
 MRCHDU: Convergence failed at  71  side 2    Res =  0.1186E+03
 MRCHDU: Convergence failed at  72  side 2    Res =  0.1142E+03
 MRCHDU: Convergence failed at  73  side 2    Res =  0.2514E+03
 MRCHDU: Convergence failed at  74  side 2    Res =  0.6427E+02
 MRCHDU: Convergence failed at  75  side 2    Res =  0.6027E+03
 MRCHDU: Convergence failed at  76  side 2    Res =  0.1596E+03
 MRCHDU: Convergence failed at  77  side 2    Res =  0.3352E+02
 MRCHDU: Convergence failed at  78  side 2    Res =  0.3288E+02
 MRCHDU: Convergence failed at  79  side 2    Res =  0.3526E+02
 MRCHDU: Convergence failed at  80  side 2    Res =  0.4195E+02
 MRCHDU: Convergence failed at  81  side 2    Res =  0.4277E+02
 MRCHDU: Convergence failed at  82  side 2    Res =  0.1311E+03
 MRCHDU: Convergence failed at  83  side 2    Res =  0.1369E+03
 MRCHDU: Convergence failed at  84  side 2    Res =  0.2323E+03
 MRCHDU: Convergence failed at  85  side 2    Res =  0.1278E+03
 MRCHDU: Convergence failed at  86  side 2    Res =  0.1062E+03
 Side 1 forced transition at x/c =  1.0000   76
 Side 2  free  transition at x/c =  0.0307   20

   4   rms: 0.1232E+01   max: 0.3518E+01   D at   90  2   RLX: 0.426
       a = -4.000      CL = -1.2605
      Cm =  0.2784     CD =  0.00952   =>   CDf =  0.00266    CDp =  0.00686

 MRCHDU: Convergence failed at  88  side 2    Res =  0.1901E+02
 MRCHDU: Convergence failed at  89  side 2    Res =  0.4492E+01
 MRCHDU: Convergence failed at  90  side 2    Res =  0.2008E+02
 MRCHDU: Convergence failed at  91  side 2    Res =  0.4045E+01
 MRCHDU: Convergence failed at  92  side 2    Res =  0.3372E+01
 MRCHDU: Convergence failed at  93  side 2    Res =  0.5420E+02
 Side 1 forced transition at x/c =  1.0000   77
 Side 2  free  transition at x/c =  0.0338   20

   5   rms: 0.3887E+00   max: -.8036E+00   D at   84  2   RLX: 0.437
       a = -4.000      CL = -0.3941
      Cm =  0.0233     CD =  0.05061   =>   CDf =  0.00328    CDp =  0.04733

 Side 1 forced transition at x/c =  1.0000   77
 Side 2  free  transition at x/c =  0.0343   20
 idif Ue xi dudx           1  0.18080555      3.47864628E-03   51.975838    
 Uenew xinew           2  2.77766809E-02  5.34415245E-04

   6   rms: 0.5496E+00   max: 0.1851E+01   T at   20  2   RLX: 0.390
       a = -4.000      CL = -0.3113
      Cm = -0.0249     CD =  0.05031   =>   CDf =  0.00349    CDp =  0.04683

 MRCHDU: Convergence failed at  21  side 2    Res =  0.5432E+01
 MRCHDU: Convergence failed at  22  side 2    Res =  0.1163E+03
 MRCHDU: Convergence failed at  23  side 2    Res =  0.3186E+02
 MRCHDU: Convergence failed at  24  side 2    Res =  0.4042E+02
 MRCHDU: Convergence failed at  25  side 2    Res =  0.1680E+03
 MRCHDU: Convergence failed at  26  side 2    Res =  0.2331E+02
 MRCHDU: Convergence failed at  27  side 2    Res =  0.1831E+02
 MRCHDU: Convergence failed at  28  side 2    Res =  0.3023E+02
 MRCHDU: Convergence failed at  29  side 2    Res =  0.9655E+02
 MRCHDU: Convergence failed at  30  side 2    Res =  0.6920E+02
 MRCHDU: Convergence failed at  31  side 2    Res =  0.2323E+02
 MRCHDU: Convergence failed at  32  side 2    Res =  0.8165E+02
 MRCHDU: Convergence failed at  33  side 2    Res =  0.1895E+03
 MRCHDU: Convergence failed at  34  side 2    Res =  0.5864E+02
 MRCHDU: Convergence failed at  35  side 2    Res =  0.7392E+02
 MRCHDU: Convergence failed at  36  side 2    Res =  0.3044E+03
 MRCHDU: Convergence failed at  37  side 2    Res =  0.7246E+02
 MRCHDU: Convergence failed at  38  side 2    Res =  0.3476E+02
 MRCHDU: Convergence failed at  39  side 2    Res =  0.6928E+02
 MRCHDU: Convergence failed at  40  side 2    Res =  0.5747E+02
 MRCHDU: Convergence failed at  41  side 2    Res =  0.1741E+03
 MRCHDU: Convergence failed at  42  side 2    Res =  0.3903E+02
 MRCHDU: Convergence failed at  43  side 2    Res =  0.3869E+02
 MRCHDU: Convergence failed at  44  side 2    Res =  0.5037E+02
 MRCHDU: Convergence failed at  45  side 2    Res =  0.1180E+03
 MRCHDU: Convergence failed at  46  side 2    Res =  0.1309E+03
 MRCHDU: Convergence failed at  47  side 2    Res =  0.1523E+03
 MRCHDU: Convergence failed at  48  side 2    Res =  0.4639E+02
 MRCHDU: Convergence failed at  49  side 2    Res =  0.1552E+03
 MRCHDU: Convergence failed at  50  side 2    Res =  0.1672E+03
 MRCHDU: Convergence failed at  51  side 2    Res =  0.1683E+03
 MRCHDU: Convergence failed at  52  side 2    Res =  0.6828E+03
 MRCHDU: Convergence failed at  53  side 2    Res =  0.8975E+03
 MRCHDU: Convergence failed at  54  side 2    Res =  0.3904E+03
 MRCHDU: Convergence failed at  55  side 2    Res =  0.1826E+03
 MRCHDU: Convergence failed at  56  side 2    Res =  0.3601E+03
 MRCHDU: Convergence failed at  57  side 2    Res =  0.1538E+03
 MRCHDU: Convergence failed at  58  side 2    Res =  0.6481E+02
 MRCHDU: Convergence failed at  59  side 2    Res =  0.2745E+03
 MRCHDU: Convergence failed at  60  side 2    Res =  0.7129E+02
 MRCHDU: Convergence failed at  61  side 2    Res =  0.6507E+02
 MRCHDU: Convergence failed at  62  side 2    Res =  0.6006E+02
 MRCHDU: Convergence failed at  63  side 2    Res =  0.7437E+02
 MRCHDU: Convergence failed at  64  side 2    Res =  0.4488E+03
 MRCHDU: Convergence failed at  65  side 2    Res =  0.1246E+03
 MRCHDU: Convergence failed at  66  side 2    Res =  0.4747E+02
 MRCHDU: Convergence failed at  67  side 2    Res =  0.6073E+04
 MRCHDU: Convergence failed at  68  side 2    Res =  0.3864E+02
 MRCHDU: Convergence failed at  69  side 2    Res =  0.3949E+02
 MRCHDU: Convergence failed at  70  side 2    Res =  0.4031E+02
 MRCHDU: Convergence failed at  71  side 2    Res =  0.3870E+02
 MRCHDU: Convergence failed at  72  side 2    Res =  0.3948E+02
 MRCHDU: Convergence failed at  73  side 2    Res =  0.4040E+02
 MRCHDU: Convergence failed at  74  side 2    Res =  0.4117E+02
 MRCHDU: Convergence failed at  75  side 2    Res =  0.4195E+02
 MRCHDU: Convergence failed at  76  side 2    Res =  0.4253E+02
 MRCHDU: Convergence failed at  77  side 2    Res =  0.4283E+02
 MRCHDU: Convergence failed at  78  side 2    Res =  0.4315E+02
 MRCHDU: Convergence failed at  79  side 2    Res =  0.4319E+02
 MRCHDU: Convergence failed at  80  side 2    Res =  0.4287E+02
 MRCHDU: Convergence failed at  81  side 2    Res =  0.4204E+02
 MRCHDU: Convergence failed at  82  side 2    Res =  0.4122E+02
 MRCHDU: Convergence failed at  83  side 2    Res =  0.4231E+02
 MRCHDU: Convergence failed at  84  side 2    Res =  0.9839E+02
 MRCHDU: Convergence failed at  85  side 2    Res =  0.1031E+03
 MRCHDU: Convergence failed at  86  side 2    Res =  0.3126E+03
 Side 1 forced transition at x/c =  1.0000   76
 Side 2  free  transition at x/c =  0.0316   20

   7   rms: 0.1168E+01   max: 0.3529E+01   D at   91  2   RLX: 0.425
       a = -4.000      CL = -1.0886
      Cm =  0.2386     CD =  0.01147   =>   CDf =  0.00287    CDp =  0.00859

 MRCHDU: Convergence failed at  90  side 2    Res =  0.4489E+01
 MRCHDU: Convergence failed at  91  side 2    Res =  0.5315E+01
 MRCHDU: Convergence failed at  92  side 2    Res =  0.1470E+02
 MRCHDU: Convergence failed at  93  side 2    Res =  0.3975E+01
 MRCHDU: Convergence failed at  94  side 2    Res =  0.3249E+01
 MRCHDU: Convergence failed at  95  side 2    Res =  0.3865E+01
 MRCHDU: Convergence failed at  96  side 2    Res =  0.6576E+01
 MRCHDU: Convergence failed at  97  side 2    Res =  0.2334E+02
 MRCHDU: Convergence failed at  98  side 2    Res =  0.1296E+02
 Side 1 forced transition at x/c =  1.0000   77
 Side 2  free  transition at x/c =  0.0353   20

   8   rms: 0.3894E+00   max: -.7912E+00   D at   84  2   RLX: 0.487
       a = -4.000      CL = -0.3059
      Cm =  0.0162     CD =  0.05812   =>   CDf =  0.00343    CDp =  0.05469

 Side 1 forced transition at x/c =  1.0000   78
 Side 2  free  transition at x/c =  0.0384   19
 idif Ue xi dudx           1  0.16532773      2.81918049E-03   58.643898    
 Uenew xinew           2  2.05112938E-02  3.49760056E-04

   9   rms: 0.4194E+00   max: 0.4056E+01   T at    2  1   RLX: 0.266
       a = -4.000      CL = -0.2255
      Cm = -0.0144     CD =  0.08016   =>   CDf =  0.00351    CDp =  0.07665

 Side 1 forced transition at x/c =  1.0000   77
 Side 2  free  transition at x/c =  0.0370   20

  10   rms: 0.3981E+00   max: -.1280E+01   D at  104  2   RLX: 0.391
       a = -4.000      CL = -0.2160
      Cm = -0.0327     CD =  0.06216   =>   CDf =  0.00346    CDp =  0.05870

 Side 1 forced transition at x/c =  1.0000   77
 Side 2  free  transition at x/c =  0.0352   20
 idif Ue xi dudx           1  0.15472388      2.99704075E-03   51.625553    
 Uenew xinew           2  2.72633065E-03  5.28097153E-05

  11   rms: 0.4791E+00   max: -.1631E+01   D at  103  2   RLX: 0.307
       a = -4.000      CL = -0.2275
      Cm = -0.0510     CD =  0.05920   =>   CDf =  0.00337    CDp =  0.05583

 Side 1 forced transition at x/c =  1.0000   76
 Side 2  free  transition at x/c =  0.0353   21

  12   rms: 0.3388E+01   max: -.4350E+02   D at    2  2   RLX: 0.011
       a = -4.000      CL = -0.1866
      Cm = -0.0620     CD =  0.07898   =>   CDf =  0.00328    CDp =  0.07570

 Side 1 forced transition at x/c =  1.0000   77
 Side 2  free  transition at x/c =  0.0363   20
 idif Ue xi dudx           1  0.15722507      3.03959846E-03   51.725605    
 Uenew xinew           2  4.93293814E-03  9.53674316E-05

  13   rms: 0.3676E+00   max: -.1866E+01   T at   20  2   RLX: 0.268
       a = -4.000      CL = -0.2417
      Cm = -0.0545     CD =  0.06510   =>   CDf =  0.00324    CDp =  0.06186

 Side 1 forced transition at x/c =  1.0000   76
 Side 2  free  transition at x/c =  0.0433   22

  14   rms: 0.2022E+01   max: 0.2004E+02   T at    2  2   RLX: 0.051
       a = -4.000      CL = -0.2431
      Cm = -0.0653     CD =  0.06400   =>   CDf =  0.00310    CDp =  0.06090

 Side 1 forced transition at x/c =  1.0000   76
 Side 2  free  transition at x/c =  0.0420   22

  15   rms: 0.1794E+01   max: -.4701E+01   D at   39  2   RLX: 0.106
       a = -4.000      CL = -0.2937
      Cm = -0.0759     CD =  0.04765   =>   CDf =  0.00307    CDp =  0.04458

 Side 1 forced transition at x/c =  1.0000   76
 Side 2  free  transition at x/c =  0.0410   21

  16   rms: 0.5143E+00   max: 0.5698E+01   T at   21  2   RLX: 0.139
       a = -4.000      CL = -0.3341
      Cm = -0.0765     CD =  0.05020   =>   CDf =  0.00336    CDp =  0.04684

 Side 1 forced transition at x/c =  1.0000   76
 Side 2  free  transition at x/c =  0.0428   22

  17   rms: 0.3989E+01   max: -.2056E+02   T at   22  2   RLX: 0.024
       a = -4.000      CL = -0.3243
      Cm = -0.0685     CD =  0.06186   =>   CDf =  0.00311    CDp =  0.05876

 Side 1 forced transition at x/c =  1.0000   76
 Side 2  free  transition at x/c =  0.0468   22

  18   rms: 0.1749E+01   max: -.1017E+02   T at   22  2   RLX: 0.049
       a = -4.000      CL = -0.3645
      Cm = -0.0494     CD =  0.06795   =>   CDf =  0.00298    CDp =  0.06497

 Side 1 forced transition at x/c =  1.0000   76
 Side 2  free  transition at x/c =  0.0553   23

  19   rms: 0.9385E+01   max: -.2729E+02   T at   23  2   RLX: 0.018
       a = -4.000      CL = -0.3017
      Cm = -0.0382     CD =  0.08207   =>   CDf =  0.00292    CDp =  0.07915

 Side 1 forced transition at x/c =  1.0000   77
 Side 2  free  transition at x/c =  0.0606   22

  20   rms: 0.1957E+01   max: -.3242E+02   T at   22  2   RLX: 0.015
       a = -4.000      CL = -0.3063
      Cm = -0.0360     CD =  0.07504   =>   CDf =  0.00296    CDp =  0.07208

 Side 1 forced transition at x/c =  1.0000   77
 Side 2  free  transition at x/c =  0.0706   23

  21   rms: 0.4344E+01   max: -.4805E+02   T at   23  2   RLX: 0.010
       a = -4.000      CL = -0.2301
      Cm = -0.0535     CD =  0.07600   =>   CDf =  0.00292    CDp =  0.07309

 Side 1 forced transition at x/c =  1.0000   77
 Side 2  free  transition at x/c =  0.0761   23

  22   rms: 0.3535E+01   max: -.1723E+02   T at   24  2   RLX: 0.029
       a = -4.000      CL = -0.2237
      Cm = -0.0362     CD =  0.08211   =>   CDf =  0.00294    CDp =  0.07917

 Side 1 forced transition at x/c =  1.0000   77
 Side 2  free  transition at x/c =  0.0737   23

  23   rms: 0.6844E+00   max: -.1076E+02   T at   23  2   RLX: 0.046
       a = -4.000      CL = -0.2650
      Cm = -0.0245     CD =  0.08181   =>   CDf =  0.00302    CDp =  0.07879

 TRCHEK2: N2 convergence failed.
 x:  0.37960  0.39158  0.39498  N:  8.933  9.000  9.014  Nx:   7.458   dN:-0.236E+00
 TRCHEK2: N2 convergence failed.
 x:  0.37960  0.39498  0.39498  N:  8.933  9.000  9.019  Nx:   5.586   dN: 0.191E-01
 TRCHEK2: N2 convergence failed.
 x:  0.39498  0.41036  0.41036  N:  8.944  9.000  9.005  Nx:   3.941   dN: 0.474E-02
 TRCHEK2: N2 convergence failed.
 x:  0.39498  0.40875  0.41036  N:  8.944  9.000  9.003  Nx:   6.344   dN:-0.884E-01
 TRCHEK2: N2 convergence failed.
 x:  0.39498  0.40926  0.41036  N:  8.944  9.000  9.001  Nx:   5.914   dN:-0.498E-01
 TRCHEK2: N2 convergence failed.
 x:  0.39498  0.40784  0.41036  N:  8.944  9.000  9.007  Nx:   6.406   dN:-0.341E-01
 TRCHEK2: N2 convergence failed.
 x:  0.39498  0.41036  0.41036  N:  8.944  9.000  9.003  Nx:   3.845   dN: 0.327E-02
 TRCHEK2: N2 convergence failed.
 x:  0.39498  0.41036  0.41036  N:  8.944  9.000  9.001  Nx:   3.675   dN: 0.579E-03
 TRCHEK2: N2 convergence failed.
 x:  0.39498  0.40804  0.41036  N:  8.944  9.000  9.006  Nx:   9.716   dN:-0.435E-01
 TRCHEK2: N2 convergence failed.
 x:  0.39498  0.41036  0.41036  N:  8.944  9.000  9.049  Nx:   6.676   dN: 0.489E-01
 MRCHDU: Convergence failed at  45  side 2    Res =  0.2467E+02
 MRCHDU: Convergence failed at  46  side 2    Res =  0.3925E+02
 MRCHDU: Convergence failed at  47  side 2    Res =  0.7431E+02
 MRCHDU: Convergence failed at  48  side 2    Res =  0.2743E+03
 MRCHDU: Convergence failed at  49  side 2    Res =  0.2395E+03
 MRCHDU: Convergence failed at  50  side 2    Res =  0.4388E+02
 MRCHDU: Convergence failed at  51  side 2    Res =  0.6067E+02
 MRCHDU: Convergence failed at  52  side 2    Res =  0.4714E+02
 MRCHDU: Convergence failed at  53  side 2    Res =  0.3937E+02
 MRCHDU: Convergence failed at  54  side 2    Res =  0.3438E+02
 MRCHDU: Convergence failed at  55  side 2    Res =  0.4083E+02
 MRCHDU: Convergence failed at  56  side 2    Res =  0.4561E+02
 MRCHDU: Convergence failed at  57  side 2    Res =  0.5154E+02
 MRCHDU: Convergence failed at  58  side 2    Res =  0.5565E+02
 MRCHDU: Convergence failed at  59  side 2    Res =  0.5823E+02
 MRCHDU: Convergence failed at  60  side 2    Res =  0.4257E+02
 MRCHDU: Convergence failed at  61  side 2    Res =  0.5501E+02
 MRCHDU: Convergence failed at  62  side 2    Res =  0.2663E+03
 MRCHDU: Convergence failed at  63  side 2    Res =  0.1062E+03
 MRCHDU: Convergence failed at  64  side 2    Res =  0.5764E+02
 MRCHDU: Convergence failed at  65  side 2    Res =  0.6238E+02
 MRCHDU: Convergence failed at  66  side 2    Res =  0.5436E+03
 MRCHDU: Convergence failed at  67  side 2    Res =  0.2191E+03
 MRCHDU: Convergence failed at  68  side 2    Res =  0.1248E+03
 MRCHDU: Convergence failed at  69  side 2    Res =  0.1658E+03
 MRCHDU: Convergence failed at  70  side 2    Res =  0.2951E+03
 MRCHDU: Convergence failed at  71  side 2    Res =  0.1831E+04
 MRCHDU: Convergence failed at  72  side 2    Res =  0.1014E+04
 MRCHDU: Convergence failed at  73  side 2    Res =  0.6869E+03
 MRCHDU: Convergence failed at  74  side 2    Res =  0.3423E+03
 MRCHDU: Convergence failed at  75  side 2    Res =  0.2536E+03
 MRCHDU: Convergence failed at  76  side 2    Res =  0.1890E+03
 MRCHDU: Convergence failed at  77  side 2    Res =  0.1540E+03
 MRCHDU: Convergence failed at  78  side 2    Res =  0.7049E+02
 MRCHDU: Convergence failed at  79  side 2    Res =  0.6962E+02
 MRCHDU: Convergence failed at  80  side 2    Res =  0.7157E+02
 MRCHDU: Convergence failed at  81  side 2    Res =  0.4739E+02
 MRCHDU: Convergence failed at  82  side 2    Res =  0.7777E+02
 MRCHDU: Convergence failed at  83  side 2    Res =  0.7548E+02
 MRCHDU: Convergence failed at  84  side 2    Res =  0.8280E+02
 MRCHDU: Convergence failed at  85  side 2    Res =  0.9746E+02
 Side 1 forced transition at x/c =  1.0000   77
 Side 2  free  transition at x/c =  0.3822   44

  24   rms: 0.2007E+01   max: 0.4606E+02   T at   44  2   RLX: 0.033
       a = -4.000      CL = -0.8198
      Cm =  0.1730     CD =  0.01147   =>   CDf =  0.00262    CDp =  0.00885

 Side 1 forced transition at x/c =  1.0000   77
 Side 2  free  transition at x/c =  0.2202   33

  25   rms: 0.8997E+00   max: 0.1422E+02   T at   33  2   RLX: 0.098
       a = -4.000      CL = -0.6433
      Cm =  0.1055     CD =  0.06929   =>   CDf =  0.00284    CDp =  0.06645

 Side 1 forced transition at x/c =  1.0000   77
 Side 2  free  transition at x/c =  0.1444   28

  26   rms: 0.6068E+00   max: 0.3961E+01   T at   28  2   RLX: 0.179
       a = -4.000      CL = -0.5386
      Cm =  0.0816     CD =  0.07197   =>   CDf =  0.00308    CDp =  0.06889

 Side 1 forced transition at x/c =  1.0000   77
 Side 2  free  transition at x/c =  0.0907   24

  27   rms: 0.5681E+00   max: -.4279E+01   T at   25  2   RLX: 0.117
       a = -4.000      CL = -0.4802
      Cm =  0.0725     CD =  0.09850   =>   CDf =  0.00347    CDp =  0.09502

 Side 1 forced transition at x/c =  1.0000   78
 Side 2  free  transition at x/c =  0.0622   21

  28   rms: 0.8255E+01   max: 0.1252E+03   T at   22  2   RLX: 0.005
       a = -4.000      CL = -0.4610
      Cm =  0.0682     CD =  0.12131   =>   CDf =  0.00362    CDp =  0.11769

 Side 1 forced transition at x/c =  1.0000   78
 Side 2  free  transition at x/c =  0.0550   21

  29   rms: 0.4631E+00   max: 0.2668E+01   T at   21  2   RLX: 0.401
       a = -4.000      CL = -0.3204
      Cm =  0.0307     CD =  0.06030   =>   CDf =  0.00362    CDp =  0.05668

 MRCHDU: Convergence failed at  97  side 2    Res =  0.8869E+00
 MRCHDU: Convergence failed at  98  side 2    Res =  0.1267E+01
 MRCHDU: Convergence failed at  99  side 2    Res =  0.2301E+01
 MRCHDU: Convergence failed at 100  side 2    Res =  0.5259E+02
 Side 1 forced transition at x/c =  1.0000   78
 Side 2  free  transition at x/c =  0.0456   20

  30   rms: 0.5535E+00   max: 0.7390E+01   T at   20  2   RLX: 0.203
       a = -4.000      CL = -0.2609
      Cm =  0.0050     CD =  0.08609   =>   CDf =  0.00383    CDp =  0.08226

 Side 1 forced transition at x/c =  1.0000   78
 Side 2  free  transition at x/c =  0.0404   19

  31   rms: 0.3922E+00   max: -.1612E+01   D at  104  2   RLX: 0.310
       a = -4.000      CL = -0.2234
      Cm = -0.0065     CD =  0.07228   =>   CDf =  0.00388    CDp =  0.06840

 Side 1 forced transition at x/c =  1.0000   78
 Side 2  free  transition at x/c =  0.0401   19

  32   rms: 0.3671E+00   max: -.1597E+01   D at  104  2   RLX: 0.313
       a = -4.000      CL = -0.1934
      Cm = -0.0208     CD =  0.07548   =>   CDf =  0.00387    CDp =  0.07161

 Side 1 forced transition at x/c =  1.0000   78
 Side 2  free  transition at x/c =  0.0395   19
 idif Ue xi dudx           1  0.16652671      2.88975239E-03   57.626637    
 Uenew xinew           2  2.42223162E-02  4.20331955E-04

  33   rms: 0.3799E+00   max: -.1740E+01   D at  103  2   RLX: 0.287
       a = -4.000      CL = -0.1838
      Cm = -0.0329     CD =  0.07698   =>   CDf =  0.00385    CDp =  0.07313

 Side 1 forced transition at x/c =  1.0000   77
 Side 2  free  transition at x/c =  0.0392   20

  34   rms: 0.4019E+00   max: -.1824E+01   D at  104  2   RLX: 0.274
       a = -4.000      CL = -0.1839
      Cm = -0.0437     CD =  0.07612   =>   CDf =  0.00379    CDp =  0.07233

 Side 1 forced transition at x/c =  1.0000   77
 Side 2  free  transition at x/c =  0.0391   20

  35   rms: 0.4599E+00   max: -.2117E+01   D at  104  2   RLX: 0.236
       a = -4.000      CL = -0.1981
      Cm = -0.0528     CD =  0.07155   =>   CDf =  0.00371    CDp =  0.06785

 Side 1 forced transition at x/c =  1.0000   77
 Side 2  free  transition at x/c =  0.0395   20

  36   rms: 0.5462E+00   max: -.2450E+01   D at  104  2   RLX: 0.204
       a = -4.000      CL = -0.2183
      Cm = -0.0605     CD =  0.06386   =>   CDf =  0.00362    CDp =  0.06025

 Side 1 forced transition at x/c =  1.0000   77
 Side 2  free  transition at x/c =  0.0401   20
 idif Ue xi dudx           1  0.21419683      4.17149067E-03   51.347790    
 Uenew xinew           2  6.30170703E-02  1.22725964E-03

  37   rms: 0.1003E+01   max: -.3603E+01   D at  101  2   RLX: 0.139
       a = -4.000      CL = -0.2564
      Cm = -0.0717     CD =  0.05630   =>   CDf =  0.00350    CDp =  0.05280

 Side 1 forced transition at x/c =  1.0000   76
 Side 2  free  transition at x/c =  0.0430   22

  38   rms: 0.5047E+00   max: 0.2132E+01   D at   74  1   RLX: 0.260
       a = -4.000      CL = -0.2592
      Cm = -0.0689     CD =  0.03857   =>   CDf =  0.00456    CDp =  0.03402

 Side 1 forced transition at x/c =  1.0000   76
 Side 2  free  transition at x/c =  0.0425   22

  39   rms: 0.5296E+00   max: -.1832E+01   D at   34  2   RLX: 0.273
       a = -4.000      CL = -0.3013
      Cm = -0.0572     CD =  0.03422   =>   CDf =  0.00458    CDp =  0.02964

 Side 1 forced transition at x/c =  1.0000   76
 Side 2  free  transition at x/c =  0.0413   22
 idif Ue xi dudx           1  0.17956103      4.08840179E-03   43.919617    
 Uenew xinew           2  2.73509119E-02  6.22749329E-04

  40   rms: 0.5339E+00   max: 0.1547E+01   D at   67  1   RLX: 0.334
       a = -4.000      CL = -0.4066
      Cm = -0.0422     CD =  0.03187   =>   CDf =  0.00459    CDp =  0.02728

 Side 1  free  transition at x/c =  0.9968   75
 Side 2  free  transition at x/c =  0.0439   23

  41   rms: 0.2990E+00   max: 0.3310E+01   T at   75  1   RLX: 0.314
       a = -4.000      CL = -0.3972
      Cm = -0.0476     CD =  0.03593   =>   CDf =  0.00490    CDp =  0.03103

 Side 1  free  transition at x/c =  0.9751   73
 Side 2  free  transition at x/c =  0.0432   23

  42   rms: 0.2195E+00   max: 0.1937E+01   T at   73  1   RLX: 0.404
       a = -4.000      CL = -0.3696
      Cm = -0.0458     CD =  0.03167   =>   CDf =  0.00524    CDp =  0.02643

 Side 1  free  transition at x/c =  0.9566   72
 Side 2  free  transition at x/c =  0.0426   22

  43   rms: 0.1817E+00   max: 0.1408E+01   T at   22  2   RLX: 0.537
       a = -4.000      CL = -0.3509
      Cm = -0.0412     CD =  0.02936   =>   CDf =  0.00542    CDp =  0.02395

 MRCHDU: Convergence failed at  22  side 2    Res =  0.4595E+02
 MRCHDU: Convergence failed at  23  side 2    Res =  0.1487E+04
 MRCHDU: Convergence failed at  24  side 2    Res =  0.5949E+02
 MRCHDU: Convergence failed at  25  side 2    Res =  0.1191E+03
 MRCHDU: Convergence failed at  26  side 2    Res =  0.9333E+02
 MRCHDU: Convergence failed at  27  side 2    Res =  0.1769E+03
 MRCHDU: Convergence failed at  28  side 2    Res =  0.6402E+02
 MRCHDU: Convergence failed at  29  side 2    Res =  0.5874E+02
 MRCHDU: Convergence failed at  30  side 2    Res =  0.1923E+03
 MRCHDU: Convergence failed at  31  side 2    Res =  0.2061E+03
 MRCHDU: Convergence failed at  32  side 2    Res =  0.1902E+03
 MRCHDU: Convergence failed at  33  side 2    Res =  0.2224E+03
 MRCHDU: Convergence failed at  34  side 2    Res =  0.7615E+02
 MRCHDU: Convergence failed at  35  side 2    Res =  0.2691E+03
 MRCHDU: Convergence failed at  36  side 2    Res =  0.1976E+03
 MRCHDU: Convergence failed at  37  side 2    Res =  0.9220E+02
 MRCHDU: Convergence failed at  38  side 2    Res =  0.8934E+02
 MRCHDU: Convergence failed at  39  side 2    Res =  0.9296E+02
 MRCHDU: Convergence failed at  40  side 2    Res =  0.9899E+02
 MRCHDU: Convergence failed at  41  side 2    Res =  0.7899E+02
 MRCHDU: Convergence failed at  42  side 2    Res =  0.8535E+02
 MRCHDU: Convergence failed at  43  side 2    Res =  0.9460E+02
 MRCHDU: Convergence failed at  44  side 2    Res =  0.8887E+02
 MRCHDU: Convergence failed at  45  side 2    Res =  0.9278E+02
 MRCHDU: Convergence failed at  46  side 2    Res =  0.1192E+03
 MRCHDU: Convergence failed at  47  side 2    Res =  0.9763E+02
 MRCHDU: Convergence failed at  48  side 2    Res =  0.7746E+02
 MRCHDU: Convergence failed at  49  side 2    Res =  0.8093E+02
 MRCHDU: Convergence failed at  50  side 2    Res =  0.8412E+02
 MRCHDU: Convergence failed at  51  side 2    Res =  0.8709E+02
 MRCHDU: Convergence failed at  52  side 2    Res =  0.8996E+02
 MRCHDU: Convergence failed at  53  side 2    Res =  0.9264E+02
 MRCHDU: Convergence failed at  54  side 2    Res =  0.9523E+02
 MRCHDU: Convergence failed at  55  side 2    Res =  0.9759E+02
 MRCHDU: Convergence failed at  56  side 2    Res =  0.9149E+02
 MRCHDU: Convergence failed at  57  side 2    Res =  0.9349E+02
 MRCHDU: Convergence failed at  58  side 2    Res =  0.9536E+02
 MRCHDU: Convergence failed at  59  side 2    Res =  0.9722E+02
 MRCHDU: Convergence failed at  60  side 2    Res =  0.9895E+02
 MRCHDU: Convergence failed at  61  side 2    Res =  0.1006E+03
 MRCHDU: Convergence failed at  62  side 2    Res =  0.1022E+03
 MRCHDU: Convergence failed at  63  side 2    Res =  0.1037E+03
 MRCHDU: Convergence failed at  64  side 2    Res =  0.1049E+03
 MRCHDU: Convergence failed at  65  side 2    Res =  0.8481E+02
 MRCHDU: Convergence failed at  66  side 2    Res =  0.8540E+02
 MRCHDU: Convergence failed at  67  side 2    Res =  0.8586E+02
 MRCHDU: Convergence failed at  68  side 2    Res =  0.8601E+02
 MRCHDU: Convergence failed at  69  side 2    Res =  0.8582E+02
 MRCHDU: Convergence failed at  70  side 2    Res =  0.1054E+03
 MRCHDU: Convergence failed at  71  side 2    Res =  0.1032E+03
 MRCHDU: Convergence failed at  72  side 2    Res =  0.9990E+02
 MRCHDU: Convergence failed at  73  side 2    Res =  0.1004E+03
 MRCHDU: Convergence failed at  74  side 2    Res =  0.4801E+03
 MRCHDU: Convergence failed at  75  side 2    Res =  0.6109E+02
 MRCHDU: Convergence failed at  76  side 2    Res =  0.6194E+02
 MRCHDU: Convergence failed at  77  side 2    Res =  0.3537E+03
 MRCHDU: Convergence failed at  78  side 2    Res =  0.4593E+03
 MRCHDU: Convergence failed at  79  side 2    Res =  0.5622E+03
 MRCHDU: Convergence failed at  80  side 2    Res =  0.3971E+03
 MRCHDU: Convergence failed at  81  side 2    Res =  0.2420E+03
 MRCHDU: Convergence failed at  82  side 2    Res =  0.2393E+03
 MRCHDU: Convergence failed at  83  side 2    Res =  0.2361E+03
 MRCHDU: Convergence failed at  84  side 2    Res =  0.2320E+03
 MRCHDU: Convergence failed at  85  side 2    Res =  0.2267E+03
 MRCHDU: Convergence failed at  86  side 2    Res =  0.2201E+03
 MRCHDU: Convergence failed at  88  side 2    Res =  0.3294E+00
 MRCHDU: Convergence failed at  89  side 2    Res =  0.3259E+00
 MRCHDU: Convergence failed at  90  side 2    Res =  0.3301E+00
 MRCHDU: Convergence failed at  91  side 2    Res =  0.3288E+00
 MRCHDU: Convergence failed at  92  side 2    Res =  0.3341E+00
 MRCHDU: Convergence failed at  93  side 2    Res =  0.3314E+00
 MRCHDU: Convergence failed at  94  side 2    Res =  0.3162E+00
 MRCHDU: Convergence failed at  95  side 2    Res =  0.3039E+00
 MRCHDU: Convergence failed at  96  side 2    Res =  0.2888E+00
 MRCHDU: Convergence failed at  97  side 2    Res =  0.2682E+00
 MRCHDU: Convergence failed at  98  side 2    Res =  0.2369E+00
 MRCHDU: Convergence failed at  99  side 2    Res =  0.1959E+00
 MRCHDU: Convergence failed at 100  side 2    Res =  0.1160E+00
 Side 1  free  transition at x/c =  0.9415   71
 Side 2  free  transition at x/c =  0.0400   21

  44   rms: 0.2626E+01   max: 0.4682E+02   T at   21  2   RLX: 0.017
       a = -4.000      CL = -2.1986
      Cm =  0.5351     CD =  0.00680   =>   CDf =  0.00215    CDp =  0.00465

 MRCHDU: Convergence failed at 101  side 2    Res =  0.3347E+00
 MRCHDU: Convergence failed at 102  side 2    Res =  0.5483E+00
 MRCHDU: Convergence failed at 103  side 2    Res =  0.2158E+00
 Side 1  free  transition at x/c =  0.9444   71
 Side 2  free  transition at x/c =  0.0380   21

  45   rms: 0.1537E+01   max: 0.1847E+02   T at   71  1   RLX: 0.038
       a = -4.000      CL = -1.6388
      Cm =  0.3544     CD =  0.07894   =>   CDf =  0.00272    CDp =  0.07622

 Side 1  free  transition at x/c =  0.9293   70
 Side 2  free  transition at x/c =  0.0428   22
 idif Ue xi dudx           1  0.16280058      3.84402275E-03   42.351616    
 Uenew xinew           2  1.60245933E-02  3.78370285E-04

  46   rms: 0.7645E+01   max: 0.1031E+03   T at   22  2   RLX: 0.015
       a = -4.000      CL = -1.6769
      Cm =  0.3572     CD =  0.09311   =>   CDf =  0.00260    CDp =  0.09051

 Side 1  free  transition at x/c =  0.9131   68
 Side 2  free  transition at x/c =  0.0404   22

  47   rms: 0.2059E+02   max: -.1723E+03   T at   68  1   RLX: 0.003
       a = -4.000      CL = -1.6818
      Cm =  0.3617     CD =  0.10023   =>   CDf =  0.00267    CDp =  0.09756

 Side 1  free  transition at x/c =  0.9272   70
 Side 2  free  transition at x/c =  0.0399   21

  48   rms: 0.9481E+00   max: -.3837E+01   T at   70  1   RLX: 0.130
       a = -4.000      CL = -1.4556
      Cm =  0.3092     CD =  0.09400   =>   CDf =  0.00266    CDp =  0.09133

 Side 1  free  transition at x/c =  0.9467   72
 Side 2  free  transition at x/c =  0.0391   21

  49   rms: 0.7433E+00   max: -.2469E+01   T at   72  1   RLX: 0.203
       a = -4.000      CL = -1.1651
      Cm =  0.2384     CD =  0.10292   =>   CDf =  0.00279    CDp =  0.10013

 Side 1  free  transition at x/c =  0.9635   73
 Side 2  free  transition at x/c =  0.0383   21

  50   rms: 0.7083E+00   max: -.3256E+01   T at   73  1   RLX: 0.154
       a = -4.000      CL = -0.9610
      Cm =  0.1867     CD =  0.11529   =>   CDf =  0.00295    CDp =  0.11234

 Side 1  free  transition at x/c =  0.9837   75
 Side 2  free  transition at x/c =  0.0370   20

  51   rms: 0.5768E+00   max: -.1513E+01   C at  100  2   RLX: 0.330
       a = -4.000      CL = -0.6424
      Cm =  0.1067     CD =  0.09394   =>   CDf =  0.00303    CDp =  0.09091

 Side 1 forced transition at x/c =  1.0000   77
 Side 2  free  transition at x/c =  0.0368   20

  52   rms: 0.4445E+00   max: -.1111E+01   T at  104  2   RLX: 0.450
       a = -4.000      CL = -0.3670
      Cm =  0.0309     CD =  0.08727   =>   CDf =  0.00316    CDp =  0.08411

 Side 1 forced transition at x/c =  1.0000   77
 Side 2  free  transition at x/c =  0.0371   20

  53   rms: 0.3623E+00   max: -.8947E+00   D at  106  2   RLX: 0.559
       a = -4.000      CL = -0.2299
      Cm = -0.0206     CD =  0.08485   =>   CDf =  0.00337    CDp =  0.08148

 Side 1 forced transition at x/c =  1.0000   77
 Side 2  free  transition at x/c =  0.0361   20

  54   rms: 0.4186E+00   max: -.1107E+01   D at  105  2   RLX: 0.452
       a = -4.000      CL = -0.2248
      Cm = -0.0504     CD =  0.09756   =>   CDf =  0.00326    CDp =  0.09430

 Side 1 forced transition at x/c =  1.0000   77
 Side 2  free  transition at x/c =  0.0366   20
 idif Ue xi dudx           1  0.18611075      3.69298458E-03   50.395756    
 Uenew xinew           2  3.77340019E-02  7.48753548E-04

  55   rms: 0.4095E+00   max: -.1894E+01   T at   20  2   RLX: 0.264
       a = -4.000      CL = -0.2273
      Cm = -0.0676     CD =  0.09237   =>   CDf =  0.00303    CDp =  0.08934

 Side 1 forced transition at x/c =  1.0000   76
 Side 2  free  transition at x/c =  0.0445   22

  56   rms: 0.9199E+02   max: 0.2899E+03   D at   40  2   RLX: 0.001
       a = -4.000      CL = -0.1672
      Cm = -0.0708     CD =  0.11062   =>   CDf =  0.00300    CDp =  0.10762

 Side 1  free  transition at x/c =  0.9979   77
 Side 2  free  transition at x/c =  0.0459   21

  57   rms: 0.1234E+01   max: -.1276E+02   T at   21  2   RLX: 0.039
       a = -4.000      CL = -0.1583
      Cm = -0.0675     CD =  0.10778   =>   CDf =  0.00297    CDp =  0.10481

 Side 1  free  transition at x/c =  0.9976   77
 Side 2  free  transition at x/c =  0.0511   21
 idif Ue xi dudx           1  0.21495244      4.37796116E-03   49.098755    
 Uenew xinew           2  7.03943670E-02  1.43373013E-03

  58   rms: 0.1125E+01   max: 0.3292E+01   T at   22  2   RLX: 0.162
       a = -4.000      CL = -0.2526
      Cm = -0.0679     CD =  0.08390   =>   CDf =  0.00298    CDp =  0.08092

 Side 1  free  transition at x/c =  0.9963   76
 Side 2  free  transition at x/c =  0.0573   23

  59   rms: 0.4751E+00   max: 0.5959E+01   T at   23  2   RLX: 0.240
       a = -4.000      CL = -0.2636
      Cm = -0.0641     CD =  0.03630   =>   CDf =  0.00604    CDp =  0.03026

 MRCHDU: Convergence failed at  23  side 2    Res =  0.3961E+02
 MRCHDU: Convergence failed at  24  side 2    Res =  0.6642E+02
 MRCHDU: Convergence failed at  25  side 2    Res =  0.9466E+02
 MRCHDU: Convergence failed at  26  side 2    Res =  0.7843E+02
 MRCHDU: Convergence failed at  27  side 2    Res =  0.4761E+02
 MRCHDU: Convergence failed at  28  side 2    Res =  0.6935E+02
 MRCHDU: Convergence failed at  29  side 2    Res =  0.7436E+02
 MRCHDU: Convergence failed at  30  side 2    Res =  0.1383E+03
 MRCHDU: Convergence failed at  31  side 2    Res =  0.1594E+03
 MRCHDU: Convergence failed at  32  side 2    Res =  0.1802E+03
 MRCHDU: Convergence failed at  33  side 2    Res =  0.2994E+03
 MRCHDU: Convergence failed at  34  side 2    Res =  0.7800E+02
 MRCHDU: Convergence failed at  35  side 2    Res =  0.8972E+02
 MRCHDU: Convergence failed at  36  side 2    Res =  0.8846E+02
 MRCHDU: Convergence failed at  37  side 2    Res =  0.3404E+03
 MRCHDU: Convergence failed at  38  side 2    Res =  0.8008E+02
 MRCHDU: Convergence failed at  39  side 2    Res =  0.8301E+02
 MRCHDU: Convergence failed at  40  side 2    Res =  0.8581E+02
 MRCHDU: Convergence failed at  41  side 2    Res =  0.8722E+02
 MRCHDU: Convergence failed at  42  side 2    Res =  0.1420E+03
 MRCHDU: Convergence failed at  43  side 2    Res =  0.1493E+03
 MRCHDU: Convergence failed at  44  side 2    Res =  0.9052E+02
 MRCHDU: Convergence failed at  45  side 2    Res =  0.9416E+02
 MRCHDU: Convergence failed at  46  side 2    Res =  0.9788E+02
 MRCHDU: Convergence failed at  47  side 2    Res =  0.1016E+03
 MRCHDU: Convergence failed at  48  side 2    Res =  0.1054E+03
 MRCHDU: Convergence failed at  49  side 2    Res =  0.8696E+02
 MRCHDU: Convergence failed at  50  side 2    Res =  0.8993E+02
 MRCHDU: Convergence failed at  51  side 2    Res =  0.9288E+02
 MRCHDU: Convergence failed at  52  side 2    Res =  0.9583E+02
 MRCHDU: Convergence failed at  53  side 2    Res =  0.9879E+02
 MRCHDU: Convergence failed at  54  side 2    Res =  0.1017E+03
 MRCHDU: Convergence failed at  55  side 2    Res =  0.1046E+03
 MRCHDU: Convergence failed at  56  side 2    Res =  0.1074E+03
 MRCHDU: Convergence failed at  57  side 2    Res =  0.1040E+03
 MRCHDU: Convergence failed at  58  side 2    Res =  0.1065E+03
 MRCHDU: Convergence failed at  59  side 2    Res =  0.8968E+02
 MRCHDU: Convergence failed at  60  side 2    Res =  0.9149E+02
 MRCHDU: Convergence failed at  61  side 2    Res =  0.9324E+02
 MRCHDU: Convergence failed at  62  side 2    Res =  0.9500E+02
 MRCHDU: Convergence failed at  63  side 2    Res =  0.9670E+02
 MRCHDU: Convergence failed at  64  side 2    Res =  0.9829E+02
 MRCHDU: Convergence failed at  65  side 2    Res =  0.9981E+02
 MRCHDU: Convergence failed at  66  side 2    Res =  0.1013E+03
 MRCHDU: Convergence failed at  67  side 2    Res =  0.1028E+03
 MRCHDU: Convergence failed at  68  side 2    Res =  0.1042E+03
 MRCHDU: Convergence failed at  69  side 2    Res =  0.1055E+03
 MRCHDU: Convergence failed at  70  side 2    Res =  0.1067E+03
 MRCHDU: Convergence failed at  71  side 2    Res =  0.1078E+03
 MRCHDU: Convergence failed at  72  side 2    Res =  0.1088E+03
 MRCHDU: Convergence failed at  73  side 2    Res =  0.1095E+03
 MRCHDU: Convergence failed at  74  side 2    Res =  0.1100E+03
 MRCHDU: Convergence failed at  75  side 2    Res =  0.1104E+03
 MRCHDU: Convergence failed at  76  side 2    Res =  0.1104E+03
 MRCHDU: Convergence failed at  77  side 2    Res =  0.1100E+03
 MRCHDU: Convergence failed at  78  side 2    Res =  0.1088E+03
 MRCHDU: Convergence failed at  79  side 2    Res =  0.1062E+03
 MRCHDU: Convergence failed at  80  side 2    Res =  0.1222E+03
 MRCHDU: Convergence failed at  81  side 2    Res =  0.2806E+03
 MRCHDU: Convergence failed at  82  side 2    Res =  0.1185E+03
 MRCHDU: Convergence failed at  83  side 2    Res =  0.1098E+03
 MRCHDU: Convergence failed at  84  side 2    Res =  0.1020E+03
 MRCHDU: Convergence failed at  85  side 2    Res =  0.2104E+03
 MRCHDU: Convergence failed at  86  side 2    Res =  0.2238E+03
 MRCHDU: Convergence failed at  96  side 2    Res =  0.5981E+01
 MRCHDU: Convergence failed at  97  side 2    Res =  0.3816E+01
 MRCHDU: Convergence failed at  98  side 2    Res =  0.2967E+01
 MRCHDU: Convergence failed at  99  side 2    Res =  0.2528E+01
 MRCHDU: Convergence failed at 100  side 2    Res =  0.2260E+01
 MRCHDU: Convergence failed at 101  side 2    Res =  0.2135E+01
 MRCHDU: Convergence failed at 102  side 2    Res =  0.1628E+01
 MRCHDU: Convergence failed at 103  side 2    Res =  0.1113E+01
 Side 1  free  transition at x/c =  0.9983   76
 Side 2  free  transition at x/c =  0.0444   22

  60   rms: 0.1231E+01   max: 0.2243E+02   T at   22  2   RLX: 0.067
       a = -4.000      CL = -1.7423
      Cm =  0.4105     CD =  0.01431   =>   CDf =  0.00263    CDp =  0.01169

 Side 1 forced transition at x/c =  1.0000   76
 Side 2  free  transition at x/c =  0.0400   21

  61   rms: 0.1184E+01   max: -.5776E+01   T at   22  2   RLX: 0.087
       a = -4.000      CL = -1.2285
      Cm =  0.2495     CD =  0.07592   =>   CDf =  0.00291    CDp =  0.07301

 Side 1 forced transition at x/c =  1.0000   76
 Side 2  free  transition at x/c =  0.0389   21

  62   rms: 0.8778E+00   max: -.3341E+01   D at   74  1   RLX: 0.150
       a = -4.000      CL = -1.0498
      Cm =  0.2051     CD =  0.07317   =>   CDf =  0.00317    CDp =  0.07001

 Side 1 forced transition at x/c =  1.0000   77
 Side 2  free  transition at x/c =  0.0374   20

  63   rms: 0.6265E+00   max: -.1975E+01   T at    2  1   RLX: 0.253
       a = -4.000      CL = -0.7764
      Cm =  0.1311     CD =  0.06899   =>   CDf =  0.00352    CDp =  0.06547

 Side 1 forced transition at x/c =  1.0000   77
 Side 2  free  transition at x/c =  0.0368   20

  64   rms: 0.4797E+00   max: -.1243E+01   T at  107  2   RLX: 0.402
       a = -4.000      CL = -0.4763
      Cm =  0.0522     CD =  0.06597   =>   CDf =  0.00386    CDp =  0.06212

 Side 1 forced transition at x/c =  1.0000   77
 Side 2  free  transition at x/c =  0.0369   20

  65   rms: 0.3962E+00   max: -.1574E+01   D at  105  2   RLX: 0.318
       a = -4.000      CL = -0.3467
      Cm =  0.0121     CD =  0.08298   =>   CDf =  0.00394    CDp =  0.07904

 Side 1 forced transition at x/c =  1.0000   77
 Side 2  free  transition at x/c =  0.0370   20

  66   rms: 0.4007E+00   max: -.1949E+01   D at  105  2   RLX: 0.256
       a = -4.000      CL = -0.2909
      Cm = -0.0103     CD =  0.08550   =>   CDf =  0.00393    CDp =  0.08157

 Side 1 forced transition at x/c =  1.0000   77
 Side 2  free  transition at x/c =  0.0370   20

  67   rms: 0.4004E+00   max: -.1953E+01   D at  105  2   RLX: 0.256
       a = -4.000      CL = -0.2644
      Cm = -0.0265     CD =  0.08083   =>   CDf =  0.00390    CDp =  0.07693

 Side 1 forced transition at x/c =  1.0000   77
 Side 2  free  transition at x/c =  0.0371   20

  68   rms: 0.4333E+00   max: -.2171E+01   D at  105  2   RLX: 0.230
       a = -4.000      CL = -0.2536
      Cm = -0.0399     CD =  0.07551   =>   CDf =  0.00384    CDp =  0.07167

 Side 1 forced transition at x/c =  1.0000   77
 Side 2  free  transition at x/c =  0.0376   20

  69   rms: 0.4709E+00   max: -.2247E+01   D at  105  2   RLX: 0.223
       a = -4.000      CL = -0.2517
      Cm = -0.0514     CD =  0.06875   =>   CDf =  0.00377    CDp =  0.06498

 Side 1 forced transition at x/c =  1.0000   77
 Side 2  free  transition at x/c =  0.0381   20
 idif Ue xi dudx           1  0.18324916      3.52084637E-03   52.046906    
 Uenew xinew           2  3.00110430E-02  5.76615334E-04

  70   rms: 0.5443E+00   max: -.2372E+01   D at  105  2   RLX: 0.211
       a = -4.000      CL = -0.2598
      Cm = -0.0617     CD =  0.05951   =>   CDf =  0.00362    CDp =  0.05589

 Side 1 forced transition at x/c =  1.0000   76
 Side 2  free  transition at x/c =  0.0391   21

  71   rms: 0.7721E+00   max: -.2713E+01   D at  101  2   RLX: 0.184
       a = -4.000      CL = -0.2799
      Cm = -0.0728     CD =  0.04818   =>   CDf =  0.00351    CDp =  0.04466

 Side 1 forced transition at x/c =  1.0000   76
 Side 2  free  transition at x/c =  0.0403   21

  72   rms: 0.1553E+01   max: -.5268E+01   T at   21  2   RLX: 0.095
       a = -4.000      CL = -0.3208
      Cm = -0.0840     CD =  0.04476   =>   CDf =  0.00350    CDp =  0.04126

 Side 1 forced transition at x/c =  1.0000   76
 Side 2  free  transition at x/c =  0.0449   22

  73   rms: 0.1079E+01   max: 0.8156E+01   T at   22  2   RLX: 0.124
       a = -4.000      CL = -0.2984
      Cm = -0.0889     CD =  0.02509   =>   CDf =  0.00562    CDp =  0.01947

 MRCHDU: Convergence failed at  22  side 2    Res =  0.2446E+02
 MRCHDU: Convergence failed at  23  side 2    Res =  0.5665E+02
 MRCHDU: Convergence failed at  24  side 2    Res =  0.1345E+03
 MRCHDU: Convergence failed at  25  side 2    Res =  0.1785E+03
 MRCHDU: Convergence failed at  26  side 2    Res =  0.7407E+02
 MRCHDU: Convergence failed at  27  side 2    Res =  0.1286E+03
 MRCHDU: Convergence failed at  28  side 2    Res =  0.6526E+02
 MRCHDU: Convergence failed at  29  side 2    Res =  0.7633E+02
 MRCHDU: Convergence failed at  30  side 2    Res =  0.8395E+02
 MRCHDU: Convergence failed at  31  side 2    Res =  0.7851E+02
 MRCHDU: Convergence failed at  32  side 2    Res =  0.8280E+02
 MRCHDU: Convergence failed at  33  side 2    Res =  0.7738E+02
 MRCHDU: Convergence failed at  34  side 2    Res =  0.8305E+02
 MRCHDU: Convergence failed at  35  side 2    Res =  0.7057E+02
 MRCHDU: Convergence failed at  36  side 2    Res =  0.7734E+02
 MRCHDU: Convergence failed at  37  side 2    Res =  0.7020E+02
 MRCHDU: Convergence failed at  38  side 2    Res =  0.7728E+02
 MRCHDU: Convergence failed at  39  side 2    Res =  0.8390E+02
 MRCHDU: Convergence failed at  40  side 2    Res =  0.9062E+02
 MRCHDU: Convergence failed at  41  side 2    Res =  0.7082E+02
 MRCHDU: Convergence failed at  42  side 2    Res =  0.8292E+02
 MRCHDU: Convergence failed at  43  side 2    Res =  0.8879E+02
 MRCHDU: Convergence failed at  44  side 2    Res =  0.9504E+02
 MRCHDU: Convergence failed at  45  side 2    Res =  0.7130E+02
 MRCHDU: Convergence failed at  46  side 2    Res =  0.1010E+03
 MRCHDU: Convergence failed at  47  side 2    Res =  0.1142E+03
 MRCHDU: Convergence failed at  48  side 2    Res =  0.9040E+02
 MRCHDU: Convergence failed at  49  side 2    Res =  0.1036E+03
 MRCHDU: Convergence failed at  50  side 2    Res =  0.1178E+03
 MRCHDU: Convergence failed at  51  side 2    Res =  0.1376E+03
 MRCHDU: Convergence failed at  52  side 2    Res =  0.4178E+03
 MRCHDU: Convergence failed at  53  side 2    Res =  0.4669E+03
 MRCHDU: Convergence failed at  54  side 2    Res =  0.4890E+03
 MRCHDU: Convergence failed at  55  side 2    Res =  0.4904E+03
 MRCHDU: Convergence failed at  56  side 2    Res =  0.2395E+03
 MRCHDU: Convergence failed at  57  side 2    Res =  0.2434E+03
 MRCHDU: Convergence failed at  58  side 2    Res =  0.2476E+03
 MRCHDU: Convergence failed at  59  side 2    Res =  0.2519E+03
 MRCHDU: Convergence failed at  60  side 2    Res =  0.2567E+03
 MRCHDU: Convergence failed at  61  side 2    Res =  0.2617E+03
 MRCHDU: Convergence failed at  62  side 2    Res =  0.2669E+03
 MRCHDU: Convergence failed at  63  side 2    Res =  0.2724E+03
 MRCHDU: Convergence failed at  64  side 2    Res =  0.2785E+03
 MRCHDU: Convergence failed at  65  side 2    Res =  0.2844E+03
 MRCHDU: Convergence failed at  66  side 2    Res =  0.2906E+03
 MRCHDU: Convergence failed at  67  side 2    Res =  0.2968E+03
 MRCHDU: Convergence failed at  68  side 2    Res =  0.3034E+03
 MRCHDU: Convergence failed at  69  side 2    Res =  0.3098E+03
 MRCHDU: Convergence failed at  70  side 2    Res =  0.3161E+03
 MRCHDU: Convergence failed at  71  side 2    Res =  0.3223E+03
 MRCHDU: Convergence failed at  72  side 2    Res =  0.3286E+03
 MRCHDU: Convergence failed at  73  side 2    Res =  0.3344E+03
 MRCHDU: Convergence failed at  74  side 2    Res =  0.5013E+03
 MRCHDU: Convergence failed at  75  side 2    Res =  0.4950E+03
 MRCHDU: Convergence failed at  76  side 2    Res =  0.2669E+03
 MRCHDU: Convergence failed at  77  side 2    Res =  0.3458E+03
 MRCHDU: Convergence failed at  78  side 2    Res =  0.2245E+03
 MRCHDU: Convergence failed at  79  side 2    Res =  0.2236E+03
 MRCHDU: Convergence failed at  80  side 2    Res =  0.2238E+03
 MRCHDU: Convergence failed at  81  side 2    Res =  0.4283E+03
 MRCHDU: Convergence failed at  82  side 2    Res =  0.3809E+03
 MRCHDU: Convergence failed at  83  side 2    Res =  0.3344E+03
 MRCHDU: Convergence failed at  84  side 2    Res =  0.1758E+04
 MRCHDU: Convergence failed at  85  side 2    Res =  0.7083E+03
 MRCHDU: Convergence failed at  86  side 2    Res =  0.2528E+03
 Side 1 forced transition at x/c =  1.0000   76
 Side 2  free  transition at x/c =  0.0371   21

  74   rms: 0.1428E+01   max: 0.8675E+01   D at   88  2   RLX: 0.173
       a = -4.000      CL = -1.9905
      Cm =  0.4688     CD =  0.00971   =>   CDf =  0.00267    CDp =  0.00704

 Side 1 forced transition at x/c =  1.0000   76
 Side 2  free  transition at x/c =  0.0350   21

  75   rms: 0.7863E+00   max: -.3157E+01   D at   74  1   RLX: 0.158
       a = -4.000      CL = -1.1913
      Cm =  0.2235     CD =  0.06702   =>   CDf =  0.00324    CDp =  0.06379

 Side 1 forced transition at x/c =  1.0000   76
 Side 2  free  transition at x/c =  0.0341   21

  76   rms: 0.9348E+00   max: -.6882E+01   T at   21  2   RLX: 0.073
       a = -4.000      CL = -1.0945
      Cm =  0.2006     CD =  0.08688   =>   CDf =  0.00359    CDp =  0.08329

 Side 1 forced transition at x/c =  1.0000   76
 Side 2  free  transition at x/c =  0.0372   21

  77   rms: 0.5533E+00   max: -.1256E+01   D at  108  2   RLX: 0.398
       a = -4.000      CL = -0.7003
      Cm =  0.1013     CD =  0.04726   =>   CDf =  0.00369    CDp =  0.04356

 MRCHDU: Convergence failed at  97  side 2    Res =  0.1144E+01
 MRCHDU: Convergence failed at  98  side 2    Res =  0.5380E+01
 MRCHDU: Convergence failed at  99  side 2    Res =  0.2773E+01
 MRCHDU: Convergence failed at 100  side 2    Res =  0.2334E+01
 MRCHDU: Convergence failed at 101  side 2    Res =  0.2691E+01
 MRCHDU: Convergence failed at 102  side 2    Res =  0.5547E+01
 MRCHDU: Convergence failed at 103  side 2    Res =  0.3067E+01
 MRCHDU: Convergence failed at 104  side 2    Res =  0.1855E+01
 Side 1 forced transition at x/c =  1.0000   77
 Side 2  free  transition at x/c =  0.0379   20

  78   rms: 0.4427E+00   max: -.1219E+01   D at  107  2   RLX: 0.410
       a = -4.000      CL = -0.4263
      Cm =  0.0287     CD =  0.05453   =>   CDf =  0.00394    CDp =  0.05059

 Side 1 forced transition at x/c =  1.0000   77
 Side 2  free  transition at x/c =  0.0373   20

  79   rms: 0.3922E+00   max: -.1305E+01   D at  104  2   RLX: 0.383
       a = -4.000      CL = -0.2903
      Cm = -0.0133     CD =  0.05840   =>   CDf =  0.00388    CDp =  0.05451

 Side 1 forced transition at x/c =  1.0000   77
 Side 2  free  transition at x/c =  0.0368   20

  80   rms: 0.3961E+00   max: -.1417E+01   D at  102  2   RLX: 0.353
       a = -4.000      CL = -0.2429
      Cm = -0.0397     CD =  0.06055   =>   CDf =  0.00375    CDp =  0.05680

 Side 1 forced transition at x/c =  1.0000   77
 Side 2  free  transition at x/c =  0.0366   20
 idif Ue xi dudx           1  0.16002163      3.08430195E-03   51.882610    
 Uenew xinew           2  7.26724463E-03  1.40070915E-04

  81   rms: 0.4601E+00   max: -.1562E+01   D at  102  2   RLX: 0.320
       a = -4.000      CL = -0.2373
      Cm = -0.0581     CD =  0.05655   =>   CDf =  0.00356    CDp =  0.05298

 Side 1 forced transition at x/c =  1.0000   76
 Side 2  free  transition at x/c =  0.0374   21

  82   rms: 0.6410E+00   max: 0.3589E+01   D at    2  2   RLX: 0.275
       a = -4.000      CL = -0.2664
      Cm = -0.0717     CD =  0.04715   =>   CDf =  0.00338    CDp =  0.04377

 Side 1 forced transition at x/c =  1.0000   76
 Side 2  free  transition at x/c =  0.0422   22
 idif Ue xi dudx           1  0.17392875      3.79395485E-03   45.843655    
 Uenew xinew           2  1.50505807E-02  3.28302383E-04

  83   rms: 0.2271E+02   max: 0.7554E+02   T at   22  2   RLX: 0.008
       a = -4.000      CL = -0.3113
      Cm = -0.0906     CD =  0.04464   =>   CDf =  0.00339    CDp =  0.04125

 MRCHDU: Convergence failed at  56  side 2    Res =  0.1209E+01
 MRCHDU: Convergence failed at  57  side 2    Res =  0.1691E+01
 MRCHDU: Convergence failed at  58  side 2    Res =  0.1514E+01
 MRCHDU: Convergence failed at  60  side 2    Res =  0.1992E+01
 MRCHDU: Convergence failed at  61  side 2    Res =  0.1621E+01
 MRCHDU: Convergence failed at  62  side 2    Res =  0.1366E+01
 MRCHDU: Convergence failed at  63  side 2    Res =  0.1151E+01
 MRCHDU: Convergence failed at  64  side 2    Res =  0.1016E+01
 MRCHDU: Convergence failed at  65  side 2    Res =  0.9734E+00
 MRCHDU: Convergence failed at  66  side 2    Res =  0.1032E+01
 Side 1 forced transition at x/c =  1.0000   75
 Side 2  free  transition at x/c =  0.0409   22

  84   rms: 0.5135E+00   max: 0.5876E+01   T at   22  2   RLX: 0.137
       a = -4.000      CL = -0.4304
      Cm = -0.0560     CD =  0.04027   =>   CDf =  0.00353    CDp =  0.03674

 Side 1 forced transition at x/c =  1.0000   75
 Side 2  free  transition at x/c =  0.0424   23

  85   rms: 0.6363E+01   max: 0.2714E+02   T at   23  2   RLX: 0.033
       a = -4.000      CL = -0.4845
      Cm = -0.0674     CD =  0.03380   =>   CDf =  0.00321    CDp =  0.03059

 MRCHDU: Convergence failed at  23  side 2    Res =  0.1541E+02
 MRCHDU: Convergence failed at  24  side 2    Res =  0.7296E+02
 MRCHDU: Convergence failed at  25  side 2    Res =  0.1023E+03
 MRCHDU: Convergence failed at  26  side 2    Res =  0.6844E+02
 MRCHDU: Convergence failed at  27  side 2    Res =  0.5625E+03
 MRCHDU: Convergence failed at  28  side 2    Res =  0.6876E+03
 MRCHDU: Convergence failed at  29  side 2    Res =  0.5154E+02
 MRCHDU: Convergence failed at  30  side 2    Res =  0.1491E+03
 MRCHDU: Convergence failed at  31  side 2    Res =  0.6619E+02
 MRCHDU: Convergence failed at  32  side 2    Res =  0.8630E+02
 MRCHDU: Convergence failed at  33  side 2    Res =  0.8123E+02
 MRCHDU: Convergence failed at  34  side 2    Res =  0.6248E+02
 MRCHDU: Convergence failed at  35  side 2    Res =  0.7935E+02
 MRCHDU: Convergence failed at  36  side 2    Res =  0.1323E+03
 MRCHDU: Convergence failed at  37  side 2    Res =  0.8199E+02
 MRCHDU: Convergence failed at  38  side 2    Res =  0.9211E+02
 MRCHDU: Convergence failed at  39  side 2    Res =  0.9705E+02
 MRCHDU: Convergence failed at  40  side 2    Res =  0.8623E+02
 MRCHDU: Convergence failed at  41  side 2    Res =  0.1542E+03
 MRCHDU: Convergence failed at  42  side 2    Res =  0.1342E+03
 MRCHDU: Convergence failed at  43  side 2    Res =  0.1536E+03
 MRCHDU: Convergence failed at  44  side 2    Res =  0.1833E+03
 MRCHDU: Convergence failed at  45  side 2    Res =  0.2080E+03
 MRCHDU: Convergence failed at  46  side 2    Res =  0.1901E+03
 MRCHDU: Convergence failed at  47  side 2    Res =  0.2024E+03
 MRCHDU: Convergence failed at  48  side 2    Res =  0.8867E+03
 MRCHDU: Convergence failed at  49  side 2    Res =  0.6554E+03
 MRCHDU: Convergence failed at  50  side 2    Res =  0.9605E+03
 MRCHDU: Convergence failed at  51  side 2    Res =  0.7440E+03
 MRCHDU: Convergence failed at  52  side 2    Res =  0.6299E+03
 MRCHDU: Convergence failed at  53  side 2    Res =  0.5502E+03
 MRCHDU: Convergence failed at  54  side 2    Res =  0.5076E+03
 MRCHDU: Convergence failed at  55  side 2    Res =  0.2911E+03
 MRCHDU: Convergence failed at  56  side 2    Res =  0.2816E+03
 MRCHDU: Convergence failed at  57  side 2    Res =  0.2128E+03
 MRCHDU: Convergence failed at  58  side 2    Res =  0.1280E+03
 MRCHDU: Convergence failed at  59  side 2    Res =  0.5790E+03
 MRCHDU: Convergence failed at  60  side 2    Res =  0.5297E+03
 MRCHDU: Convergence failed at  61  side 2    Res =  0.5427E+03
 MRCHDU: Convergence failed at  62  side 2    Res =  0.2331E+03
 MRCHDU: Convergence failed at  63  side 2    Res =  0.2304E+03
 MRCHDU: Convergence failed at  64  side 2    Res =  0.2293E+03
 MRCHDU: Convergence failed at  65  side 2    Res =  0.2315E+03
 MRCHDU: Convergence failed at  66  side 2    Res =  0.2417E+03
 MRCHDU: Convergence failed at  67  side 2    Res =  0.2676E+03
 MRCHDU: Convergence failed at  68  side 2    Res =  0.3890E+03
 MRCHDU: Convergence failed at  69  side 2    Res =  0.2212E+03
 MRCHDU: Convergence failed at  70  side 2    Res =  0.2045E+03
 MRCHDU: Convergence failed at  71  side 2    Res =  0.5149E+03
 MRCHDU: Convergence failed at  72  side 2    Res =  0.1937E+03
 MRCHDU: Convergence failed at  73  side 2    Res =  0.2023E+03
 MRCHDU: Convergence failed at  74  side 2    Res =  0.4505E+03
 MRCHDU: Convergence failed at  75  side 2    Res =  0.7188E+03
 MRCHDU: Convergence failed at  76  side 2    Res =  0.2517E+04
 MRCHDU: Convergence failed at  77  side 2    Res =  0.7529E+03
 MRCHDU: Convergence failed at  78  side 2    Res =  0.7564E+03
 MRCHDU: Convergence failed at  79  side 2    Res =  0.2097E+03
 MRCHDU: Convergence failed at  80  side 2    Res =  0.7514E+03
 MRCHDU: Convergence failed at  81  side 2    Res =  0.7466E+03
 MRCHDU: Convergence failed at  82  side 2    Res =  0.7339E+03
 MRCHDU: Convergence failed at  83  side 2    Res =  0.7035E+03
 MRCHDU: Convergence failed at  84  side 2    Res =  0.6498E+03
 MRCHDU: Convergence failed at  85  side 2    Res =  0.5732E+03
 MRCHDU: Convergence failed at  86  side 2    Res =  0.4818E+03
 MRCHDU: Convergence failed at  87  side 2    Res =  0.3666E+03
 MRCHDU: Convergence failed at  89  side 2    Res =  0.3645E+00
 Side 1 forced transition at x/c =  1.0000   75
 Side 2  free  transition at x/c =  0.0390   22

  86   rms: 0.1787E+01   max: 0.1089E+02   D at   90  2   RLX: 0.138
       a = -4.000      CL = -2.7412
      Cm =  0.6591     CD =  0.00730   =>   CDf =  0.00213    CDp =  0.00518

 Side 1 forced transition at x/c =  1.0000   75
 Side 2  free  transition at x/c =  0.0359   22

  87   rms: 0.1286E+01   max: 0.7279E+01   T at   22  2   RLX: 0.107
       a = -4.000      CL = -1.7997
      Cm =  0.3718     CD =  0.05842   =>   CDf =  0.00290    CDp =  0.05552

 Side 1 forced transition at x/c =  1.0000   75
 Side 2  free  transition at x/c =  0.0322   21

  88   rms: 0.9006E+00   max: -.2992E+01   D at   73  1   RLX: 0.167
       a = -4.000      CL = -1.4877
      Cm =  0.2936     CD =  0.07315   =>   CDf =  0.00342    CDp =  0.06974

 Side 1 forced transition at x/c =  1.0000   76
 Side 2  free  transition at x/c =  0.0321   20

  89   rms: 0.6799E+00   max: -.1408E+01   C at  108  2   RLX: 0.355
       a = -4.000      CL = -0.9740
      Cm =  0.1620     CD =  0.06631   =>   CDf =  0.00371    CDp =  0.06259

 MRCHDU: Convergence failed at 101  side 2    Res =  0.3699E+03
 MRCHDU: Convergence failed at 102  side 2    Res =  0.1727E+01
 MRCHDU: Convergence failed at 103  side 2    Res =  0.5401E+01
 MRCHDU: Convergence failed at 104  side 2    Res =  0.1914E+01
 Side 1 forced transition at x/c =  1.0000   76
 Side 2  free  transition at x/c =  0.0325   21

  90   rms: 0.5256E+00   max: -.1152E+01   T at  108  2   RLX: 0.434
       a = -4.000      CL = -0.5579
      Cm =  0.0554     CD =  0.06325   =>   CDf =  0.00407    CDp =  0.05917

 Side 1 forced transition at x/c =  1.0000   77
 Side 2  free  transition at x/c =  0.0339   20

  91   rms: 0.4712E+00   max: -.2681E+01   T at   20  2   RLX: 0.186
       a = -4.000      CL = -0.5004
      Cm =  0.0402     CD =  0.11354   =>   CDf =  0.00404    CDp =  0.10950

 Side 1 forced transition at x/c =  1.0000   77
 Side 2  free  transition at x/c =  0.0369   20

  92   rms: 0.3981E+00   max: -.1638E+01   D at  106  2   RLX: 0.305
       a = -4.000      CL = -0.4001
      Cm =  0.0120     CD =  0.08465   =>   CDf =  0.00402    CDp =  0.08064

 Side 1 forced transition at x/c =  1.0000   77
 Side 2  free  transition at x/c =  0.0374   20

  93   rms: 0.3979E+00   max: -.1866E+01   D at  106  2   RLX: 0.268
       a = -4.000      CL = -0.3386
      Cm = -0.0128     CD =  0.08692   =>   CDf =  0.00396    CDp =  0.08295

 Side 1 forced transition at x/c =  1.0000   77
 Side 2  free  transition at x/c =  0.0379   20

  94   rms: 0.4205E+00   max: -.1953E+01   D at  105  2   RLX: 0.256
       a = -4.000      CL = -0.3080
      Cm = -0.0315     CD =  0.07780   =>   CDf =  0.00389    CDp =  0.07391

 Side 1 forced transition at x/c =  1.0000   77
 Side 2  free  transition at x/c =  0.0385   20
 idif Ue xi dudx           1  0.15844512      3.04400921E-03   52.051460    
 Uenew xinew           2  5.19359950E-03  9.97781754E-05

  95   rms: 0.4643E+00   max: -.2040E+01   D at  105  2   RLX: 0.245
       a = -4.000      CL = -0.2911
      Cm = -0.0471     CD =  0.06794   =>   CDf =  0.00376    CDp =  0.06418

 Side 1 forced transition at x/c =  1.0000   76
 Side 2  free  transition at x/c =  0.0390   21

  96   rms: 0.6183E+00   max: 0.4101E+01   D at    2  2   RLX: 0.226
       a = -4.000      CL = -0.2873
      Cm = -0.0619     CD =  0.05753   =>   CDf =  0.00365    CDp =  0.05388

 Side 1 forced transition at x/c =  1.0000   76
 Side 2  free  transition at x/c =  0.0396   21

  97   rms: 0.1355E+01   max: -.3811E+01   D at   41  2   RLX: 0.131
       a = -4.000      CL = -0.2992
      Cm = -0.0814     CD =  0.04521   =>   CDf =  0.00351    CDp =  0.04170

 Side 1 forced transition at x/c =  1.0000   76
 Side 2  free  transition at x/c =  0.0403   21

  98   rms: 0.1431E+02   max: 0.7294E+02   T at   21  2   RLX: 0.008
       a = -4.000      CL = -0.2826
      Cm = -0.0695     CD =  0.06172   =>   CDf =  0.00361    CDp =  0.05811

 Side 1 forced transition at x/c =  1.0000   76
 Side 2  free  transition at x/c =  0.0386   21

  99   rms: 0.1666E+01   max: -.4872E+01   D at   47  2   RLX: 0.103
       a = -4.000      CL = -0.3747
      Cm = -0.0757     CD =  0.04489   =>   CDf =  0.00360    CDp =  0.04129

 MRCHDU: Convergence failed at  51  side 2    Res =  0.5534E+02
 MRCHDU: Convergence failed at  52  side 2    Res =  0.1141E+02
 MRCHDU: Convergence failed at  53  side 2    Res =  0.3588E+01
 MRCHDU: Convergence failed at  54  side 2    Res =  0.1925E+01
 MRCHDU: Convergence failed at  55  side 2    Res =  0.1267E+01
 MRCHDU: Convergence failed at  56  side 2    Res =  0.1152E+01
 MRCHDU: Convergence failed at  57  side 2    Res =  0.2205E+01
 MRCHDU: Convergence failed at  58  side 2    Res =  0.2088E+01
 MRCHDU: Convergence failed at  59  side 2    Res =  0.8974E+00
 Side 1 forced transition at x/c =  1.0000   76
 Side 2  free  transition at x/c =  0.0402   21
 idif Ue xi dudx           1  0.17906643      3.89647484E-03   45.956009    
 Uenew xinew           2  1.97988767E-02  4.30822372E-04

 100   rms: 0.1053E+01   max: -.3771E+01   D at   60  2   RLX: 0.133
       a = -4.000      CL = -0.4974
      Cm = -0.0480     CD =  0.04547   =>   CDf =  0.00361    CDp =  0.04187

 Side 1 forced transition at x/c =  1.0000   75
 Side 2  free  transition at x/c =  0.0409   22

 101   rms: 0.5967E+00   max: -.1938E+01   T at   23  2   RLX: 0.258
       a = -4.000      CL = -0.3915
      Cm = -0.0539     CD =  0.04670   =>   CDf =  0.00389    CDp =  0.04281

 Side 1 forced transition at x/c =  1.0000   76
 Side 2  free  transition at x/c =  0.0403   21
 idif Ue xi dudx           1  0.20088476      4.53948975E-03   44.252716    
 Uenew xinew           2  4.75202166E-02  1.07383728E-03

 102   rms: 0.4043E+02   max: 0.1145E+03   T at   22  2   RLX: 0.004
       a = -4.000      CL = -0.5217
      Cm = -0.0548     CD =  0.04693   =>   CDf =  0.00341    CDp =  0.04352

 MRCHDU: Convergence failed at 107  side 2    Res =  0.1038E+00
 MRCHDU: Convergence failed at 108  side 2    Res =  0.1673E+00
 MRCHDU: Convergence failed at 109  side 2    Res =  0.4039E-01
 Side 1 forced transition at x/c =  1.0000   75
 Side 2  free  transition at x/c =  0.0453   23

 103   rms: 0.8334E+01   max: 0.6308E+02   T at   23  2   RLX: 0.021
       a = -4.000      CL = -0.5604
      Cm = -0.0694     CD =  0.03386   =>   CDf =  0.00439    CDp =  0.02947

 MRCHDU: Convergence failed at  23  side 2    Res =  0.2334E+02
 MRCHDU: Convergence failed at  24  side 2    Res =  0.6920E+02
 MRCHDU: Convergence failed at  25  side 2    Res =  0.8609E+02
 MRCHDU: Convergence failed at  26  side 2    Res =  0.6149E+02
 MRCHDU: Convergence failed at  27  side 2    Res =  0.2165E+03
 MRCHDU: Convergence failed at  28  side 2    Res =  0.1416E+03
 MRCHDU: Convergence failed at  29  side 2    Res =  0.1817E+03
 MRCHDU: Convergence failed at  30  side 2    Res =  0.6926E+02
 MRCHDU: Convergence failed at  31  side 2    Res =  0.2309E+03
 MRCHDU: Convergence failed at  32  side 2    Res =  0.5406E+02
 MRCHDU: Convergence failed at  33  side 2    Res =  0.7937E+03
 MRCHDU: Convergence failed at  34  side 2    Res =  0.1378E+03
 MRCHDU: Convergence failed at  35  side 2    Res =  0.7155E+02
 MRCHDU: Convergence failed at  36  side 2    Res =  0.5982E+02
 MRCHDU: Convergence failed at  37  side 2    Res =  0.7059E+02
 MRCHDU: Convergence failed at  38  side 2    Res =  0.1119E+03
 MRCHDU: Convergence failed at  39  side 2    Res =  0.9182E+02
 MRCHDU: Convergence failed at  40  side 2    Res =  0.1022E+03
 MRCHDU: Convergence failed at  41  side 2    Res =  0.6600E+02
 MRCHDU: Convergence failed at  42  side 2    Res =  0.8872E+02
 MRCHDU: Convergence failed at  43  side 2    Res =  0.9192E+02
 MRCHDU: Convergence failed at  44  side 2    Res =  0.9845E+02
 MRCHDU: Convergence failed at  45  side 2    Res =  0.7202E+02
 MRCHDU: Convergence failed at  46  side 2    Res =  0.9089E+02
 MRCHDU: Convergence failed at  47  side 2    Res =  0.9358E+02
 MRCHDU: Convergence failed at  48  side 2    Res =  0.1005E+03
 MRCHDU: Convergence failed at  49  side 2    Res =  0.8439E+02
 MRCHDU: Convergence failed at  50  side 2    Res =  0.1068E+03
 MRCHDU: Convergence failed at  51  side 2    Res =  0.2819E+03
 MRCHDU: Convergence failed at  52  side 2    Res =  0.2855E+03
 MRCHDU: Convergence failed at  53  side 2    Res =  0.1880E+03
 MRCHDU: Convergence failed at  54  side 2    Res =  0.3122E+03
 MRCHDU: Convergence failed at  55  side 2    Res =  0.3858E+03
 MRCHDU: Convergence failed at  56  side 2    Res =  0.1221E+03
 MRCHDU: Convergence failed at  57  side 2    Res =  0.1225E+03
 MRCHDU: Convergence failed at  58  side 2    Res =  0.1225E+03
 MRCHDU: Convergence failed at  59  side 2    Res =  0.1223E+03
 MRCHDU: Convergence failed at  60  side 2    Res =  0.1221E+03
 MRCHDU: Convergence failed at  61  side 2    Res =  0.7121E+02
 MRCHDU: Convergence failed at  62  side 2    Res =  0.1058E+03
 MRCHDU: Convergence failed at  63  side 2    Res =  0.1326E+04
 MRCHDU: Convergence failed at  64  side 2    Res =  0.1271E+04
 MRCHDU: Convergence failed at  65  side 2    Res =  0.7592E+03
 MRCHDU: Convergence failed at  66  side 2    Res =  0.5553E+03
 MRCHDU: Convergence failed at  67  side 2    Res =  0.6630E+03
 MRCHDU: Convergence failed at  68  side 2    Res =  0.8547E+03
 MRCHDU: Convergence failed at  69  side 2    Res =  0.1437E+04
 MRCHDU: Convergence failed at  70  side 2    Res =  0.1920E+03
 MRCHDU: Convergence failed at  71  side 2    Res =  0.1278E+04
 MRCHDU: Convergence failed at  72  side 2    Res =  0.1343E+04
 MRCHDU: Convergence failed at  73  side 2    Res =  0.1495E+05
 MRCHDU: Convergence failed at  74  side 2    Res =  0.1395E+04
 MRCHDU: Convergence failed at  75  side 2    Res =  0.1426E+04
 MRCHDU: Convergence failed at  76  side 2    Res =  0.1865E+03
 MRCHDU: Convergence failed at  77  side 2    Res =  0.1512E+04
 MRCHDU: Convergence failed at  78  side 2    Res =  0.2226E+04
 MRCHDU: Convergence failed at  79  side 2    Res =  0.1517E+04
 MRCHDU: Convergence failed at  80  side 2    Res =  0.1414E+04
 MRCHDU: Convergence failed at  81  side 2    Res =  0.2251E+04
 MRCHDU: Convergence failed at  82  side 2    Res =  0.3379E+03
 MRCHDU: Convergence failed at  83  side 2    Res =  0.4347E+03
 MRCHDU: Convergence failed at  84  side 2    Res =  0.1951E+03
 MRCHDU: Convergence failed at  85  side 2    Res =  0.1934E+03
 MRCHDU: Convergence failed at  86  side 2    Res =  0.1915E+03
 MRCHDU: Convergence failed at  87  side 2    Res =  0.1867E+03
 Side 1 forced transition at x/c =  1.0000   75
 Side 2  free  transition at x/c =  0.0387   22

 104   rms: 0.1560E+01   max: -.9298E+01   D at  107  2   RLX: 0.054
       a = -4.000      CL = -3.1568
      Cm =  0.7616     CD =  0.00760   =>   CDf =  0.00234    CDp =  0.00526

 Side 1 forced transition at x/c =  1.0000   75
 Side 2  free  transition at x/c =  0.0372   22

[...]
 Calculating wake trajectory ...
 Calculating source influence matrix ...

 Solving BL system ...

 Side 1  free  transition at x/c =  0.0228   24
 Side 2 forced transition at x/c =  1.0000   68

   1   rms: 0.3503E-01   max: 0.1005E+00   D at   65  1   RLX: 0.697
       a = 13.250      CL =  1.2083
      Cm = -0.0193     CD =  0.04982   =>   CDf =  0.00582    CDp =  0.04400

 Side 1  free  transition at x/c =  0.0225   24
 Side 2 forced transition at x/c =  1.0000   68

   2   rms: 0.1257E-01   max: 0.4956E-01   D at   69  1
       a = 13.250      CL =  1.2047
      Cm = -0.0193     CD =  0.05126   =>   CDf =  0.00568    CDp =  0.04558

 Side 1  free  transition at x/c =  0.0225   24
 Side 2 forced transition at x/c =  1.0000   68

   3   rms: 0.2024E-02   max: 0.1514E-01   D at   84  2
       a = 13.250      CL =  1.2034
      Cm = -0.0193     CD =  0.05117   =>   CDf =  0.00562    CDp =  0.04555

 Side 1  free  transition at x/c =  0.0225   24
 Side 2 forced transition at x/c =  1.0000   68

   4   rms: 0.1656E-03   max: 0.8794E-03   D at   84  2
       a = 13.250      CL =  1.2035
      Cm = -0.0193     CD =  0.05114   =>   CDf =  0.00563    CDp =  0.04551

 Side 1  free  transition at x/c =  0.0225   24
 Side 2 forced transition at x/c =  1.0000   68

   5   rms: 0.9154E-05   max: 0.6529E-04   D at   89  2
       a = 13.250      CL =  1.2035
      Cm = -0.0193     CD =  0.05114   =>   CDf =  0.00563    CDp =  0.04551
 plradd ia,ip,cpol           42           0  2.86187802E-04

 Point added to stored polar  1
 Point written to save file  sd7037_Re200k.base.pol                          
 Dump file unspecified or not available
 Calculating wake trajectory ...
 Calculating source influence matrix ...

 Solving BL system ...

 Side 1  free  transition at x/c =  0.0225   24
 Side 2 forced transition at x/c =  1.0000   68

   1   rms: 0.3555E-01   max: 0.1071E+00   D at   63  1   RLX: 0.666
       a = 13.500      CL =  1.2028
      Cm = -0.0192     CD =  0.05430   =>   CDf =  0.00563    CDp =  0.04867

 Side 1  free  transition at x/c =  0.0223   24
 Side 2 forced transition at x/c =  1.0000   68

   2   rms: 0.1428E-01   max: 0.5433E-01   D at   68  1
       a = 13.500      CL =  1.1984
      Cm = -0.0192     CD =  0.05603   =>   CDf =  0.00549    CDp =  0.05054

 Side 1  free  transition at x/c =  0.0222   24
 Side 2 forced transition at x/c =  1.0000   68

   3   rms: 0.2086E-02   max: 0.1137E-01   D at   85  2
       a = 13.500      CL =  1.1971
      Cm = -0.0192     CD =  0.05590   =>   CDf =  0.00542    CDp =  0.05048

 Side 1  free  transition at x/c =  0.0223   24
 Side 2 forced transition at x/c =  1.0000   68

   4   rms: 0.1869E-03   max: -.1024E-02   D at   89  2
       a = 13.500      CL =  1.1973
      Cm = -0.0192     CD =  0.05587   =>   CDf =  0.00543    CDp =  0.05044

 Side 1  free  transition at x/c =  0.0223   24
 Side 2 forced transition at x/c =  1.0000   68

   5   rms: 0.1035E-04   max: -.6769E-04   D at   84  2
       a = 13.500      CL =  1.1973
      Cm = -0.0192     CD =  0.05587   =>   CDf =  0.00543    CDp =  0.05044
 plradd ia,ip,cpol           43           0  2.86187802E-04

 Point added to stored polar  1
 Point written to save file  sd7037_Re200k.base.pol                          
 Dump file unspecified or not available
 Calculating wake trajectory ...
 Calculating source influence matrix ...

 Solving BL system ...

 Side 1  free  transition at x/c =  0.0223   24
 Side 2 forced transition at x/c =  1.0000   68

   1   rms: 0.3626E-01   max: 0.1170E+00   D at   62  1   RLX: 0.635
       a = 13.750      CL =  1.1950
      Cm = -0.0194     CD =  0.05921   =>   CDf =  0.00543    CDp =  0.05378

 Side 1  free  transition at x/c =  0.0221   24
 Side 2 forced transition at x/c =  1.0000   68

   2   rms: 0.1576E-01   max: 0.6247E-01   D at   66  1
       a = 13.750      CL =  1.1899
      Cm = -0.0196     CD =  0.06123   =>   CDf =  0.00529    CDp =  0.05595

 Side 1  free  transition at x/c =  0.0220   24
 Side 2 forced transition at x/c =  1.0000   68

   3   rms: 0.2748E-02   max: 0.2018E-01   D at   85  2
       a = 13.750      CL =  1.1882
      Cm = -0.0196     CD =  0.06105   =>   CDf =  0.00521    CDp =  0.05583

 Side 1  free  transition at x/c =  0.0221   24
 Side 2 forced transition at x/c =  1.0000   68

   4   rms: 0.2199E-03   max: 0.1219E-02   D at   85  2
       a = 13.750      CL =  1.1883
      Cm = -0.0196     CD =  0.06099   =>   CDf =  0.00522    CDp =  0.05578

 Side 1  free  transition at x/c =  0.0220   24
 Side 2 forced transition at x/c =  1.0000   68

   5   rms: 0.1295E-04   max: -.9436E-04   D at   85  2
       a = 13.750      CL =  1.1883
      Cm = -0.0196     CD =  0.06100   =>   CDf =  0.00522    CDp =  0.05578
 plradd ia,ip,cpol           44           0  2.86187802E-04

 Point added to stored polar  1
 Point written to save file  sd7037_Re200k.base.pol                          
 Dump file unspecified or not available
 Calculating wake trajectory ...
 Calculating source influence matrix ...

 Solving BL system ...

 Side 1  free  transition at x/c =  0.0220   24
 Side 2 forced transition at x/c =  1.0000   68

   1   rms: 0.3727E-01   max: 0.1252E+00   D at   60  1   RLX: 0.604
       a = 14.000      CL =  1.1848
      Cm = -0.0200     CD =  0.06445   =>   CDf =  0.00522    CDp =  0.05923

 Side 1  free  transition at x/c =  0.0219   24
 Side 2 forced transition at x/c =  1.0000   68

   2   rms: 0.1756E-01   max: 0.6749E-01   D at   64  1
       a = 14.000      CL =  1.1787
      Cm = -0.0204     CD =  0.06678   =>   CDf =  0.00508    CDp =  0.06170

 Side 1  free  transition at x/c =  0.0219   24
 Side 2 forced transition at x/c =  1.0000   68

   3   rms: 0.2774E-02   max: 0.1465E-01   D at   86  2
       a = 14.000      CL =  1.1770
      Cm = -0.0204     CD =  0.06652   =>   CDf =  0.00499    CDp =  0.06153

 Side 1  free  transition at x/c =  0.0219   24
 Side 2 forced transition at x/c =  1.0000   68

   4   rms: 0.2308E-03   max: -.1033E-02   D at   64  1
       a = 14.000      CL =  1.1772
      Cm = -0.0204     CD =  0.06646   =>   CDf =  0.00500    CDp =  0.06146

 Side 1  free  transition at x/c =  0.0219   24
 Side 2 forced transition at x/c =  1.0000   68

   5   rms: 0.1490E-04   max: -.1035E-03   D at   85  2
       a = 14.000      CL =  1.1772
      Cm = -0.0204     CD =  0.06647   =>   CDf =  0.00500    CDp =  0.06147
 plradd ia,ip,cpol           45           0  2.86187802E-04

 Point added to stored polar  1
 Point written to save file  sd7037_Re200k.base.pol                          
 Dump file unspecified or not available
 Calculating wake trajectory ...
 Calculating source influence matrix ...

 Solving BL system ...

 Side 1  free  transition at x/c =  0.0219   24
 Side 2 forced transition at x/c =  1.0000   68

   1   rms: 0.3842E-01   max: 0.1350E+00   D at   59  1   RLX: 0.575
       a = 14.250      CL =  1.1723
      Cm = -0.0209     CD =  0.07000   =>   CDf =  0.00500    CDp =  0.06500

 Side 1  free  transition at x/c =  0.0219   24
 Side 2 forced transition at x/c =  1.0000   68

   2   rms: 0.1954E-01   max: 0.7401E-01   D at   62  1
       a = 14.250      CL =  1.1649
      Cm = -0.0216     CD =  0.07267   =>   CDf =  0.00487    CDp =  0.06780

 Side 1  free  transition at x/c =  0.0219   24
 Side 2 forced transition at x/c =  1.0000   68

   3   rms: 0.3401E-02   max: 0.2068E-01   D at   86  2
       a = 14.250      CL =  1.1628
      Cm = -0.0216     CD =  0.07233   =>   CDf =  0.00477    CDp =  0.06756

 Side 1  free  transition at x/c =  0.0219   24
 Side 2 forced transition at x/c =  1.0000   68

   4   rms: 0.2476E-03   max: -.1141E-02   D at   62  1
       a = 14.250      CL =  1.1629
      Cm = -0.0216     CD =  0.07225   =>   CDf =  0.00478    CDp =  0.06748

 Side 1  free  transition at x/c =  0.0219   24
 Side 2 forced transition at x/c =  1.0000   68

   5   rms: 0.1690E-04   max: -.1190E-03   D at   86  2
       a = 14.250      CL =  1.1629
      Cm = -0.0216     CD =  0.07226   =>   CDf =  0.00478    CDp =  0.06748
 plradd ia,ip,cpol           46           0  2.86187802E-04

 Point added to stored polar  1
 Point written to save file  sd7037_Re200k.base.pol                          
 Dump file unspecified or not available
 Calculating wake trajectory ...
 Calculating source influence matrix ...

 Solving BL system ...

 Side 1  free  transition at x/c =  0.0219   24
 Side 2 forced transition at x/c =  1.0000   68

   1   rms: 0.4045E-01   max: 0.1474E+00   D at   57  1   RLX: 0.547
       a = 14.500      CL =  1.1567
      Cm = -0.0224     CD =  0.07596   =>   CDf =  0.00478    CDp =  0.07118

 Side 1  free  transition at x/c =  0.0218   24
 Side 2 forced transition at x/c =  1.0000   68

   2   rms: 0.2145E-01   max: 0.8192E-01   D at   60  1
       a = 14.500      CL =  1.1483
      Cm = -0.0234     CD =  0.07894   =>   CDf =  0.00465    CDp =  0.07429

 Side 1  free  transition at x/c =  0.0218   24
 Side 2 forced transition at x/c =  1.0000   68

   3   rms: 0.3543E-02   max: 0.1821E-01   D at   87  2
       a = 14.500      CL =  1.1462
      Cm = -0.0234     CD =  0.07848   =>   CDf =  0.00455    CDp =  0.07393

 Side 1  free  transition at x/c =  0.0218   24
 Side 2 forced transition at x/c =  1.0000   68

   4   rms: 0.2631E-03   max: 0.3197E-02   D at   87  2
       a = 14.500      CL =  1.1462
      Cm = -0.0234     CD =  0.07839   =>   CDf =  0.00455    CDp =  0.07383

 Side 1  free  transition at x/c =  0.0218   24
 Side 2 forced transition at x/c =  1.0000   68

   5   rms: 0.1399E-04   max: -.7843E-04   D at   86  2
       a = 14.500      CL =  1.1462
      Cm = -0.0234     CD =  0.07839   =>   CDf =  0.00455    CDp =  0.07384
 plradd ia,ip,cpol           47           0  2.86187802E-04

 Point added to stored polar  1
 Point written to save file  sd7037_Re200k.base.pol                          
 Dump file unspecified or not available
 Calculating wake trajectory ...
 Calculating source influence matrix ...

 Solving BL system ...

 Side 1  free  transition at x/c =  0.0218   24
 Side 2 forced transition at x/c =  1.0000   68

   1   rms: 0.4251E-01   max: 0.1584E+00   D at   55  1   RLX: 0.520
       a = 14.750      CL =  1.1392
      Cm = -0.0245     CD =  0.08222   =>   CDf =  0.00455    CDp =  0.07766

 Side 1  free  transition at x/c =  0.0218   24
 Side 2 forced transition at x/c =  1.0000   68

   2   rms: 0.2409E-01   max: -.9242E-01   C at   68  2
       a = 14.750      CL =  1.1291
      Cm = -0.0258     CD =  0.08565   =>   CDf =  0.00443    CDp =  0.08122

 Side 1  free  transition at x/c =  0.0219   24
 Side 2 forced transition at x/c =  1.0000   68

   3   rms: 0.4345E-02   max: 0.2185E-01   D at   88  2
       a = 14.750      CL =  1.1264
      Cm = -0.0258     CD =  0.08496   =>   CDf =  0.00431    CDp =  0.08065

 Side 1  free  transition at x/c =  0.0219   24
 Side 2 forced transition at x/c =  1.0000   68

   4   rms: 0.3136E-03   max: 0.2312E-02   D at   88  2
       a = 14.750      CL =  1.1265
      Cm = -0.0257     CD =  0.08482   =>   CDf =  0.00432    CDp =  0.08050

 Side 1  free  transition at x/c =  0.0219   24
 Side 2 forced transition at x/c =  1.0000   68

   5   rms: 0.2735E-04   max: -.1730E-03   D at   87  2
       a = 14.750      CL =  1.1265
      Cm = -0.0257     CD =  0.08483   =>   CDf =  0.00432    CDp =  0.08051
 plradd ia,ip,cpol           48           0  2.86187802E-04

 Point added to stored polar  1
 Point written to save file  sd7037_Re200k.base.pol                          
 Dump file unspecified or not available
 Calculating wake trajectory ...
 Calculating source influence matrix ...

 Solving BL system ...

 Side 1  free  transition at x/c =  0.0219   24
 Side 2 forced transition at x/c =  1.0000   68

   1   rms: 0.4556E-01   max: 0.1730E+00   D at   53  1   RLX: 0.495
       a = 15.000      CL =  1.1188
      Cm = -0.0272     CD =  0.08876   =>   CDf =  0.00432    CDp =  0.08444

 Side 1  free  transition at x/c =  0.0219   24
 Side 2 forced transition at x/c =  1.0000   68

   2   rms: 0.2695E-01   max: 0.1050E+00   D at   56  1
       a = 15.000      CL =  1.1072
      Cm = -0.0289     CD =  0.09259   =>   CDf =  0.00420    CDp =  0.08840

 Side 1  free  transition at x/c =  0.0220   24
 Side 2 forced transition at x/c =  1.0000   68

   3   rms: 0.5783E-02   max: 0.3453E-01   D at   88  2
       a = 15.000      CL =  1.1034
      Cm = -0.0289     CD =  0.09182   =>   CDf =  0.00408    CDp =  0.08774

 Side 1  free  transition at x/c =  0.0220   24
 Side 2 forced transition at x/c =  1.0000   68

   4   rms: 0.4340E-03   max: 0.3786E-02   D at   88  2
       a = 15.000      CL =  1.1032
      Cm = -0.0288     CD =  0.09163   =>   CDf =  0.00408    CDp =  0.08755

 Side 1  free  transition at x/c =  0.0220   24
 Side 2 forced transition at x/c =  1.0000   68

   5   rms: 0.2178E-04   max: -.1058E-03   D at   84  2
       a = 15.000      CL =  1.1033
      Cm = -0.0288     CD =  0.09164   =>   CDf =  0.00408    CDp =  0.08755
 plradd ia,ip,cpol           49           0  2.86187802E-04

 Point added to stored polar  1
 Point written to save file  sd7037_Re200k.base.pol                          
 Dump file unspecified or not available
 Calculating wake trajectory ...
 Calculating source influence matrix ...

 Solving BL system ...

 Side 1  free  transition at x/c =  0.0220   24
 Side 2 forced transition at x/c =  1.0000   68

   1   rms: 0.4850E-01   max: 0.1873E+00   D at   51  1   RLX: 0.470
       a = 15.250      CL =  1.0949
      Cm = -0.0305     CD =  0.09568   =>   CDf =  0.00409    CDp =  0.09160

 Side 1  free  transition at x/c =  0.0221   24
 Side 2 forced transition at x/c =  1.0000   68

   2   rms: 0.3118E-01   max: -.1269E+00   C at   68  2
       a = 15.250      CL =  1.0803
      Cm = -0.0327     CD =  0.10006   =>   CDf =  0.00397    CDp =  0.09609

 Side 1  free  transition at x/c =  0.0222   24
 Side 2 forced transition at x/c =  1.0000   68

   3   rms: 0.9884E-02   max: -.5624E-01   C at   68  2
       a = 15.250      CL =  1.0730
      Cm = -0.0326     CD =  0.09882   =>   CDf =  0.00384    CDp =  0.09497

 Side 1  free  transition at x/c =  0.0223   24
 Side 2 forced transition at x/c =  1.0000   68

   4   rms: 0.6131E-03   max: 0.4262E-02   D at   86  2
       a = 15.250      CL =  1.0728
      Cm = -0.0325     CD =  0.09842   =>   CDf =  0.00384    CDp =  0.09458

 Side 1  free  transition at x/c =  0.0223   24
 Side 2 forced transition at x/c =  1.0000   68

   5   rms: 0.7241E-04   max: 0.3493E-03   C at   68  2
       a = 15.250      CL =  1.0729
      Cm = -0.0325     CD =  0.09844   =>   CDf =  0.00384    CDp =  0.09460
 plradd ia,ip,cpol           50           0  2.86187802E-04

 Point added to stored polar  1
 Point written to save file  sd7037_Re200k.base.pol                          
 Dump file unspecified or not available
 Calculating wake trajectory ...
 Calculating source influence matrix ...

 Solving BL system ...

 Side 1  free  transition at x/c =  0.0223   24
 Side 2 forced transition at x/c =  1.0000   68

   1   rms: 0.5135E-01   max: 0.2016E+00   D at   49  1   RLX: 0.445
       a = 15.500      CL =  1.0640
      Cm = -0.0343     CD =  0.10244   =>   CDf =  0.00384    CDp =  0.09860

 Side 1  free  transition at x/c =  0.0223   24
 Side 2 forced transition at x/c =  1.0000   68

   2   rms: 0.3290E-01   max: -.1312E+00   C at   68  2
       a = 15.500      CL =  1.0501
      Cm = -0.0371     CD =  0.10721   =>   CDf =  0.00374    CDp =  0.10347

 Side 1  free  transition at x/c =  0.0224   24
 Side 2 forced transition at x/c =  1.0000   68

   3   rms: 0.7031E-02   max: -.3589E-01   C at   68  2
       a = 15.500      CL =  1.0455
      Cm = -0.0369     CD =  0.10570   =>   CDf =  0.00361    CDp =  0.10209

 Side 1  free  transition at x/c =  0.0225   24
 Side 2 forced transition at x/c =  1.0000   68

   4   rms: 0.4818E-03   max: 0.2881E-02   D at   87  2
       a = 15.500      CL =  1.0455
      Cm = -0.0368     CD =  0.10543   =>   CDf =  0.00362    CDp =  0.10182

 Side 1  free  transition at x/c =  0.0225   24
 Side 2 forced transition at x/c =  1.0000   68

   5   rms: 0.6506E-04   max: -.3351E-03   D at   88  2
       a = 15.500      CL =  1.0455
      Cm = -0.0368     CD =  0.10545   =>   CDf =  0.00362    CDp =  0.10184
 plradd ia,ip,cpol           51           0  2.86187802E-04

 Point added to stored polar  1
 Point written to save file  sd7037_Re200k.base.pol                          
 Dump file unspecified or not available
 Calculating wake trajectory ...
 Calculating source influence matrix ...

 Solving BL system ...

 Side 1  free  transition at x/c =  0.0225   24
 Side 2 forced transition at x/c =  1.0000   68

   1   rms: 0.5546E-01   max: 0.2226E+00   D at   46  1   RLX: 0.424
       a = 15.750      CL =  1.0373
      Cm = -0.0391     CD =  0.10976   =>   CDf =  0.00362    CDp =  0.10614

 Side 1  free  transition at x/c =  0.0225   24
 Side 2 forced transition at x/c =  1.0000   68

   2   rms: 0.3640E-01   max: 0.1424E+00   D at   49  1
       a = 15.750      CL =  1.0228
      Cm = -0.0423     CD =  0.11517   =>   CDf =  0.00352    CDp =  0.11165

 Side 1  free  transition at x/c =  0.0226   24
 Side 2 forced transition at x/c =  1.0000   68

   3   rms: 0.7824E-02   max: 0.3684E-01   D at   87  2
       a = 15.750      CL =  1.0179
      Cm = -0.0420     CD =  0.11348   =>   CDf =  0.00339    CDp =  0.11009

 Side 1  free  transition at x/c =  0.0227   24
 Side 2 forced transition at x/c =  1.0000   68

   4   rms: 0.4898E-03   max: 0.3217E-02   D at   87  2
       a = 15.750      CL =  1.0179
      Cm = -0.0420     CD =  0.11317   =>   CDf =  0.00340    CDp =  0.10977

 Side 1  free  transition at x/c =  0.0227   24
 Side 2 forced transition at x/c =  1.0000   68

   5   rms: 0.6032E-04   max: -.2812E-03   D at   86  2
       a = 15.750      CL =  1.0179
      Cm = -0.0420     CD =  0.11319   =>   CDf =  0.00340    CDp =  0.10979
 plradd ia,ip,cpol           52           0  2.86187802E-04

 Point added to stored polar  1
 Point written to save file  sd7037_Re200k.base.pol                          
 Dump file unspecified or not available
 Calculating wake trajectory ...
 Calculating source influence matrix ...

 Solving BL system ...

 Side 1  free  transition at x/c =  0.0227   24
 Side 2 forced transition at x/c =  1.0000   68

   1   rms: 0.5766E-01   max: 0.2339E+00   D at   44  1   RLX: 0.405
       a = 16.000      CL =  1.0101
      Cm = -0.0443     CD =  0.11775   =>   CDf =  0.00341    CDp =  0.11434

 Side 1  free  transition at x/c =  0.0228   24
 Side 2 forced transition at x/c =  1.0000   68

   2   rms: 0.3720E-01   max: 0.1474E+00   D at   46  1
       a = 16.000      CL =  0.9961
      Cm = -0.0478     CD =  0.12361   =>   CDf =  0.00332    CDp =  0.12030

 Side 1  free  transition at x/c =  0.0231   24
 Side 2 forced transition at x/c =  1.0000   68

   3   rms: 0.6775E-02   max: 0.3347E-01   D at   87  2
       a = 16.000      CL =  0.9924
      Cm = -0.0473     CD =  0.12116   =>   CDf =  0.00321    CDp =  0.11795

 Side 1  free  transition at x/c =  0.0231   24
 Side 2 forced transition at x/c =  1.0000   68

   4   rms: 0.3852E-03   max: 0.2043E-02   D at   87  2
       a = 16.000      CL =  0.9925
      Cm = -0.0473     CD =  0.12095   =>   CDf =  0.00322    CDp =  0.11773

 Side 1  free  transition at x/c =  0.0231   24
 Side 2 forced transition at x/c =  1.0000   68

   5   rms: 0.6295E-04   max: -.3801E-03   D at   87  2
       a = 16.000      CL =  0.9925
      Cm = -0.0473     CD =  0.12098   =>   CDf =  0.00322    CDp =  0.11776
 plradd ia,ip,cpol           53           0  2.86187802E-04

 Point added to stored polar  1
 Point written to save file  sd7037_Re200k.base.pol                          
 Dump file unspecified or not available

.OPERva   c>  
 Polar accumulation disabled

.OPERv   c>  
 XFOIL   c>  
 XFOIL   c>  