
 ===================================================
  XFOIL Version 6.99
  Copyright (C) 2000   Mark Drela, Harold Youngren

  This software comes with ABSOLUTELY NO WARRANTY,
    subject to the GNU General Public License.

  Caveat computor
 ===================================================

 File  xfoil.def  not found

   QUIT    Exit program

  .OPER    Direct operating point(s)
  .MDES    Complex mapping design routine
  .QDES    Surface speed design routine
  .GDES    Geometry design routine

   SAVE f  Write airfoil to labeled coordinate file
   PSAV f  Write airfoil to plain coordinate file
   ISAV f  Write airfoil to ISES coordinate file
   MSAV f  Write airfoil to MSES coordinate file
   REVE    Reverse written-airfoil node ordering

   LOAD f  Read buffer airfoil from coordinate file
   NACA i  Set NACA 4,5-digit airfoil and buffer airfoil
   INTE    Set buffer airfoil by interpolating two airfoils
   NORM    Buffer airfoil normalization toggle
   XYCM rr Change CM reference location, currently  0.25000 0.00000

   BEND    Display structural properties of current airfoil

   PCOP    Set current-airfoil panel nodes directly from buffer airfoil points
   PANE    Set current-airfoil panel nodes ( 160 ) based on curvature
  .PPAR    Show/change paneling

  .PLOP    Plotting options

   WDEF f  Write  current-settings file
   RDEF f  Reread current-settings file
   NAME s  Specify new airfoil name
   NINC    Increment name version number

   Z       Zoom    | (available in all menus)
   U       Unzoom  | 

 XFOIL   c>  
 Labeled airfoil file.  Name:  SG6040                                          

 Number of input coordinate points:  81
 Counterclockwise ordering
 Max thickness =     0.160016  at x =   0.353
 Max camber    =     0.025156  at x =   0.582

  LE  x,y  =   0.00009  -0.00040  |   Chord =   0.99991
  TE  x,y  =   1.00000   0.00000  |

 Current airfoil nodes set from buffer airfoil nodes (  81 )

 XFOIL   c>  
 XFOIL   c>  
 Sharp trailing edge

 Paneling parameters used...
   Number of panel nodes       160
   Panel bunching parameter    1.000
   TE/LE panel density ratio   0.150
   Refined-area/LE panel density ratio    0.200
   Top    side refined area x/c limits  1.000 1.000
   Bottom side refined area x/c limits  1.000 1.000

 XFOIL   c>  
.OPERi   c>  
 Xtr/c     =  1.0000    top    side
 Xtr/c     =  1.0000    bottom side
 Ncrit     =    9.00   ( 0.070 % turb. level )
 Vacc      =  0.0100

 Klag  =  5.6000     Uxwt  =    1.00
 A     =  6.7000     B     =  0.7500       KCt = 0.01485
 CtiniK=  1.8000     CtiniX=  3.3000

..VPAR   c>  
..VPAR   c>  
.OPERi   c>  
 M  =    0.0000
 Re =    400000

.OPERv   c>  
.OPERv   c>  
.OPERv   c>  
 Polar  1 newly created for accumulation
 Airfoil archived with polar: SG6040                                          

Enter  polar save filename  OR  <return> for no file   s>  
 New polar save file available

Enter  polar dump filename  OR  <return> for no file   s>  
 Polar dump file will NOT be written

 Polar accumulation enabled

.OPERva   c>   Calculating unit vorticity distributions ...
 Calculating wake trajectory ...
 Calculating source influence matrix ...

 Solving BL system ...

 Initializing BL ...
    side            1  ...
 MRCHUE: Inverse mode at  53     Hk =   3.992
 MRCHUE: Inverse mode at  54     Hk =   4.616
 MRCHUE: Inverse mode at  55     Hk =   5.227
 MRCHUE: Inverse mode at  56     Hk =   5.829
 MRCHUE: Inverse mode at  57     Hk =   6.422
 MRCHUE: Inverse mode at  58     Hk =   7.009
 MRCHUE: Inverse mode at  59     Hk =   7.593
 MRCHUE: Inverse mode at  60     Hk =   8.176
 MRCHUE: Inverse mode at  61     Hk =   8.756
 MRCHUE: Inverse mode at  62     Hk =   6.382
 MRCHUE: Inverse mode at  63     Hk =   4.579
 MRCHUE: Inverse mode at  64     Hk =   3.345
    side            2  ...
 MRCHUE: Inverse mode at  53     Hk =   3.934
 MRCHUE: Inverse mode at  54     Hk =   4.520
 MRCHUE: Inverse mode at  55     Hk =   2.944

 Side 1  free  transition at x/c =  0.7794   62
 Side 2  free  transition at x/c =  0.4951   55

   1   rms: 0.1323E+00   max: -.1012E+01   C at   55  2   RLX: 0.494
       a = -4.000      CL = -0.0432
      Cm = -0.0953     CD =  0.00937   =>   CDf =  0.00558    CDp =  0.00379

 Side 1  free  transition at x/c =  0.7909   62
 Side 2  free  transition at x/c =  0.5070   56

   2   rms: 0.9465E-01   max: -.7907E+00   T at   62  1   RLX: 0.632
       a = -4.000      CL = -0.0466
      Cm = -0.0942     CD =  0.00974   =>   CDf =  0.00544    CDp =  0.00430

 MRCHDU: Convergence failed at  64  side 1    Res =  0.4007E+02
 MRCHDU: Convergence failed at  65  side 1    Res =  0.2410E+01
 MRCHDU: Convergence failed at  66  side 1    Res =  0.2156E+01
 MRCHDU: Convergence failed at  67  side 1    Res =  0.2791E+01
 MRCHDU: Convergence failed at  68  side 1    Res =  0.3636E+01
 MRCHDU: Convergence failed at  69  side 1    Res =  0.4531E+01
 MRCHDU: Convergence failed at  70  side 1    Res =  0.5546E+01
 MRCHDU: Convergence failed at  71  side 1    Res =  0.6911E+01
 MRCHDU: Convergence failed at  72  side 1    Res =  0.8648E+01
 MRCHDU: Convergence failed at  73  side 1    Res =  0.9591E+01
 MRCHDU: Convergence failed at  74  side 1    Res =  0.8959E+01
 MRCHDU: Convergence failed at  75  side 1    Res =  0.7653E+01
 MRCHDU: Convergence failed at  76  side 1    Res =  0.1106E+02
 Side 1  free  transition at x/c =  0.8153   64
 Side 2  free  transition at x/c =  0.5182   56
 idif Ue xi dudx           1  0.17341898      3.91471386E-03   44.299274    
 Uenew xinew           2  6.01915270E-02  1.35874748E-03

   3   rms: 0.2745E+00   max: 0.1497E+01   D at   76  1   RLX: 0.936
       a = -4.000      CL = -0.1985
      Cm = -0.0647     CD =  0.00728   =>   CDf =  0.00471    CDp =  0.00257

 Side 1  free  transition at x/c =  0.7928   61
 Side 2  free  transition at x/c =  0.4091   51

   4   rms: 0.3211E+00   max: -.4657E+01   C at   51  2   RLX: 0.107
       a = -4.000      CL = -0.1829
      Cm = -0.0667     CD =  0.01086   =>   CDf =  0.00556    CDp =  0.00530

 Side 1  free  transition at x/c =  0.7966   62
 Side 2  free  transition at x/c =  0.4222   52

   5   rms: 0.2708E+00   max: -.3160E+01   C at   52  2   RLX: 0.158
       a = -4.000      CL = -0.1551
      Cm = -0.0727     CD =  0.01010   =>   CDf =  0.00559    CDp =  0.00451

 Side 1  free  transition at x/c =  0.8003   62
 Side 2  free  transition at x/c =  0.4391   53

   6   rms: 0.2810E+00   max: -.3891E+01   C at   53  2   RLX: 0.129
       a = -4.000      CL = -0.1336
      Cm = -0.0773     CD =  0.00985   =>   CDf =  0.00549    CDp =  0.00436

 Side 1  free  transition at x/c =  0.8035   62
 Side 2  free  transition at x/c =  0.4572   54

   7   rms: 0.3592E+00   max: -.6047E+01   C at   54  2   RLX: 0.083
       a = -4.000      CL = -0.1194
      Cm = -0.0803     CD =  0.00974   =>   CDf =  0.00534    CDp =  0.00441

 Side 1  free  transition at x/c =  0.8054   62
 Side 2  free  transition at x/c =  0.4717   54

   8   rms: 0.3237E+00   max: -.5176E+01   C at   54  2   RLX: 0.097
       a = -4.000      CL = -0.1001
      Cm = -0.0844     CD =  0.00964   =>   CDf =  0.00532    CDp =  0.00432

 Side 1  free  transition at x/c =  0.8077   63
 Side 2  free  transition at x/c =  0.4885   55

   9   rms: 0.3401E+00   max: -.3969E+01   C at   55  2   RLX: 0.126
       a = -4.000      CL = -0.0673
      Cm = -0.0914     CD =  0.00955   =>   CDf =  0.00526    CDp =  0.00429

 Side 1  free  transition at x/c =  0.8116   64
 Side 2  free  transition at x/c =  0.5027   55

  10   rms: 0.1503E+00   max: -.8741E+00   D at   76  1   RLX: 0.572
       a = -4.000      CL =  0.0209
      Cm = -0.1102     CD =  0.00889   =>   CDf =  0.00525    CDp =  0.00364

 MRCHDU: Convergence failed at  75  side 1    Res =  0.1439E+01
 MRCHDU: Convergence failed at  59  side 2    Res =  0.1594E+01
 MRCHDU: Convergence failed at  60  side 2    Res =  0.1390E+01
 MRCHDU: Convergence failed at  61  side 2    Res =  0.1948E+01
 MRCHDU: Convergence failed at  62  side 2    Res =  0.2501E+01
 MRCHDU: Convergence failed at  63  side 2    Res =  0.2969E+01
 MRCHDU: Convergence failed at  64  side 2    Res =  0.3325E+01
 MRCHDU: Convergence failed at  65  side 2    Res =  0.3574E+01
 MRCHDU: Convergence failed at  66  side 2    Res =  0.3754E+01
 MRCHDU: Convergence failed at  67  side 2    Res =  0.3865E+01
 MRCHDU: Convergence failed at  68  side 2    Res =  0.3938E+01
 MRCHDU: Convergence failed at  69  side 2    Res =  0.3997E+01
 MRCHDU: Convergence failed at  70  side 2    Res =  0.4031E+01
 MRCHDU: Convergence failed at  71  side 2    Res =  0.4054E+01
 MRCHDU: Convergence failed at  72  side 2    Res =  0.4061E+01
 MRCHDU: Convergence failed at  73  side 2    Res =  0.4061E+01
 MRCHDU: Convergence failed at  74  side 2    Res =  0.4041E+01
 MRCHDU: Convergence failed at  75  side 2    Res =  0.4013E+01
 MRCHDU: Convergence failed at  76  side 2    Res =  0.5373E+01
 MRCHDU: Convergence failed at  77  side 2    Res =  0.6083E+01
 MRCHDU: Convergence failed at  78  side 2    Res =  0.6740E+01
 MRCHDU: Convergence failed at  79  side 2    Res =  0.7848E+01
 MRCHDU: Convergence failed at  80  side 2    Res =  0.8678E+01
 MRCHDU: Convergence failed at  81  side 2    Res =  0.1007E+02
 MRCHDU: Convergence failed at  82  side 2    Res =  0.1114E+02
 MRCHDU: Convergence failed at  83  side 2    Res =  0.1300E+02
 MRCHDU: Convergence failed at  84  side 2    Res =  0.1481E+02
 MRCHDU: Convergence failed at  85  side 2    Res =  0.1753E+02
 MRCHDU: Convergence failed at  86  side 2    Res =  0.2499E+02
 Side 1  free  transition at x/c =  0.8197   64
 Side 2  free  transition at x/c =  0.5597   59

  11   rms: 0.3235E+00   max: 0.1338E+01   T at   86  2
       a = -4.000      CL =  0.0266
      Cm = -0.1083     CD =  0.00661   =>   CDf =  0.00413    CDp =  0.00247

 Side 1  free  transition at x/c =  0.8244   64
 Side 2  free  transition at x/c =  0.5461   58

  12   rms: 0.6425E-01   max: -.2082E+00   D at   58  2
       a = -4.000      CL = -0.0457
      Cm = -0.0946     CD =  0.00867   =>   CDf =  0.00515    CDp =  0.00353

 Side 1  free  transition at x/c =  0.8177   64
 Side 2  free  transition at x/c =  0.5292   57

  13   rms: 0.9761E-02   max: -.1001E+00   C at   57  2
       a = -4.000      CL = -0.0524
      Cm = -0.0930     CD =  0.00874   =>   CDf =  0.00511    CDp =  0.00363

 Side 1  free  transition at x/c =  0.8178   64
 Side 2  free  transition at x/c =  0.5302   57

  14   rms: 0.6962E-03   max: 0.9479E-02   C at   57  2
       a = -4.000      CL = -0.0525
      Cm = -0.0930     CD =  0.00875   =>   CDf =  0.00506    CDp =  0.00368

 Side 1  free  transition at x/c =  0.8177   64
 Side 2  free  transition at x/c =  0.5298   57

  15   rms: 0.2853E-05   max: -.4515E-04   D at   60  2
       a = -4.000      CL = -0.0525
      Cm = -0.0930     CD =  0.00875   =>   CDf =  0.00507    CDp =  0.00368
 plradd ia,ip,cpol            1           0  5.21048205E-03

 Point added to stored polar  1
 Point written to save file  sg6040_Re400k.base.pol                          
 Dump file unspecified or not available
 Calculating wake trajectory ...
 Calculating source influence matrix ...

 Solving BL system ...

 Side 1  free  transition at x/c =  0.8177   64
 Side 2  free  transition at x/c =  0.5298   57

   1   rms: 0.9132E-01   max: 0.4504E+00   D at   58  2
       a = -3.500      CL =  0.0030
      Cm = -0.0927     CD =  0.00878   =>   CDf =  0.00511    CDp =  0.00367

 Side 1  free  transition at x/c =  0.8043   64
 Side 2  free  transition at x/c =  0.5607   58

   2   rms: 0.1171E-01   max: -.1167E+00   D at   64  1
       a = -3.500      CL =  0.0032
      Cm = -0.0928     CD =  0.00881   =>   CDf =  0.00519    CDp =  0.00362

 Side 1  free  transition at x/c =  0.8036   64
 Side 2  free  transition at x/c =  0.5671   58

   3   rms: 0.2433E-02   max: -.3264E-01   D at   59  2
       a = -3.500      CL =  0.0032
      Cm = -0.0928     CD =  0.00882   =>   CDf =  0.00518    CDp =  0.00364

 Side 1  free  transition at x/c =  0.8035   64
 Side 2  free  transition at x/c =  0.5678   58

   4   rms: 0.2758E-04   max: 0.3740E-03   D at   59  2
       a = -3.500      CL =  0.0032
      Cm = -0.0928     CD =  0.00882   =>   CDf =  0.00517    CDp =  0.00365
 plradd ia,ip,cpol            2           0  5.21048205E-03

 Point added to stored polar  1
 Point written to save file  sg6040_Re400k.base.pol                          
 Dump file unspecified or not available
 Calculating wake trajectory ...
 Calculating source influence matrix ...

 Solving BL system ...

 Side 1  free  transition at x/c =  0.8035   64
 Side 2  free  transition at x/c =  0.5678   58

   1   rms: 0.8187E-01   max: -.3336E+00   T at   58  2
       a = -3.000      CL =  0.0586
      Cm = -0.0926     CD =  0.00892   =>   CDf =  0.00517    CDp =  0.00375

 Side 1  free  transition at x/c =  0.7884   63
 Side 2  free  transition at x/c =  0.5936   60

   2   rms: 0.1612E-01   max: 0.2275E+00   D at   60  2
       a = -3.000      CL =  0.0595
      Cm = -0.0926     CD =  0.00888   =>   CDf =  0.00527    CDp =  0.00361

 Side 1  free  transition at x/c =  0.7895   63
 Side 2  free  transition at x/c =  0.5919   60

   3   rms: 0.1925E-02   max: -.1896E-01   D at   62  2
       a = -3.000      CL =  0.0592
      Cm = -0.0926     CD =  0.00890   =>   CDf =  0.00528    CDp =  0.00362

 Side 1  free  transition at x/c =  0.7892   63
 Side 2  free  transition at x/c =  0.5914   60

   4   rms: 0.3956E-04   max: -.7020E-03   D at   62  2
       a = -3.000      CL =  0.0592
      Cm = -0.0926     CD =  0.00891   =>   CDf =  0.00530    CDp =  0.00361
 plradd ia,ip,cpol            3           0  5.21048205E-03

 Point added to stored polar  1
 Point written to save file  sg6040_Re400k.base.pol                          
 Dump file unspecified or not available
 Calculating wake trajectory ...
 Calculating source influence matrix ...

 Solving BL system ...

 Side 1  free  transition at x/c =  0.7892   63
 Side 2  free  transition at x/c =  0.5914   60

   1   rms: 0.8369E-01   max: 0.3954E+00   D at   61  2
       a = -2.500      CL =  0.1118
      Cm = -0.0916     CD =  0.00893   =>   CDf =  0.00532    CDp =  0.00361

 Side 1  free  transition at x/c =  0.7725   63
 Side 2  free  transition at x/c =  0.6023   59

   2   rms: 0.4073E-01   max: -.3984E+00   D at   60  2
       a = -2.500      CL =  0.1163
      Cm = -0.0927     CD =  0.00913   =>   CDf =  0.00556    CDp =  0.00357

 Side 1  free  transition at x/c =  0.7751   63
 Side 2  free  transition at x/c =  0.6137   60

   3   rms: 0.1897E-01   max: 0.2569E+00   D at   60  2
       a = -2.500      CL =  0.1153
      Cm = -0.0924     CD =  0.00895   =>   CDf =  0.00534    CDp =  0.00361

 Side 1  free  transition at x/c =  0.7748   63
 Side 2  free  transition at x/c =  0.6101   60

   4   rms: 0.2860E-02   max: -.3880E-01   D at   62  2
       a = -2.500      CL =  0.1153
      Cm = -0.0924     CD =  0.00899   =>   CDf =  0.00540    CDp =  0.00359

 Side 1  free  transition at x/c =  0.7748   63
 Side 2  free  transition at x/c =  0.6093   60

   5   rms: 0.1169E-03   max: -.2128E-02   D at   62  2
       a = -2.500      CL =  0.1153
      Cm = -0.0924     CD =  0.00899   =>   CDf =  0.00541    CDp =  0.00358

 Side 1  free  transition at x/c =  0.7748   63
 Side 2  free  transition at x/c =  0.6093   60

   6   rms: 0.6541E-06   max: -.4974E-05   D at   62  2
       a = -2.500      CL =  0.1153
      Cm = -0.0924     CD =  0.00899   =>   CDf =  0.00542    CDp =  0.00358
 plradd ia,ip,cpol            4           0  4.66311201E-02

 Point added to stored polar  1
 Point written to save file  sg6040_Re400k.base.pol                          
 Dump file unspecified or not available
 Calculating wake trajectory ...
 Calculating source influence matrix ...

 Solving BL system ...

 Side 1  free  transition at x/c =  0.7748   63
 Side 2  free  transition at x/c =  0.6093   60

   1   rms: 0.7963E-01   max: -.3436E+00   T at   60  2
       a = -2.000      CL =  0.1669
      Cm = -0.0913     CD =  0.00901   =>   CDf =  0.00543    CDp =  0.00358

 Side 1  free  transition at x/c =  0.7567   63
 Side 2  free  transition at x/c =  0.6211   59

   2   rms: 0.3079E-01   max: -.2566E+00   D at   60  2
       a = -2.000      CL =  0.1720
      Cm = -0.0924     CD =  0.00916   =>   CDf =  0.00564    CDp =  0.00353

 Side 1  free  transition at x/c =  0.7603   64
 Side 2  free  transition at x/c =  0.6271   60

   3   rms: 0.1023E-01   max: 0.1681E+00   D at   60  2
       a = -2.000      CL =  0.1712
      Cm = -0.0922     CD =  0.00908   =>   CDf =  0.00554    CDp =  0.00355

 Side 1  free  transition at x/c =  0.7602   64
 Side 2  free  transition at x/c =  0.6254   60

   4   rms: 0.7235E-03   max: 0.8033E-02   D at   60  2
       a = -2.000      CL =  0.1712
      Cm = -0.0922     CD =  0.00909   =>   CDf =  0.00553    CDp =  0.00355

 Side 1  free  transition at x/c =  0.7601   64
 Side 2  free  transition at x/c =  0.6252   60

   5   rms: 0.3392E-05   max: -.4870E-04   D at   62  2
       a = -2.000      CL =  0.1712
      Cm = -0.0922     CD =  0.00909   =>   CDf =  0.00554    CDp =  0.00355
 plradd ia,ip,cpol            5           0  0.32946002    

 Point added to stored polar  1
 Point written to save file  sg6040_Re400k.base.pol                          
 Dump file unspecified or not available
 Calculating wake trajectory ...
 Calculating source influence matrix ...

 Solving BL system ...

 Side 1  free  transition at x/c =  0.7601   64
 Side 2  free  transition at x/c =  0.6252   60

   1   rms: 0.8660E-01   max: -.3927E+00   T at   60  2
       a = -1.500      CL =  0.2299
      Cm = -0.0924     CD =  0.00920   =>   CDf =  0.00554    CDp =  0.00366

 Side 1  free  transition at x/c =  0.7474   64
 Side 2  free  transition at x/c =  0.6412   60

   2   rms: 0.3117E-01   max: -.2120E+00   D at   64  1
       a = -1.500      CL =  0.2253
      Cm = -0.0916     CD =  0.00911   =>   CDf =  0.00563    CDp =  0.00348

 Side 1  free  transition at x/c =  0.7446   64
 Side 2  free  transition at x/c =  0.6438   60

   3   rms: 0.2722E-02   max: -.2954E-01   D at   62  2
       a = -1.500      CL =  0.2257
      Cm = -0.0917     CD =  0.00921   =>   CDf =  0.00557    CDp =  0.00364

 Side 1  free  transition at x/c =  0.7447   64
 Side 2  free  transition at x/c =  0.6431   60

   4   rms: 0.1179E-03   max: -.1784E-02   D at   62  2
       a = -1.500      CL =  0.2257
      Cm = -0.0917     CD =  0.00921   =>   CDf =  0.00558    CDp =  0.00363

 Side 1  free  transition at x/c =  0.7447   64
 Side 2  free  transition at x/c =  0.6431   60

   5   rms: 0.1332E-05   max: -.1070E-04   D at   60  2
       a = -1.500      CL =  0.2257
      Cm = -0.0917     CD =  0.00921   =>   CDf =  0.00558    CDp =  0.00363
 plradd ia,ip,cpol            6           0  0.31352443    

 Point added to stored polar  1
 Point written to save file  sg6040_Re400k.base.pol                          
 Dump file unspecified or not available
 Calculating wake trajectory ...
 Calculating source influence matrix ...

 Solving BL system ...

 Side 1  free  transition at x/c =  0.7447   64
 Side 2  free  transition at x/c =  0.6431   60

   1   rms: 0.8920E-01   max: -.5280E+00   T at   60  2   RLX: 0.947
       a = -1.000      CL =  0.2793
      Cm = -0.0914     CD =  0.00932   =>   CDf =  0.00559    CDp =  0.00373

 Side 1  free  transition at x/c =  0.7329   63
 Side 2  free  transition at x/c =  0.6532   60

   2   rms: 0.5338E-01   max: -.4589E+00   D at   60  2
       a = -1.000      CL =  0.2804
      Cm = -0.0913     CD =  0.00943   =>   CDf =  0.00560    CDp =  0.00383

 Side 1  free  transition at x/c =  0.7287   64
 Side 2  free  transition at x/c =  0.6604   60

   3   rms: 0.9056E-02   max: 0.1371E+00   D at   60  2
       a = -1.000      CL =  0.2805
      Cm = -0.0912     CD =  0.00935   =>   CDf =  0.00565    CDp =  0.00370

 Side 1  free  transition at x/c =  0.7293   64
 Side 2  free  transition at x/c =  0.6590   60

   4   rms: 0.4692E-03   max: 0.4338E-02   D at   60  2
       a = -1.000      CL =  0.2805
      Cm = -0.0912     CD =  0.00936   =>   CDf =  0.00565    CDp =  0.00371

 Side 1  free  transition at x/c =  0.7293   64
 Side 2  free  transition at x/c =  0.6589   60

   5   rms: 0.1288E-04   max: -.1625E-03   D at    4  1
       a = -1.000      CL =  0.2805
      Cm = -0.0912     CD =  0.00936   =>   CDf =  0.00565    CDp =  0.00371
 plradd ia,ip,cpol            7           0  0.29764163    

 Point added to stored polar  1
 Point written to save file  sg6040_Re400k.base.pol                          
 Dump file unspecified or not available
 Calculating wake trajectory ...
 Calculating source influence matrix ...

 Solving BL system ...

 Side 1  free  transition at x/c =  0.7293   64
 Side 2  free  transition at x/c =  0.6589   60

   1   rms: 0.8406E-01   max: -.4775E+00   T at   60  2
       a = -0.500      CL =  0.3359
      Cm = -0.0909     CD =  0.00922   =>   CDf =  0.00565    CDp =  0.00357

 Side 1  free  transition at x/c =  0.7164   63
 Side 2  free  transition at x/c =  0.6690   60

   2   rms: 0.3949E-01   max: -.3606E+00   D at   60  2
       a = -0.500      CL =  0.3349
      Cm = -0.0908     CD =  0.00943   =>   CDf =  0.00565    CDp =  0.00378

 Side 1  free  transition at x/c =  0.7134   63
 Side 2  free  transition at x/c =  0.6718   60

   3   rms: 0.4760E-02   max: 0.6304E-01   D at   61  2
       a = -0.500      CL =  0.3349
      Cm = -0.0907     CD =  0.00942   =>   CDf =  0.00566    CDp =  0.00376

 Side 1  free  transition at x/c =  0.7137   63
 Side 2  free  transition at x/c =  0.6710   60

   4   rms: 0.8720E-04   max: 0.1302E-02   D at   61  2
       a = -0.500      CL =  0.3349
      Cm = -0.0907     CD =  0.00942   =>   CDf =  0.00565    CDp =  0.00377
 plradd ia,ip,cpol            8           0  0.28181809    

 Point added to stored polar  1
 Point written to save file  sg6040_Re400k.base.pol                          
 Dump file unspecified or not available
 Calculating wake trajectory ...
 Calculating source influence matrix ...

 Solving BL system ...

 Side 1  free  transition at x/c =  0.7137   63
 Side 2  free  transition at x/c =  0.6709   60

   1   rms: 0.7928E-01   max: -.2938E+00   T at   60  2
       a =  0.000      CL =  0.3913
      Cm = -0.0908     CD =  0.00955   =>   CDf =  0.00563    CDp =  0.00392

 Side 1  free  transition at x/c =  0.6997   63
 Side 2  free  transition at x/c =  0.6799   60

   2   rms: 0.1234E-01   max: -.1573E+00   D at   63  1
       a =  0.000      CL =  0.3897
      Cm = -0.0905     CD =  0.00945   =>   CDf =  0.00575    CDp =  0.00370

 Side 1  free  transition at x/c =  0.6978   63
 Side 2  free  transition at x/c =  0.6805   60

   3   rms: 0.5189E-03   max: -.4494E-02   D at   63  1
       a =  0.000      CL =  0.3898
      Cm = -0.0905     CD =  0.00946   =>   CDf =  0.00572    CDp =  0.00374

 Side 1  free  transition at x/c =  0.6979   63
 Side 2  free  transition at x/c =  0.6804   60

   4   rms: 0.3171E-05   max: -.1873E-04   D at   82  1
       a =  0.000      CL =  0.3898
      Cm = -0.0905     CD =  0.00946   =>   CDf =  0.00572    CDp =  0.00374
 plradd ia,ip,cpol            9           0  0.26609734    

 Point added to stored polar  1
 Point written to save file  sg6040_Re400k.base.pol                          
 Dump file unspecified or not available
 Calculating wake trajectory ...
 Calculating source influence matrix ...

 Solving BL system ...

 Side 1  free  transition at x/c =  0.6979   63
 Side 2  free  transition at x/c =  0.6804   60

   1   rms: 0.7792E-01   max: -.2510E+00   T at   60  2
       a =  0.500      CL =  0.4451
      Cm = -0.0903     CD =  0.00951   =>   CDf =  0.00568    CDp =  0.00383

 Side 1  free  transition at x/c =  0.6830   63
 Side 2  free  transition at x/c =  0.6867   59

   2   rms: 0.2053E-01   max: -.1621E+00   D at   63  1
       a =  0.500      CL =  0.4445
      Cm = -0.0902     CD =  0.00951   =>   CDf =  0.00580    CDp =  0.00371

 Side 1  free  transition at x/c =  0.6818   63
 Side 2  free  transition at x/c =  0.6884   59

   3   rms: 0.1141E-02   max: 0.1567E-01   D at   60  2
       a =  0.500      CL =  0.4446
      Cm = -0.0903     CD =  0.00952   =>   CDf =  0.00578    CDp =  0.00374

 Side 1  free  transition at x/c =  0.6817   63
 Side 2  free  transition at x/c =  0.6883   59

   4   rms: 0.7863E-05   max: 0.1174E-03   D at   60  2
       a =  0.500      CL =  0.4446
      Cm = -0.0903     CD =  0.00952   =>   CDf =  0.00578    CDp =  0.00374
 plradd ia,ip,cpol           10           0  0.25051627    

 Point added to stored polar  1
 Point written to save file  sg6040_Re400k.base.pol                          
 Dump file unspecified or not available
 Calculating wake trajectory ...
 Calculating source influence matrix ...

 Solving BL system ...

 Side 1  free  transition at x/c =  0.6817   63
 Side 2  free  transition at x/c =  0.6883   59

   1   rms: 0.7771E-01   max: -.1987E+00   T at   59  2
       a =  1.000      CL =  0.5000
      Cm = -0.0902     CD =  0.00960   =>   CDf =  0.00573    CDp =  0.00387

 Side 1  free  transition at x/c =  0.6667   63
 Side 2  free  transition at x/c =  0.6958   59

   2   rms: 0.1140E-01   max: -.1512E+00   D at   63  1
       a =  1.000      CL =  0.4993
      Cm = -0.0901     CD =  0.00956   =>   CDf =  0.00589    CDp =  0.00367

 Side 1  free  transition at x/c =  0.6653   63
 Side 2  free  transition at x/c =  0.6959   59

   3   rms: 0.3873E-03   max: 0.4354E-02   D at   59  2
       a =  1.000      CL =  0.4994
      Cm = -0.0901     CD =  0.00958   =>   CDf =  0.00586    CDp =  0.00372

 Side 1  free  transition at x/c =  0.6653   63
 Side 2  free  transition at x/c =  0.6958   59

   4   rms: 0.1829E-05   max: -.1181E-04   D at   59  2
       a =  1.000      CL =  0.4994
      Cm = -0.0901     CD =  0.00958   =>   CDf =  0.00586    CDp =  0.00372
 plradd ia,ip,cpol           11           0  0.25051627    

 Point added to stored polar  1
 Point written to save file  sg6040_Re400k.base.pol                          
 Dump file unspecified or not available
 Calculating wake trajectory ...
 Calculating source influence matrix ...

 Solving BL system ...

 Side 1  free  transition at x/c =  0.6653   63
 Side 2  free  transition at x/c =  0.6958   59

   1   rms: 0.7746E-01   max: -.2515E+00   T at   59  2
       a =  1.500      CL =  0.5535
      Cm = -0.0897     CD =  0.00960   =>   CDf =  0.00586    CDp =  0.00374

 Side 1  free  transition at x/c =  0.6501   62
 Side 2  free  transition at x/c =  0.7025   59

   2   rms: 0.1445E-01   max: -.1522E+00   D at   62  1
       a =  1.500      CL =  0.5533
      Cm = -0.0897     CD =  0.00964   =>   CDf =  0.00590    CDp =  0.00374

 Side 1  free  transition at x/c =  0.6490   62
 Side 2  free  transition at x/c =  0.7029   59

   3   rms: 0.3479E-03   max: -.3371E-02   D at   64  1
       a =  1.500      CL =  0.5534
      Cm = -0.0897     CD =  0.00965   =>   CDf =  0.00587    CDp =  0.00378

 Side 1  free  transition at x/c =  0.6489   62
 Side 2  free  transition at x/c =  0.7029   59

   4   rms: 0.1980E-05   max: -.2519E-04   D at   64  1
       a =  1.500      CL =  0.5534
      Cm = -0.0897     CD =  0.00965   =>   CDf =  0.00587    CDp =  0.00378
 plradd ia,ip,cpol           12           0  0.23508103    

 Point added to stored polar  1
 Point written to save file  sg6040_Re400k.base.pol                          
 Dump file unspecified or not available
 Calculating wake trajectory ...
 Calculating source influence matrix ...

 Solving BL system ...

 Side 1  free  transition at x/c =  0.6489   62
 Side 2  free  transition at x/c =  0.7029   59

   1   rms: 0.7673E-01   max: -.1883E+00   T at   59  2
       a =  2.000      CL =  0.6077
      Cm = -0.0895     CD =  0.00976   =>   CDf =  0.00580    CDp =  0.00396

 Side 1  free  transition at x/c =  0.6335   62
 Side 2  free  transition at x/c =  0.7098   58

   2   rms: 0.1402E-01   max: -.1551E+00   D at   62  1
       a =  2.000      CL =  0.6077
      Cm = -0.0895     CD =  0.00976   =>   CDf =  0.00597    CDp =  0.00379

 Side 1  free  transition at x/c =  0.6328   62
 Side 2  free  transition at x/c =  0.7107   58

   3   rms: 0.7010E-03   max: 0.7871E-02   D at   59  2
       a =  2.000      CL =  0.6078
      Cm = -0.0896     CD =  0.00977   =>   CDf =  0.00594    CDp =  0.00384

 Side 1  free  transition at x/c =  0.6326   62
 Side 2  free  transition at x/c =  0.7106   58

   4   rms: 0.3637E-05   max: 0.4780E-04   D at   59  2
       a =  2.000      CL =  0.6078
      Cm = -0.0896     CD =  0.00977   =>   CDf =  0.00594    CDp =  0.00383
 plradd ia,ip,cpol           13           0  0.23508103    

 Point added to stored polar  1
 Point written to save file  sg6040_Re400k.base.pol                          
 Dump file unspecified or not available
 Calculating wake trajectory ...
 Calculating source influence matrix ...

 Solving BL system ...

 Side 1  free  transition at x/c =  0.6326   62
 Side 2  free  transition at x/c =  0.7106   58

   1   rms: 0.7792E-01   max: -.2255E+00   T at   58  2
       a =  2.500      CL =  0.6624
      Cm = -0.0895     CD =  0.00993   =>   CDf =  0.00585    CDp =  0.00409

 Side 1  free  transition at x/c =  0.6171   62
 Side 2  free  transition at x/c =  0.7208   58

   2   rms: 0.2340E-01   max: 0.3309E+00   D at   58  2
       a =  2.500      CL =  0.6611
      Cm = -0.0891     CD =  0.00983   =>   CDf =  0.00593    CDp =  0.00390

 Side 1  free  transition at x/c =  0.6163   62
 Side 2  free  transition at x/c =  0.7184   58

   3   rms: 0.3323E-02   max: 0.3623E-01   D at   58  2
       a =  2.500      CL =  0.6611
      Cm = -0.0891     CD =  0.00986   =>   CDf =  0.00592    CDp =  0.00394

 Side 1  free  transition at x/c =  0.6162   62
 Side 2  free  transition at x/c =  0.7176   58

   4   rms: 0.6992E-04   max: -.1364E-02   D at   60  2
       a =  2.500      CL =  0.6611
      Cm = -0.0891     CD =  0.00986   =>   CDf =  0.00593    CDp =  0.00393
 plradd ia,ip,cpol           14           0  0.21976297    

 Point added to stored polar  1
 Point written to save file  sg6040_Re400k.base.pol                          
 Dump file unspecified or not available
 Calculating wake trajectory ...
 Calculating source influence matrix ...

 Solving BL system ...

 Side 1  free  transition at x/c =  0.6162   62
 Side 2  free  transition at x/c =  0.7176   58

   1   rms: 0.7633E-01   max: -.1930E+00   T at   58  2
       a =  3.000      CL =  0.7142
      Cm = -0.0886     CD =  0.00999   =>   CDf =  0.00593    CDp =  0.00406

 Side 1  free  transition at x/c =  0.5999   61
 Side 2  free  transition at x/c =  0.7252   58

   2   rms: 0.1359E-01   max: -.1671E+00   D at   61  1
       a =  3.000      CL =  0.7141
      Cm = -0.0887     CD =  0.01000   =>   CDf =  0.00599    CDp =  0.00401

 Side 1  free  transition at x/c =  0.5998   61
 Side 2  free  transition at x/c =  0.7259   58

   3   rms: 0.8149E-03   max: 0.9625E-02   C at   61  1
       a =  3.000      CL =  0.7143
      Cm = -0.0887     CD =  0.01002   =>   CDf =  0.00594    CDp =  0.00407

 Side 1  free  transition at x/c =  0.5995   61
 Side 2  free  transition at x/c =  0.7258   58

   4   rms: 0.5260E-05   max: -.9040E-04   D at   63  1
       a =  3.000      CL =  0.7143
      Cm = -0.0887     CD =  0.01002   =>   CDf =  0.00595    CDp =  0.00407
 plradd ia,ip,cpol           15           0  0.17433664    

 Point added to stored polar  1
 Point written to save file  sg6040_Re400k.base.pol                          
 Dump file unspecified or not available
 Calculating wake trajectory ...
 Calculating source influence matrix ...

 Solving BL system ...

 Side 1  free  transition at x/c =  0.5995   61
 Side 2  free  transition at x/c =  0.7258   58

   1   rms: 0.7687E-01   max: -.1991E+00   T at   58  2
       a =  3.500      CL =  0.7677
      Cm = -0.0884     CD =  0.01020   =>   CDf =  0.00583    CDp =  0.00437

 Side 1  free  transition at x/c =  0.5832   61
 Side 2  free  transition at x/c =  0.7349   58

   2   rms: 0.1453E-01   max: -.1682E+00   D at   61  1
       a =  3.500      CL =  0.7666
      Cm = -0.0881     CD =  0.01015   =>   CDf =  0.00597    CDp =  0.00418

 Side 1  free  transition at x/c =  0.5831   61
 Side 2  free  transition at x/c =  0.7336   58

   3   rms: 0.1429E-02   max: 0.1638E-01   D at   58  2
       a =  3.500      CL =  0.7668
      Cm = -0.0882     CD =  0.01016   =>   CDf =  0.00593    CDp =  0.00424

 Side 1  free  transition at x/c =  0.5828   61
 Side 2  free  transition at x/c =  0.7335   58

   4   rms: 0.7632E-05   max: -.9218E-04   D at   63  1
       a =  3.500      CL =  0.7668
      Cm = -0.0882     CD =  0.01016   =>   CDf =  0.00593    CDp =  0.00423
 plradd ia,ip,cpol           16           0  0.10394976    

 Point added to stored polar  1
 Point written to save file  sg6040_Re400k.base.pol                          
 Dump file unspecified or not available
 Calculating wake trajectory ...
 Calculating source influence matrix ...

 Solving BL system ...

 Side 1  free  transition at x/c =  0.5828   61
 Side 2  free  transition at x/c =  0.7335   58

   1   rms: 0.7639E-01   max: -.2166E+00   T at   58  2
       a =  4.000      CL =  0.8185
      Cm = -0.0874     CD =  0.01033   =>   CDf =  0.00581    CDp =  0.00452

 Side 1  free  transition at x/c =  0.5627   61
 Side 2  free  transition at x/c =  0.7421   57

   2   rms: 0.2102E-01   max: -.2745E+00   D at   61  1
       a =  4.000      CL =  0.8178
      Cm = -0.0873     CD =  0.01033   =>   CDf =  0.00601    CDp =  0.00432

 Side 1  free  transition at x/c =  0.5651   61
 Side 2  free  transition at x/c =  0.7429   57

   3   rms: 0.3187E-02   max: 0.3885E-01   C at   61  1
       a =  4.000      CL =  0.8180
      Cm = -0.0874     CD =  0.01035   =>   CDf =  0.00591    CDp =  0.00444

 Side 1  free  transition at x/c =  0.5641   61
 Side 2  free  transition at x/c =  0.7428   57

   4   rms: 0.8182E-04   max: -.1212E-02   D at   63  1
       a =  4.000      CL =  0.8181
      Cm = -0.0874     CD =  0.01036   =>   CDf =  0.00594    CDp =  0.00442
 plradd ia,ip,cpol           17           0  5.94953075E-02

 Point added to stored polar  1
 Point written to save file  sg6040_Re400k.base.pol                          
 Dump file unspecified or not available
 Calculating wake trajectory ...
 Calculating source influence matrix ...

 Solving BL system ...

 Side 1  free  transition at x/c =  0.5640   61
 Side 2  free  transition at x/c =  0.7428   57

   1   rms: 0.7913E-01   max: -.2053E+00   T at   57  2
       a =  4.500      CL =  0.8690
      Cm = -0.0865     CD =  0.01061   =>   CDf =  0.00594    CDp =  0.00467

 Side 1  free  transition at x/c =  0.5424   60
 Side 2  free  transition at x/c =  0.7534   58

   2   rms: 0.2722E-01   max: -.3631E+00   D at   60  1
       a =  4.500      CL =  0.8673
      Cm = -0.0861     CD =  0.01047   =>   CDf =  0.00596    CDp =  0.00451

 Side 1  free  transition at x/c =  0.5450   60
 Side 2  free  transition at x/c =  0.7520   58

   3   rms: 0.6458E-02   max: 0.7794E-01   C at   60  1
       a =  4.500      CL =  0.8673
      Cm = -0.0861     CD =  0.01055   =>   CDf =  0.00590    CDp =  0.00465

 Side 1  free  transition at x/c =  0.5431   60
 Side 2  free  transition at x/c =  0.7518   58

   4   rms: 0.4111E-03   max: -.6778E-02   D at   61  1
       a =  4.500      CL =  0.8674
      Cm = -0.0862     CD =  0.01056   =>   CDf =  0.00595    CDp =  0.00461

 Side 1  free  transition at x/c =  0.5430   60
 Side 2  free  transition at x/c =  0.7518   58

   5   rms: 0.3395E-05   max: -.4532E-04   D at   61  1
       a =  4.500      CL =  0.8674
      Cm = -0.0862     CD =  0.01056   =>   CDf =  0.00595    CDp =  0.00460
 plradd ia,ip,cpol           18           0  5.09727001E-02

 Point added to stored polar  1
 Point written to save file  sg6040_Re400k.base.pol                          
 Dump file unspecified or not available
 Calculating wake trajectory ...
 Calculating source influence matrix ...

 Solving BL system ...

 Side 1  free  transition at x/c =  0.5430   60
 Side 2  free  transition at x/c =  0.7518   58

   1   rms: 0.8219E-01   max: -.3986E+00   D at   61  1
       a =  5.000      CL =  0.9173
      Cm = -0.0852     CD =  0.01097   =>   CDf =  0.00580    CDp =  0.00517

 Side 1  free  transition at x/c =  0.5224   59
 Side 2  free  transition at x/c =  0.7613   57

   2   rms: 0.2094E-01   max: 0.2919E+00   D at   60  1
       a =  5.000      CL =  0.9159
      Cm = -0.0849     CD =  0.01079   =>   CDf =  0.00595    CDp =  0.00484

 Side 1  free  transition at x/c =  0.5219   59
 Side 2  free  transition at x/c =  0.7631   58

   3   rms: 0.2085E-02   max: 0.2341E-01   C at   59  1
       a =  5.000      CL =  0.9161
      Cm = -0.0849     CD =  0.01078   =>   CDf =  0.00592    CDp =  0.00486

 Side 1  free  transition at x/c =  0.5210   59
 Side 2  free  transition at x/c =  0.7629   57

   4   rms: 0.2283E-03   max: 0.4012E-02   D at   58  2
       a =  5.000      CL =  0.9161
      Cm = -0.0849     CD =  0.01078   =>   CDf =  0.00593    CDp =  0.00485

 Side 1  free  transition at x/c =  0.5210   59
 Side 2  free  transition at x/c =  0.7629   57

   5   rms: 0.1406E-05   max: 0.1878E-04   D at   58  2
       a =  5.000      CL =  0.9161
      Cm = -0.0849     CD =  0.01078   =>   CDf =  0.00593    CDp =  0.00485
 plradd ia,ip,cpol           19           0  2.21925918E-02

 Point added to stored polar  1
 Point written to save file  sg6040_Re400k.base.pol                          
 Dump file unspecified or not available
 Calculating wake trajectory ...
 Calculating source influence matrix ...

 Solving BL system ...

 Side 1  free  transition at x/c =  0.5210   59
 Side 2  free  transition at x/c =  0.7629   57

   1   rms: 0.7727E-01   max: -.2455E+00   T at   57  2
       a =  5.500      CL =  0.9648
      Cm = -0.0838     CD =  0.01098   =>   CDf =  0.00576    CDp =  0.00522

 Side 1  free  transition at x/c =  0.4944   59
 Side 2  free  transition at x/c =  0.7777   57

   2   rms: 0.2634E-01   max: -.3122E+00   D at   59  1
       a =  5.500      CL =  0.9607
      Cm = -0.0828     CD =  0.01096   =>   CDf =  0.00600    CDp =  0.00496

 Side 1  free  transition at x/c =  0.5001   59
 Side 2  free  transition at x/c =  0.7746   57

   3   rms: 0.5857E-02   max: 0.8605E-01   C at   59  1
       a =  5.500      CL =  0.9622
      Cm = -0.0831     CD =  0.01100   =>   CDf =  0.00583    CDp =  0.00517

 Side 1  free  transition at x/c =  0.4979   59
 Side 2  free  transition at x/c =  0.7744   57

   4   rms: 0.2319E-03   max: -.3283E-02   D at   61  1
       a =  5.500      CL =  0.9623
      Cm = -0.0832     CD =  0.01101   =>   CDf =  0.00587    CDp =  0.00514

 Side 1  free  transition at x/c =  0.4978   59
 Side 2  free  transition at x/c =  0.7744   57

   5   rms: 0.2953E-05   max: -.1155E-04   D at   88  1
       a =  5.500      CL =  0.9623
      Cm = -0.0832     CD =  0.01101   =>   CDf =  0.00587    CDp =  0.00514
 plradd ia,ip,cpol           20           0  1.85163356E-02

 Point added to stored polar  1
 Point written to save file  sg6040_Re400k.base.pol                          
 Dump file unspecified or not available
 Calculating wake trajectory ...
 Calculating source influence matrix ...

 Solving BL system ...

 Side 1  free  transition at x/c =  0.4978   59
 Side 2  free  transition at x/c =  0.7744   57

   1   rms: 0.7771E-01   max: -.3192E+00   D at   60  1
       a =  6.000      CL =  1.0084
      Cm = -0.0815     CD =  0.01135   =>   CDf =  0.00587    CDp =  0.00548

 Side 1  free  transition at x/c =  0.4754   57
 Side 2  free  transition at x/c =  0.7878   58

   2   rms: 0.2507E-01   max: -.3833E+00   D at   58  1
       a =  6.000      CL =  1.0066
      Cm = -0.0811     CD =  0.01126   =>   CDf =  0.00587    CDp =  0.00539

 Side 1  free  transition at x/c =  0.4779   58
 Side 2  free  transition at x/c =  0.7874   58

   3   rms: 0.3002E-02   max: -.3732E-01   D at   57  1
       a =  6.000      CL =  1.0076
      Cm = -0.0813     CD =  0.01133   =>   CDf =  0.00585    CDp =  0.00548

 Side 1  free  transition at x/c =  0.4761   58
 Side 2  free  transition at x/c =  0.7872   58

   4   rms: 0.1324E-03   max: -.1633E-02   D at   59  1
       a =  6.000      CL =  1.0076
      Cm = -0.0813     CD =  0.01133   =>   CDf =  0.00586    CDp =  0.00547

 Side 1  free  transition at x/c =  0.4761   58
 Side 2  free  transition at x/c =  0.7872   58

   5   rms: 0.1325E-05   max: 0.1226E-04   D at   58  1
       a =  6.000      CL =  1.0076
      Cm = -0.0813     CD =  0.01133   =>   CDf =  0.00586    CDp =  0.00546
 plradd ia,ip,cpol           21           0  1.53217111E-02

 Point added to stored polar  1
 Point written to save file  sg6040_Re400k.base.pol                          
 Dump file unspecified or not available
 Calculating wake trajectory ...
 Calculating source influence matrix ...

 Solving BL system ...

 Side 1  free  transition at x/c =  0.4761   58
 Side 2  free  transition at x/c =  0.7872   58

   1   rms: 0.8074E-01   max: -.3894E+00   D at   58  1
       a =  6.500      CL =  1.0509
      Cm = -0.0791     CD =  0.01187   =>   CDf =  0.00568    CDp =  0.00620

 Side 1  free  transition at x/c =  0.4478   57
 Side 2  free  transition at x/c =  0.8011   58

   2   rms: 0.2355E-01   max: 0.3459E+00   D at   58  1
       a =  6.500      CL =  1.0500
      Cm = -0.0789     CD =  0.01164   =>   CDf =  0.00587    CDp =  0.00577

 Side 1  free  transition at x/c =  0.4514   57
 Side 2  free  transition at x/c =  0.8031   58

   3   rms: 0.3138E-02   max: 0.4865E-01   C at   57  1
       a =  6.500      CL =  1.0504
      Cm = -0.0790     CD =  0.01162   =>   CDf =  0.00576    CDp =  0.00586

 Side 1  free  transition at x/c =  0.4500   57
 Side 2  free  transition at x/c =  0.8029   58

   4   rms: 0.5667E-04   max: -.1079E-02   D at   58  1
       a =  6.500      CL =  1.0504
      Cm = -0.0790     CD =  0.01162   =>   CDf =  0.00578    CDp =  0.00584
 plradd ia,ip,cpol           22           0  1.25422990E-02

 Point added to stored polar  1
 Point written to save file  sg6040_Re400k.base.pol                          
 Dump file unspecified or not available
 Calculating wake trajectory ...
 Calculating source influence matrix ...

 Solving BL system ...

 Side 1  free  transition at x/c =  0.4500   57
 Side 2  free  transition at x/c =  0.8029   58

   1   rms: 0.7930E-01   max: 0.3807E+00   C at   57  1
       a =  7.000      CL =  1.0893
      Cm = -0.0759     CD =  0.01198   =>   CDf =  0.00558    CDp =  0.00640

 Side 1  free  transition at x/c =  0.4198   56
 Side 2  free  transition at x/c =  0.8180   58

   2   rms: 0.1885E-01   max: 0.2466E+00   D at   57  1
       a =  7.000      CL =  1.0890
      Cm = -0.0759     CD =  0.01202   =>   CDf =  0.00582    CDp =  0.00620

 Side 1  free  transition at x/c =  0.4229   56
 Side 2  free  transition at x/c =  0.8223   58

   3   rms: 0.2104E-02   max: 0.2963E-01   C at   56  1
       a =  7.000      CL =  1.0891
      Cm = -0.0759     CD =  0.01201   =>   CDf =  0.00573    CDp =  0.00629

 Side 1  free  transition at x/c =  0.4220   56
 Side 2  free  transition at x/c =  0.8219   58

   4   rms: 0.2377E-04   max: -.2424E-03   C at   58  2
       a =  7.000      CL =  1.0891
      Cm = -0.0759     CD =  0.01202   =>   CDf =  0.00574    CDp =  0.00628
 plradd ia,ip,cpol           23           0  1.25422990E-02

 Point added to stored polar  1
 Point written to save file  sg6040_Re400k.base.pol                          
 Dump file unspecified or not available
 Calculating wake trajectory ...
 Calculating source influence matrix ...

 Solving BL system ...

 Side 1  free  transition at x/c =  0.4220   56
 Side 2  free  transition at x/c =  0.8219   58

   1   rms: 0.7612E-01   max: 0.2911E+00   C at   56  1
       a =  7.500      CL =  1.1287
      Cm = -0.0730     CD =  0.01233   =>   CDf =  0.00574    CDp =  0.00659

 Side 1  free  transition at x/c =  0.3865   54
 Side 2  free  transition at x/c =  0.8421   59

   2   rms: 0.1754E-01   max: 0.2307E+00   D at   55  1
       a =  7.500      CL =  1.1216
      Cm = -0.0717     CD =  0.01245   =>   CDf =  0.00579    CDp =  0.00666

 Side 1  free  transition at x/c =  0.3935   54
 Side 2  free  transition at x/c =  0.8463   59

   3   rms: 0.1198E-02   max: -.1549E-01   C at   59  2
       a =  7.500      CL =  1.1218
      Cm = -0.0717     CD =  0.01246   =>   CDf =  0.00571    CDp =  0.00675

 Side 1  free  transition at x/c =  0.3927   54
 Side 2  free  transition at x/c =  0.8464   59

   4   rms: 0.3507E-04   max: -.4623E-03   C at   54  1
       a =  7.500      CL =  1.1218
      Cm = -0.0717     CD =  0.01246   =>   CDf =  0.00571    CDp =  0.00675
 plradd ia,ip,cpol           24           0  8.02308414E-03

 Point added to stored polar  1
 Point written to save file  sg6040_Re400k.base.pol                          
 Dump file unspecified or not available
 Calculating wake trajectory ...
 Calculating source influence matrix ...

 Solving BL system ...

 Side 1  free  transition at x/c =  0.3928   54
 Side 2  free  transition at x/c =  0.8464   59

   1   rms: 0.7385E-01   max: -.2541E+00   T at   59  2
       a =  8.000      CL =  1.1614
      Cm = -0.0689     CD =  0.01276   =>   CDf =  0.00550    CDp =  0.00727

 Side 1  free  transition at x/c =  0.3495   53
 Side 2  free  transition at x/c =  0.8791   60

   2   rms: 0.2881E-01   max: -.2870E+00   C at   60  2
       a =  8.000      CL =  1.1485
      Cm = -0.0664     CD =  0.01292   =>   CDf =  0.00579    CDp =  0.00713

 Side 1  free  transition at x/c =  0.3603   53
 Side 2  free  transition at x/c =  0.8874   61

   3   rms: 0.5295E-02   max: -.6367E-01   D at   60  2
       a =  8.000      CL =  1.1467
      Cm = -0.0660     CD =  0.01295   =>   CDf =  0.00563    CDp =  0.00733

 Side 1  free  transition at x/c =  0.3606   53
 Side 2  free  transition at x/c =  0.8843   61

   4   rms: 0.6373E-03   max: 0.1111E-01   C at   61  2
       a =  8.000      CL =  1.1467
      Cm = -0.0660     CD =  0.01295   =>   CDf =  0.00562    CDp =  0.00733

 Side 1  free  transition at x/c =  0.3606   53
 Side 2  free  transition at x/c =  0.8840   61

   5   rms: 0.2350E-05   max: -.3735E-04   D at   63  2
       a =  8.000      CL =  1.1467
      Cm = -0.0660     CD =  0.01295   =>   CDf =  0.00562    CDp =  0.00733
 plradd ia,ip,cpol           25           0  6.21343544E-03

 Point added to stored polar  1
 Point written to save file  sg6040_Re400k.base.pol                          
 Dump file unspecified or not available
 Calculating wake trajectory ...
 Calculating source influence matrix ...

 Solving BL system ...

 Side 1  free  transition at x/c =  0.3606   53
 Side 2  free  transition at x/c =  0.8840   61

   1   rms: 0.9172E-01   max: -.1172E+01   C at   61  2   RLX: 0.427
       a =  8.500      CL =  1.1586
      Cm = -0.0637     CD =  0.01306   =>   CDf =  0.00563    CDp =  0.00743

 Side 1  free  transition at x/c =  0.3417   52
 Side 2  free  transition at x/c =  0.9038   62

   2   rms: 0.7634E-01   max: -.1334E+01   C at   62  2   RLX: 0.375
       a =  8.500      CL =  1.1613
      Cm = -0.0623     CD =  0.01322   =>   CDf =  0.00564    CDp =  0.00758

 Side 1  free  transition at x/c =  0.3342   52
 Side 2  free  transition at x/c =  0.9205   63

   3   rms: 0.1141E+00   max: -.2158E+01   C at   63  2   RLX: 0.232
       a =  8.500      CL =  1.1612
      Cm = -0.0616     CD =  0.01329   =>   CDf =  0.00560    CDp =  0.00768

 Side 1  free  transition at x/c =  0.3319   52
 Side 2  free  transition at x/c =  0.9284   64

   4   rms: 0.1037E+00   max: -.1936E+01   C at   64  2   RLX: 0.258
       a =  8.500      CL =  1.1615
      Cm = -0.0609     CD =  0.01335   =>   CDf =  0.00561    CDp =  0.00774

 Side 1  free  transition at x/c =  0.3300   52
 Side 2  free  transition at x/c =  0.9422   64

   5   rms: 0.9061E-01   max: -.1645E+01   C at   64  2   RLX: 0.304
       a =  8.500      CL =  1.1640
      Cm = -0.0609     CD =  0.01345   =>   CDf =  0.00559    CDp =  0.00786

 Side 1  free  transition at x/c =  0.3278   51
 Side 2 forced transition at x/c =  1.0000   69

   6   rms: 0.2463E-01   max: -.2408E+00   D at   64  2
       a =  8.500      CL =  1.1778
      Cm = -0.0620     CD =  0.01356   =>   CDf =  0.00555    CDp =  0.00801

 Side 1  free  transition at x/c =  0.3158   51
 Side 2 forced transition at x/c =  1.0000   69

   7   rms: 0.5686E-02   max: -.8630E-01   C at   51  1
       a =  8.500      CL =  1.1748
      Cm = -0.0614     CD =  0.01361   =>   CDf =  0.00563    CDp =  0.00798

 Side 1  free  transition at x/c =  0.3184   51
 Side 2 forced transition at x/c =  1.0000   69

   8   rms: 0.1117E-03   max: -.1538E-02   C at   51  1
       a =  8.500      CL =  1.1748
      Cm = -0.0614     CD =  0.01361   =>   CDf =  0.00560    CDp =  0.00802

 Side 1  free  transition at x/c =  0.3184   51
 Side 2 forced transition at x/c =  1.0000   69

   9   rms: 0.2702E-05   max: 0.3181E-04   C at   51  1
       a =  8.500      CL =  1.1748
      Cm = -0.0614     CD =  0.01361   =>   CDf =  0.00560    CDp =  0.00802
 plradd ia,ip,cpol           26           0  6.21343544E-03

 Point added to stored polar  1
 Point written to save file  sg6040_Re400k.base.pol                          
 Dump file unspecified or not available
 Calculating wake trajectory ...
 Calculating source influence matrix ...

 Solving BL system ...

 Side 1  free  transition at x/c =  0.3184   51
 Side 2 forced transition at x/c =  1.0000   69

   1   rms: 0.1042E+00   max: 0.1165E+01   C at   51  1   RLX: 0.910
       a =  9.000      CL =  1.1983
      Cm = -0.0577     CD =  0.01478   =>   CDf =  0.00541    CDp =  0.00937

 Side 1  free  transition at x/c =  0.2675   49
 Side 2 forced transition at x/c =  1.0000   68

   2   rms: 0.1911E-01   max: 0.4795E-01   D at   90  1
       a =  9.000      CL =  1.1981
      Cm = -0.0569     CD =  0.01494   =>   CDf =  0.00590    CDp =  0.00905

 Side 1  free  transition at x/c =  0.2676   49
 Side 2 forced transition at x/c =  1.0000   68

   3   rms: 0.1533E-02   max: 0.2160E-01   C at   49  1
       a =  9.000      CL =  1.1977
      Cm = -0.0568     CD =  0.01497   =>   CDf =  0.00585    CDp =  0.00912

 Side 1  free  transition at x/c =  0.2671   49
 Side 2 forced transition at x/c =  1.0000   68

   4   rms: 0.2614E-04   max: -.1464E-03   C at   49  1
       a =  9.000      CL =  1.1977
      Cm = -0.0568     CD =  0.01496   =>   CDf =  0.00585    CDp =  0.00911
 plradd ia,ip,cpol           27           0  6.21343544E-03

 Point added to stored polar  1
 Point written to save file  sg6040_Re400k.base.pol                          
 Dump file unspecified or not available
 Calculating wake trajectory ...
 Calculating source influence matrix ...

 Solving BL system ...

 Side 1  free  transition at x/c =  0.2671   49
 Side 2 forced transition at x/c =  1.0000   68

   1   rms: 0.1155E+00   max: 0.1473E+01   C at   49  1   RLX: 0.709
       a =  9.500      CL =  1.2061
      Cm = -0.0526     CD =  0.01634   =>   CDf =  0.00585    CDp =  0.01049

 Side 1  free  transition at x/c =  0.2257   46
 Side 2 forced transition at x/c =  1.0000   68

   2   rms: 0.3315E-01   max: 0.3620E+00   C at   46  1
       a =  9.500      CL =  1.2137
      Cm = -0.0516     CD =  0.01675   =>   CDf =  0.00608    CDp =  0.01067

 Side 1  free  transition at x/c =  0.2082   45
 Side 2 forced transition at x/c =  1.0000   68

   3   rms: 0.3784E-02   max: -.6721E-01   C at   45  1
       a =  9.500      CL =  1.2129
      Cm = -0.0515     CD =  0.01675   =>   CDf =  0.00617    CDp =  0.01058

 Side 1  free  transition at x/c =  0.2098   45
 Side 2 forced transition at x/c =  1.0000   68

   4   rms: 0.4753E-04   max: -.6987E-03   C at   45  1
       a =  9.500      CL =  1.2129
      Cm = -0.0515     CD =  0.01676   =>   CDf =  0.00616    CDp =  0.01060
 plradd ia,ip,cpol           28           0  6.21343544E-03

 Point added to stored polar  1
 Point written to save file  sg6040_Re400k.base.pol                          
 Dump file unspecified or not available
 Calculating wake trajectory ...
 Calculating source influence matrix ...

 Solving BL system ...

 Side 1  free  transition at x/c =  0.2098   45
 Side 2 forced transition at x/c =  1.0000   68

   1   rms: 0.1195E+00   max: 0.1851E+01   C at   45  1   RLX: 0.778
       a = 10.000      CL =  1.2221
      Cm = -0.0472     CD =  0.01845   =>   CDf =  0.00616    CDp =  0.01230

 Side 1  free  transition at x/c =  0.1722   42
 Side 2 forced transition at x/c =  1.0000   68

   2   rms: 0.2126E-01   max: 0.7011E-01   D at   87  1
       a = 10.000      CL =  1.2280
      Cm = -0.0466     CD =  0.01875   =>   CDf =  0.00618    CDp =  0.01258

 Side 1  free  transition at x/c =  0.1616   43
 Side 2 forced transition at x/c =  1.0000   67

   3   rms: 0.6627E-02   max: -.7325E-01   C at   43  1
       a = 10.000      CL =  1.2254
      Cm = -0.0462     CD =  0.01886   =>   CDf =  0.00644    CDp =  0.01243

 Side 1  free  transition at x/c =  0.1635   43
 Side 2 forced transition at x/c =  1.0000   67

   4   rms: 0.1063E-02   max: -.1362E-01   D at    4  1
       a = 10.000      CL =  1.2254
      Cm = -0.0462     CD =  0.01887   =>   CDf =  0.00641    CDp =  0.01246

 Side 1  free  transition at x/c =  0.1635   43
 Side 2 forced transition at x/c =  1.0000   67

   5   rms: 0.1789E-05   max: 0.1451E-04   D at    6  1
       a = 10.000      CL =  1.2254
      Cm = -0.0462     CD =  0.01887   =>   CDf =  0.00641    CDp =  0.01246
 plradd ia,ip,cpol           29           0  6.21343544E-03

 Point added to stored polar  1
 Point written to save file  sg6040_Re400k.base.pol                          
 Dump file unspecified or not available

.OPERva   c>  
 Solving BL system ...

 Side 1  free  transition at x/c =  0.1635   43
 Side 2 forced transition at x/c =  1.0000   67

   1   rms: 0.9609E-06   max: -.1085E-04   D at    4  1
       a = 10.000      CL =  1.2254
      Cm = -0.0462     CD =  0.01887   =>   CDf =  0.00641    CDp =  0.01246
 plradd ia,ip,cpol           30         182  6.21343544E-03

 Point added to stored polar  1
 Point written to save file  sg6040_Re400k.base.pol                          
 Dump file unspecified or not available
 Calculating wake trajectory ...
 Calculating source influence matrix ...

 Solving BL system ...

 Side 1  free  transition at x/c =  0.1635   43
 Side 2 forced transition at x/c =  1.0000   67

   1   rms: 0.5259E-01   max: 0.6607E+00   C at   43  1
       a = 10.250      CL =  1.2306
      Cm = -0.0437     CD =  0.02011   =>   CDf =  0.00641    CDp =  0.01370

 Side 1  free  transition at x/c =  0.1457   42
 Side 2 forced transition at x/c =  1.0000   67

   2   rms: 0.6084E-02   max: 0.9587E-01   D at   42  1
       a = 10.250      CL =  1.2314
      Cm = -0.0438     CD =  0.02001   =>   CDf =  0.00652    CDp =  0.01349

 Side 1  free  transition at x/c =  0.1456   42
 Side 2 forced transition at x/c =  1.0000   67

   3   rms: 0.4658E-03   max: 0.6162E-02   C at   42  1
       a = 10.250      CL =  1.2314
      Cm = -0.0438     CD =  0.02001   =>   CDf =  0.00651    CDp =  0.01350

 Side 1  free  transition at x/c =  0.1455   42
 Side 2 forced transition at x/c =  1.0000   67

   4   rms: 0.1331E-04   max: 0.6399E-04   D at   86  1
       a = 10.250      CL =  1.2314
      Cm = -0.0438     CD =  0.02001   =>   CDf =  0.00651    CDp =  0.01350
 plradd ia,ip,cpol           31           0  4.68340935E-03

 Point added to stored polar  1
 Point written to save file  sg6040_Re400k.base.pol                          
 Dump file unspecified or not available
 Calculating wake trajectory ...
 Calculating source influence matrix ...

 Solving BL system ...

 Side 1  free  transition at x/c =  0.1455   42
 Side 2 forced transition at x/c =  1.0000   67

   1   rms: 0.5029E-01   max: 0.4102E+00   C at   42  1   RLX: 0.967
       a = 10.500      CL =  1.2347
      Cm = -0.0413     CD =  0.02137   =>   CDf =  0.00651    CDp =  0.01486

 Side 1  free  transition at x/c =  0.1307   40
 Side 2 forced transition at x/c =  1.0000   67

   2   rms: 0.1010E-01   max: 0.1366E+00   D at   41  1
       a = 10.500      CL =  1.2381
      Cm = -0.0416     CD =  0.02116   =>   CDf =  0.00659    CDp =  0.01457

 Side 1  free  transition at x/c =  0.1298   40
 Side 2 forced transition at x/c =  1.0000   67

   3   rms: 0.7366E-03   max: 0.1501E-01   C at   40  1
       a = 10.500      CL =  1.2382
      Cm = -0.0416     CD =  0.02115   =>   CDf =  0.00658    CDp =  0.01457

 Side 1  free  transition at x/c =  0.1295   40
 Side 2 forced transition at x/c =  1.0000   67

   4   rms: 0.1435E-04   max: -.1212E-03   C at   40  1
       a = 10.500      CL =  1.2382
      Cm = -0.0416     CD =  0.02115   =>   CDf =  0.00658    CDp =  0.01457
 plradd ia,ip,cpol           32           0  6.21343544E-03

 Point added to stored polar  1
 Point written to save file  sg6040_Re400k.base.pol                          
 Dump file unspecified or not available
 Calculating wake trajectory ...
 Calculating source influence matrix ...

 Solving BL system ...

 Side 1  free  transition at x/c =  0.1295   40
 Side 2 forced transition at x/c =  1.0000   67

   1   rms: 0.3909E-01   max: 0.3425E+00   C at   40  1   RLX: 0.941
       a = 10.750      CL =  1.2495
      Cm = -0.0402     CD =  0.02204   =>   CDf =  0.00658    CDp =  0.01545

 Side 1  free  transition at x/c =  0.1146   39
 Side 2 forced transition at x/c =  1.0000   67

   2   rms: 0.7670E-02   max: -.1050E+00   C at   39  1
       a = 10.750      CL =  1.2450
      Cm = -0.0396     CD =  0.02236   =>   CDf =  0.00667    CDp =  0.01569

 Side 1  free  transition at x/c =  0.1158   39
 Side 2 forced transition at x/c =  1.0000   67

   3   rms: 0.2144E-03   max: -.3306E-02   D at   40  1
       a = 10.750      CL =  1.2450
      Cm = -0.0396     CD =  0.02235   =>   CDf =  0.00664    CDp =  0.01571

 Side 1  free  transition at x/c =  0.1158   39
 Side 2 forced transition at x/c =  1.0000   67

   4   rms: 0.3516E-05   max: -.1768E-04   C at   39  1
       a = 10.750      CL =  1.2450
      Cm = -0.0396     CD =  0.02235   =>   CDf =  0.00664    CDp =  0.01571
 plradd ia,ip,cpol           33           0  4.68340935E-03

 Point added to stored polar  1
 Point written to save file  sg6040_Re400k.base.pol                          
 Dump file unspecified or not available
 Calculating wake trajectory ...
 Calculating source influence matrix ...

 Solving BL system ...

 Side 1  free  transition at x/c =  0.1158   39
 Side 2 forced transition at x/c =  1.0000   67

   1   rms: 0.3846E-01   max: 0.2715E+00   C at   39  1   RLX: 0.901
       a = 11.000      CL =  1.2555
      Cm = -0.0382     CD =  0.02326   =>   CDf =  0.00664    CDp =  0.01661

 Side 1  free  transition at x/c =  0.1033   38
 Side 2 forced transition at x/c =  1.0000   67

   2   rms: 0.7805E-02   max: -.7292E-01   C at   38  1
       a = 11.000      CL =  1.2509
      Cm = -0.0376     CD =  0.02367   =>   CDf =  0.00673    CDp =  0.01694

 Side 1  free  transition at x/c =  0.1039   38
 Side 2 forced transition at x/c =  1.0000   67

   3   rms: 0.2354E-03   max: 0.3162E-02   D at   76  2
       a = 11.000      CL =  1.2508
      Cm = -0.0376     CD =  0.02366   =>   CDf =  0.00670    CDp =  0.01696

 Side 1  free  transition at x/c =  0.1038   38
 Side 2 forced transition at x/c =  1.0000   67

   4   rms: 0.4826E-05   max: -.5633E-04   C at   67  2
       a = 11.000      CL =  1.2508
      Cm = -0.0376     CD =  0.02366   =>   CDf =  0.00670    CDp =  0.01696
 plradd ia,ip,cpol           34           0  4.68340935E-03

 Point added to stored polar  1
 Point written to save file  sg6040_Re400k.base.pol                          
 Dump file unspecified or not available
 Calculating wake trajectory ...
 Calculating source influence matrix ...

 Solving BL system ...

 Side 1  free  transition at x/c =  0.1038   38
 Side 2 forced transition at x/c =  1.0000   67

   1   rms: 0.3558E-01   max: 0.1427E+00   T at   38  1   RLX: 0.867
       a = 11.250      CL =  1.2626
      Cm = -0.0365     CD =  0.02445   =>   CDf =  0.00646    CDp =  0.01800

 Side 1  free  transition at x/c =  0.0940   39
 Side 2 forced transition at x/c =  1.0000   66

   2   rms: 0.7497E-02   max: 0.4297E-01   D at   83  1
       a = 11.250      CL =  1.2584
      Cm = -0.0358     CD =  0.02492   =>   CDf =  0.00674    CDp =  0.01818

 Side 1  free  transition at x/c =  0.0941   39
 Side 2 forced transition at x/c =  1.0000   66

   3   rms: 0.4919E-03   max: -.4938E-02   D at    4  1
       a = 11.250      CL =  1.2582
      Cm = -0.0358     CD =  0.02491   =>   CDf =  0.00672    CDp =  0.01819

 Side 1  free  transition at x/c =  0.0942   39
 Side 2 forced transition at x/c =  1.0000   66

   4   rms: 0.5675E-05   max: -.1047E-03   C at   66  2
       a = 11.250      CL =  1.2582
      Cm = -0.0358     CD =  0.02491   =>   CDf =  0.00672    CDp =  0.01819
 plradd ia,ip,cpol           35           0  4.68340935E-03

 Point added to stored polar  1
 Point written to save file  sg6040_Re400k.base.pol                          
 Dump file unspecified or not available
 Calculating wake trajectory ...
 Calculating source influence matrix ...

 Solving BL system ...

 Side 1  free  transition at x/c =  0.0942   39
 Side 2 forced transition at x/c =  1.0000   66

   1   rms: 0.4313E-01   max: -.2704E+00   D at   39  1   RLX: 0.821
       a = 11.500      CL =  1.2616
      Cm = -0.0342     CD =  0.02626   =>   CDf =  0.00672    CDp =  0.01954

 Side 1  free  transition at x/c =  0.0884   38
 Side 2 forced transition at x/c =  1.0000   66

   2   rms: 0.9870E-02   max: -.1101E+00   D at   38  1
       a = 11.500      CL =  1.2664
      Cm = -0.0342     CD =  0.02616   =>   CDf =  0.00670    CDp =  0.01946

 Side 1  free  transition at x/c =  0.0861   38
 Side 2 forced transition at x/c =  1.0000   66

   3   rms: 0.1222E-02   max: 0.5179E-02   D at   82  1
       a = 11.500      CL =  1.2654
      Cm = -0.0342     CD =  0.02624   =>   CDf =  0.00672    CDp =  0.01952

 Side 1  free  transition at x/c =  0.0863   38
 Side 2 forced transition at x/c =  1.0000   66

   4   rms: 0.1118E-04   max: 0.1364E-03   D at   76  2
       a = 11.500      CL =  1.2654
      Cm = -0.0341     CD =  0.02624   =>   CDf =  0.00671    CDp =  0.01952
 plradd ia,ip,cpol           36           0  4.68340935E-03

 Point added to stored polar  1
 Point written to save file  sg6040_Re400k.base.pol                          
 Dump file unspecified or not available
 Calculating wake trajectory ...
 Calculating source influence matrix ...

 Solving BL system ...

 Side 1  free  transition at x/c =  0.0863   38
 Side 2 forced transition at x/c =  1.0000   66

   1   rms: 0.3866E-01   max: 0.2111E+00   C at   38  1   RLX: 0.797
       a = 11.750      CL =  1.2716
      Cm = -0.0330     CD =  0.02737   =>   CDf =  0.00672    CDp =  0.02065

 Side 1  free  transition at x/c =  0.0801   38
 Side 2 forced transition at x/c =  1.0000   66

   2   rms: 0.1044E-01   max: 0.5277E-01   D at   81  1
       a = 11.750      CL =  1.2681
      Cm = -0.0323     CD =  0.02797   =>   CDf =  0.00677    CDp =  0.02120

 Side 1  free  transition at x/c =  0.0792   37
 Side 2 forced transition at x/c =  1.0000   66

   3   rms: 0.2591E-02   max: -.3911E-01   C at   37  1
       a = 11.750      CL =  1.2690
      Cm = -0.0324     CD =  0.02785   =>   CDf =  0.00675    CDp =  0.02110

 Side 1  free  transition at x/c =  0.0793   37
 Side 2 forced transition at x/c =  1.0000   66

   4   rms: 0.1086E-03   max: 0.4777E-03   T at   37  1
       a = 11.750      CL =  1.2691
      Cm = -0.0324     CD =  0.02785   =>   CDf =  0.00675    CDp =  0.02110

 Side 1  free  transition at x/c =  0.0793   37
 Side 2 forced transition at x/c =  1.0000   66

   5   rms: 0.3357E-05   max: 0.4981E-04   C at   66  2
       a = 11.750      CL =  1.2691
      Cm = -0.0324     CD =  0.02785   =>   CDf =  0.00675    CDp =  0.02110
 plradd ia,ip,cpol           37           0  4.68340935E-03

 Point added to stored polar  1
 Point written to save file  sg6040_Re400k.base.pol                          
 Dump file unspecified or not available
 Calculating wake trajectory ...
 Calculating source influence matrix ...

 Solving BL system ...

 Side 1  free  transition at x/c =  0.0793   37
 Side 2 forced transition at x/c =  1.0000   66

   1   rms: 0.3471E-01   max: 0.1704E+00   T at   37  1   RLX: 0.771
       a = 12.000      CL =  1.2791
      Cm = -0.0316     CD =  0.02869   =>   CDf =  0.00675    CDp =  0.02194

 Side 1  free  transition at x/c =  0.0742   37
 Side 2 forced transition at x/c =  1.0000   66

   2   rms: 0.8821E-02   max: -.5864E-01   D at   37  1
       a = 12.000      CL =  1.2776
      Cm = -0.0311     CD =  0.02922   =>   CDf =  0.00673    CDp =  0.02249

 Side 1  free  transition at x/c =  0.0735   37
 Side 2 forced transition at x/c =  1.0000   66

   3   rms: 0.6639E-03   max: 0.6130E-02   D at   80  1
       a = 12.000      CL =  1.2771
      Cm = -0.0310     CD =  0.02921   =>   CDf =  0.00672    CDp =  0.02249

 Side 1  free  transition at x/c =  0.0735   37
 Side 2 forced transition at x/c =  1.0000   66

   4   rms: 0.1456E-04   max: 0.1173E-03   D at   76  2
       a = 12.000      CL =  1.2771
      Cm = -0.0310     CD =  0.02921   =>   CDf =  0.00672    CDp =  0.02249
 plradd ia,ip,cpol           38           0  4.68340935E-03

 Point added to stored polar  1
 Point written to save file  sg6040_Re400k.base.pol                          
 Dump file unspecified or not available
 Calculating wake trajectory ...
 Calculating source influence matrix ...

 Solving BL system ...

 Side 1  free  transition at x/c =  0.0735   37
 Side 2 forced transition at x/c =  1.0000   66

   1   rms: 0.3786E-01   max: -.1870E+00   D at   37  1   RLX: 0.739
       a = 12.250      CL =  1.2817
      Cm = -0.0300     CD =  0.03046   =>   CDf =  0.00672    CDp =  0.02374

 Side 1  free  transition at x/c =  0.0699   37
 Side 2 forced transition at x/c =  1.0000   66

   2   rms: 0.1264E-01   max: 0.5601E-01   D at   79  1
       a = 12.250      CL =  1.2787
      Cm = -0.0294     CD =  0.03118   =>   CDf =  0.00674    CDp =  0.02444

 Side 1  free  transition at x/c =  0.0688   36
 Side 2 forced transition at x/c =  1.0000   66

   3   rms: 0.1727E-02   max: -.2249E-01   C at   36  1
       a = 12.250      CL =  1.2789
      Cm = -0.0294     CD =  0.03109   =>   CDf =  0.00674    CDp =  0.02435

 Side 1  free  transition at x/c =  0.0688   36
 Side 2 forced transition at x/c =  1.0000   66

   4   rms: 0.8790E-04   max: -.3654E-03   D at   80  1
       a = 12.250      CL =  1.2789
      Cm = -0.0294     CD =  0.03109   =>   CDf =  0.00673    CDp =  0.02435
 plradd ia,ip,cpol           39           0  4.68340935E-03

 Point added to stored polar  1
 Point written to save file  sg6040_Re400k.base.pol                          
 Dump file unspecified or not available
 Calculating wake trajectory ...
 Calculating source influence matrix ...

 Solving BL system ...

 Side 1  free  transition at x/c =  0.0688   36
 Side 2 forced transition at x/c =  1.0000   66

   1   rms: 0.3432E-01   max: -.1997E+00   C at   36  1   RLX: 0.717
       a = 12.500      CL =  1.2882
      Cm = -0.0288     CD =  0.03195   =>   CDf =  0.00674    CDp =  0.02521

 Side 1  free  transition at x/c =  0.0657   36
 Side 2 forced transition at x/c =  1.0000   66

   2   rms: 0.9738E-02   max: -.5035E-01   D at   36  1
       a = 12.500      CL =  1.2886
      Cm = -0.0284     CD =  0.03248   =>   CDf =  0.00668    CDp =  0.02580

 Side 1  free  transition at x/c =  0.0647   36
 Side 2 forced transition at x/c =  1.0000   66

   3   rms: 0.9159E-03   max: 0.6370E-02   D at   78  1
       a = 12.500      CL =  1.2880
      Cm = -0.0283     CD =  0.03248   =>   CDf =  0.00667    CDp =  0.02581

 Side 1  free  transition at x/c =  0.0648   36
 Side 2 forced transition at x/c =  1.0000   66

   4   rms: 0.2533E-04   max: 0.2886E-03   D at   77  2
       a = 12.500      CL =  1.2879
      Cm = -0.0283     CD =  0.03247   =>   CDf =  0.00666    CDp =  0.02581
 plradd ia,ip,cpol           40           0  4.68340935E-03

 Point added to stored polar  1
 Point written to save file  sg6040_Re400k.base.pol                          
 Dump file unspecified or not available
 Calculating wake trajectory ...
 Calculating source influence matrix ...

 Solving BL system ...

 Side 1  free  transition at x/c =  0.0648   36
 Side 2 forced transition at x/c =  1.0000   66

   1   rms: 0.3492E-01   max: 0.1436E+00   T at   36  1   RLX: 0.691
       a = 12.750      CL =  1.2932
      Cm = -0.0276     CD =  0.03365   =>   CDf =  0.00636    CDp =  0.02728

 Side 1  free  transition at x/c =  0.0620   37
 Side 2 forced transition at x/c =  1.0000   65

   2   rms: 0.1204E-01   max: -.6003E-01   D at   37  1
       a = 12.750      CL =  1.2923
      Cm = -0.0272     CD =  0.03435   =>   CDf =  0.00666    CDp =  0.02769

 Side 1  free  transition at x/c =  0.0612   37
 Side 2 forced transition at x/c =  1.0000   65

   3   rms: 0.1135E-02   max: 0.7369E-02   D at   78  1
       a = 12.750      CL =  1.2915
      Cm = -0.0271     CD =  0.03434   =>   CDf =  0.00666    CDp =  0.02768

 Side 1  free  transition at x/c =  0.0613   37
 Side 2 forced transition at x/c =  1.0000   65

   4   rms: 0.3488E-04   max: 0.2530E-03   D at   76  2
       a = 12.750      CL =  1.2915
      Cm = -0.0271     CD =  0.03433   =>   CDf =  0.00666    CDp =  0.02768
 plradd ia,ip,cpol           41           0  4.68340935E-03

 Point added to stored polar  1
 Point written to save file  sg6040_Re400k.base.pol                          
 Dump file unspecified or not available
 Calculating wake trajectory ...
 Calculating source influence matrix ...

 Solving BL system ...

 Side 1  free  transition at x/c =  0.0613   37
 Side 2 forced transition at x/c =  1.0000   65

   1   rms: 0.3859E-01   max: 0.1360E+00   D at   76  1   RLX: 0.661
       a = 13.000      CL =  1.2923
      Cm = -0.0263     CD =  0.03588   =>   CDf =  0.00666    CDp =  0.02922

 Side 1  free  transition at x/c =  0.0593   36
 Side 2 forced transition at x/c =  1.0000   65

   2   rms: 0.1139E-01   max: -.7791E-01   C at   36  1
       a = 13.000      CL =  1.2952
      Cm = -0.0260     CD =  0.03632   =>   CDf =  0.00665    CDp =  0.02967

 Side 1  free  transition at x/c =  0.0584   36
 Side 2 forced transition at x/c =  1.0000   65

   3   rms: 0.1368E-02   max: 0.7749E-02   D at   77  1
       a = 13.000      CL =  1.2942
      Cm = -0.0259     CD =  0.03636   =>   CDf =  0.00661    CDp =  0.02974

 Side 1  free  transition at x/c =  0.0584   36
 Side 2 forced transition at x/c =  1.0000   65

   4   rms: 0.6903E-04   max: 0.4497E-03   D at   77  2
       a = 13.000      CL =  1.2941
      Cm = -0.0259     CD =  0.03635   =>   CDf =  0.00661    CDp =  0.02974
 plradd ia,ip,cpol           42           0  4.68340935E-03

 Point added to stored polar  1
 Point written to save file  sg6040_Re400k.base.pol                          
 Dump file unspecified or not available
 Calculating wake trajectory ...
 Calculating source influence matrix ...

 Solving BL system ...

 Side 1  free  transition at x/c =  0.0584   36
 Side 2 forced transition at x/c =  1.0000   65

   1   rms: 0.3277E-01   max: 0.1554E+00   T at   36  1   RLX: 0.646
       a = 13.250      CL =  1.3007
      Cm = -0.0255     CD =  0.03739   =>   CDf =  0.00662    CDp =  0.03078

 Side 1  free  transition at x/c =  0.0565   36
 Side 2 forced transition at x/c =  1.0000   65

   2   rms: 0.1174E-01   max: 0.4465E-01   T at   36  1
       a = 13.250      CL =  1.3021
      Cm = -0.0252     CD =  0.03807   =>   CDf =  0.00657    CDp =  0.03150

 Side 1  free  transition at x/c =  0.0556   36
 Side 2 forced transition at x/c =  1.0000   65

   3   rms: 0.8583E-03   max: 0.5442E-02   D at   77  2
       a = 13.250      CL =  1.3015
      Cm = -0.0251     CD =  0.03804   =>   CDf =  0.00654    CDp =  0.03149

 Side 1  free  transition at x/c =  0.0557   36
 Side 2 forced transition at x/c =  1.0000   65

   4   rms: 0.1745E-04   max: 0.2897E-03   D at   77  2
       a = 13.250      CL =  1.3015
      Cm = -0.0251     CD =  0.03803   =>   CDf =  0.00654    CDp =  0.03149
 plradd ia,ip,cpol           43           0  3.41660762E-03

 Point added to stored polar  1
 Point written to save file  sg6040_Re400k.base.pol                          
 Dump file unspecified or not available
 Calculating wake trajectory ...
 Calculating source influence matrix ...

 Solving BL system ...

 Side 1  free  transition at x/c =  0.0557   36
 Side 2 forced transition at x/c =  1.0000   65

   1   rms: 0.3317E-01   max: 0.1423E+00   T at   36  1   RLX: 0.626
       a = 13.500      CL =  1.3062
      Cm = -0.0247     CD =  0.03924   =>   CDf =  0.00654    CDp =  0.03270

 Side 1  free  transition at x/c =  0.0540   36
 Side 2 forced transition at x/c =  1.0000   65

   2   rms: 0.1339E-01   max: 0.5587E-01   D at   76  1
       a = 13.500      CL =  1.3059
      Cm = -0.0244     CD =  0.04014   =>   CDf =  0.00653    CDp =  0.03361

 Side 1  free  transition at x/c =  0.0533   36
 Side 2 forced transition at x/c =  1.0000   65

   3   rms: 0.1117E-02   max: 0.6694E-02   D at   77  2
       a = 13.500      CL =  1.3051
      Cm = -0.0243     CD =  0.04009   =>   CDf =  0.00652    CDp =  0.03358

 Side 1  free  transition at x/c =  0.0533   36
 Side 2 forced transition at x/c =  1.0000   65

   4   rms: 0.3083E-04   max: 0.2760E-03   D at   77  2
       a = 13.500      CL =  1.3051
      Cm = -0.0243     CD =  0.04009   =>   CDf =  0.00651    CDp =  0.03357
 plradd ia,ip,cpol           44           0  4.68340935E-03

 Point added to stored polar  1
 Point written to save file  sg6040_Re400k.base.pol                          
 Dump file unspecified or not available
 Calculating wake trajectory ...
 Calculating source influence matrix ...

 Solving BL system ...

 Side 1  free  transition at x/c =  0.0533   36
 Side 2 forced transition at x/c =  1.0000   65

   1   rms: 0.3568E-01   max: 0.1316E+00   T at   36  1   RLX: 0.603
       a = 13.750      CL =  1.3069
      Cm = -0.0239     CD =  0.04158   =>   CDf =  0.00652    CDp =  0.03506

 Side 1  free  transition at x/c =  0.0520   36
 Side 2 forced transition at x/c =  1.0000   65

   2   rms: 0.1719E-01   max: 0.7730E-01   D at   75  1
       a = 13.750      CL =  1.3038
      Cm = -0.0235     CD =  0.04287   =>   CDf =  0.00651    CDp =  0.03636

 Side 1  free  transition at x/c =  0.0511   36
 Side 2 forced transition at x/c =  1.0000   65

   3   rms: 0.2107E-02   max: 0.1084E-01   D at   78  2
       a = 13.750      CL =  1.3022
      Cm = -0.0234     CD =  0.04284   =>   CDf =  0.00650    CDp =  0.03634

 Side 1  free  transition at x/c =  0.0511   36
 Side 2 forced transition at x/c =  1.0000   65

   4   rms: 0.7946E-04   max: 0.6509E-03   D at   78  2
       a = 13.750      CL =  1.3022
      Cm = -0.0234     CD =  0.04283   =>   CDf =  0.00650    CDp =  0.03633
 plradd ia,ip,cpol           45           0  3.41660762E-03

 Point added to stored polar  1
 Point written to save file  sg6040_Re400k.base.pol                          
 Dump file unspecified or not available
 Calculating wake trajectory ...
 Calculating source influence matrix ...

 Solving BL system ...

 Side 1  free  transition at x/c =  0.0511   36
 Side 2 forced transition at x/c =  1.0000   65

   1   rms: 0.4207E-01   max: 0.1654E+00   D at   72  1   RLX: 0.575
       a = 14.000      CL =  1.2990
      Cm = -0.0229     CD =  0.04483   =>   CDf =  0.00650    CDp =  0.03833

 Side 1  free  transition at x/c =  0.0500   35
 Side 2 forced transition at x/c =  1.0000   65

   2   rms: 0.1782E-01   max: -.1392E+00   D at   35  1
       a = 14.000      CL =  1.3090
      Cm = -0.0229     CD =  0.04476   =>   CDf =  0.00645    CDp =  0.03832

 Side 1  free  transition at x/c =  0.0495   35
 Side 2 forced transition at x/c =  1.0000   65

   3   rms: 0.8229E-03   max: 0.1072E-01   D at   35  1
       a = 14.000      CL =  1.3089
      Cm = -0.0229     CD =  0.04474   =>   CDf =  0.00640    CDp =  0.03834

 Side 1  free  transition at x/c =  0.0494   35
 Side 2 forced transition at x/c =  1.0000   65

   4   rms: 0.3091E-04   max: 0.1805E-03   D at   74  1
       a = 14.000      CL =  1.3089
      Cm = -0.0229     CD =  0.04474   =>   CDf =  0.00640    CDp =  0.03834
 plradd ia,ip,cpol           46           0  4.68340935E-03

 Point added to stored polar  1
 Point written to save file  sg6040_Re400k.base.pol                          
 Dump file unspecified or not available
 Calculating wake trajectory ...
 Calculating source influence matrix ...

 Solving BL system ...

 Side 1  free  transition at x/c =  0.0494   35
 Side 2 forced transition at x/c =  1.0000   65

   1   rms: 0.3125E-01   max: 0.1299E+00   T at   35  1   RLX: 0.569
       a = 14.250      CL =  1.3134
      Cm = -0.0227     CD =  0.04595   =>   CDf =  0.00640    CDp =  0.03955

 Side 1  free  transition at x/c =  0.0483   35
 Side 2 forced transition at x/c =  1.0000   65

   2   rms: 0.1387E-01   max: 0.5183E-01   D at   73  1
       a = 14.250      CL =  1.3149
      Cm = -0.0225     CD =  0.04694   =>   CDf =  0.00600    CDp =  0.04094

 Side 1  free  transition at x/c =  0.0476   36
 Side 2 forced transition at x/c =  1.0000   64

   3   rms: 0.1863E-02   max: -.2029E-01   T at    2  1
       a = 14.250      CL =  1.3140
      Cm = -0.0225     CD =  0.04689   =>   CDf =  0.00632    CDp =  0.04057

 Side 1  free  transition at x/c =  0.0477   36
 Side 2 forced transition at x/c =  1.0000   64

   4   rms: 0.5963E-03   max: -.7479E-02   D at    4  1
       a = 14.250      CL =  1.3139
      Cm = -0.0225     CD =  0.04687   =>   CDf =  0.00632    CDp =  0.04056

 Side 1  free  transition at x/c =  0.0477   36
 Side 2 forced transition at x/c =  1.0000   64

   5   rms: 0.1073E-05   max: -.1014E-04   D at    4  1
       a = 14.250      CL =  1.3139
      Cm = -0.0225     CD =  0.04687   =>   CDf =  0.00632    CDp =  0.04056
 plradd ia,ip,cpol           47           0  3.41660762E-03

 Point added to stored polar  1
 Point written to save file  sg6040_Re400k.base.pol                          
 Dump file unspecified or not available
 Calculating wake trajectory ...
 Calculating source influence matrix ...

 Solving BL system ...

 Side 1  free  transition at x/c =  0.0477   36
 Side 2 forced transition at x/c =  1.0000   64

   1   rms: 0.3169E-01   max: 0.1243E+00   T at   36  1   RLX: 0.553
       a = 14.500      CL =  1.3173
      Cm = -0.0223     CD =  0.04819   =>   CDf =  0.00632    CDp =  0.04187

 Side 1  free  transition at x/c =  0.0467   36
 Side 2 forced transition at x/c =  1.0000   64

   2   rms: 0.1430E-01   max: 0.5062E-01   D at   73  1
       a = 14.500      CL =  1.3189
      Cm = -0.0222     CD =  0.04924   =>   CDf =  0.00629    CDp =  0.04295

 Side 1  free  transition at x/c =  0.0461   36
 Side 2 forced transition at x/c =  1.0000   64

   3   rms: 0.1831E-02   max: 0.1046E-01   D at   73  1
       a = 14.500      CL =  1.3176
      Cm = -0.0221     CD =  0.04921   =>   CDf =  0.00627    CDp =  0.04295

 Side 1  free  transition at x/c =  0.0461   36
 Side 2 forced transition at x/c =  1.0000   64

   4   rms: 0.5429E-04   max: 0.5169E-03   D at   77  2
       a = 14.500      CL =  1.3176
      Cm = -0.0221     CD =  0.04920   =>   CDf =  0.00626    CDp =  0.04294
 plradd ia,ip,cpol           48           0  3.41660762E-03

 Point added to stored polar  1
 Point written to save file  sg6040_Re400k.base.pol                          
 Dump file unspecified or not available
 Calculating wake trajectory ...
 Calculating source influence matrix ...

 Solving BL system ...

 Side 1  free  transition at x/c =  0.0461   36
 Side 2 forced transition at x/c =  1.0000   64

   1   rms: 0.3271E-01   max: 0.1287E+00   T at   36  1   RLX: 0.536
       a = 14.750      CL =  1.3199
      Cm = -0.0221     CD =  0.05065   =>   CDf =  0.00626    CDp =  0.04439

 Side 1  free  transition at x/c =  0.0453   36
 Side 2 forced transition at x/c =  1.0000   64

   2   rms: 0.1589E-01   max: 0.5995E-01   D at   72  1
       a = 14.750      CL =  1.3197
      Cm = -0.0219     CD =  0.05196   =>   CDf =  0.00625    CDp =  0.04571

 Side 1  free  transition at x/c =  0.0446   36
 Side 2 forced transition at x/c =  1.0000   64

   3   rms: 0.2363E-02   max: 0.1390E-01   D at   72  1
       a = 14.750      CL =  1.3180
      Cm = -0.0219     CD =  0.05194   =>   CDf =  0.00624    CDp =  0.04570

 Side 1  free  transition at x/c =  0.0446   36
 Side 2 forced transition at x/c =  1.0000   64

   4   rms: 0.1416E-03   max: 0.1016E-02   D at   78  2
       a = 14.750      CL =  1.3179
      Cm = -0.0219     CD =  0.05192   =>   CDf =  0.00624    CDp =  0.04569

 Side 1  free  transition at x/c =  0.0446   36
 Side 2 forced transition at x/c =  1.0000   64

   5   rms: 0.5475E-05   max: -.1004E-03   C at   64  2
       a = 14.750      CL =  1.3179
      Cm = -0.0219     CD =  0.05192   =>   CDf =  0.00624    CDp =  0.04569
 plradd ia,ip,cpol           49           0  3.41660762E-03

 Point added to stored polar  1
 Point written to save file  sg6040_Re400k.base.pol                          
 Dump file unspecified or not available
 Calculating wake trajectory ...
 Calculating source influence matrix ...

 Solving BL system ...

 Side 1  free  transition at x/c =  0.0446   36
 Side 2 forced transition at x/c =  1.0000   64

   1   rms: 0.3481E-01   max: 0.1322E+00   D at   70  1   RLX: 0.518
       a = 15.000      CL =  1.3177
      Cm = -0.0218     CD =  0.05366   =>   CDf =  0.00624    CDp =  0.04742

 Side 1  free  transition at x/c =  0.0439   36
 Side 2 forced transition at x/c =  1.0000   64

   2   rms: 0.1924E-01   max: 0.7479E-01   D at   71  1
       a = 15.000      CL =  1.3142
      Cm = -0.0216     CD =  0.05543   =>   CDf =  0.00623    CDp =  0.04920

 Side 1  free  transition at x/c =  0.0432   35
 Side 2 forced transition at x/c =  1.0000   64

   3   rms: 0.4513E-02   max: -.4716E-01   D at   35  1
       a = 15.000      CL =  1.3151
      Cm = -0.0216     CD =  0.05502   =>   CDf =  0.00620    CDp =  0.04882

 Side 1  free  transition at x/c =  0.0432   35
 Side 2 forced transition at x/c =  1.0000   64

   4   rms: 0.6702E-03   max: -.3166E-02   D at   71  1
       a = 15.000      CL =  1.3156
      Cm = -0.0216     CD =  0.05497   =>   CDf =  0.00620    CDp =  0.04878

 Side 1  free  transition at x/c =  0.0432   35
 Side 2 forced transition at x/c =  1.0000   64

   5   rms: 0.5705E-04   max: -.3816E-03   D at   78  2
       a = 15.000      CL =  1.3156
      Cm = -0.0216     CD =  0.05498   =>   CDf =  0.00620    CDp =  0.04878
 plradd ia,ip,cpol           50           0  3.41660762E-03

 Point added to stored polar  1
 Point written to save file  sg6040_Re400k.base.pol                          
 Dump file unspecified or not available
 Calculating wake trajectory ...
 Calculating source influence matrix ...

 Solving BL system ...

 Side 1  free  transition at x/c =  0.0432   35
 Side 2 forced transition at x/c =  1.0000   64

   1   rms: 0.3020E-01   max: 0.1421E+00   T at   35  1   RLX: 0.506
       a = 15.250      CL =  1.3200
      Cm = -0.0216     CD =  0.05617   =>   CDf =  0.00620    CDp =  0.04997

 Side 1  free  transition at x/c =  0.0427   35
 Side 2 forced transition at x/c =  1.0000   64

   2   rms: 0.1495E-01   max: 0.6137E-01   T at   35  1
       a = 15.250      CL =  1.3225
      Cm = -0.0216     CD =  0.05737   =>   CDf =  0.00614    CDp =  0.05123

 Side 1  free  transition at x/c =  0.0421   35
 Side 2 forced transition at x/c =  1.0000   64

   3   rms: 0.1581E-02   max: 0.1113E-01   D at   78  2
       a = 15.250      CL =  1.3214
      Cm = -0.0216     CD =  0.05729   =>   CDf =  0.00609    CDp =  0.05120

 Side 1  free  transition at x/c =  0.0421   35
 Side 2 forced transition at x/c =  1.0000   64

   4   rms: 0.8860E-04   max: 0.9156E-03   D at   78  2
       a = 15.250      CL =  1.3214
      Cm = -0.0216     CD =  0.05727   =>   CDf =  0.00609    CDp =  0.05119
 plradd ia,ip,cpol           51           0  3.41660762E-03

 Point added to stored polar  1
 Point written to save file  sg6040_Re400k.base.pol                          
 Dump file unspecified or not available
 Calculating wake trajectory ...
 Calculating source influence matrix ...

 Solving BL system ...

 Side 1  free  transition at x/c =  0.0421   35
 Side 2 forced transition at x/c =  1.0000   64

   1   rms: 0.2995E-01   max: 0.1247E+00   T at   35  1   RLX: 0.494
       a = 15.500      CL =  1.3249
      Cm = -0.0216     CD =  0.05853   =>   CDf =  0.00609    CDp =  0.05244

 Side 1  free  transition at x/c =  0.0414   35
 Side 2 forced transition at x/c =  1.0000   64

   2   rms: 0.1545E-01   max: 0.5583E-01   D at   70  1
       a = 15.500      CL =  1.3269
      Cm = -0.0217     CD =  0.05989   =>   CDf =  0.00605    CDp =  0.05384

 Side 1  free  transition at x/c =  0.0408   35
 Side 2 forced transition at x/c =  1.0000   64

   3   rms: 0.1746E-02   max: 0.8866E-02   D at   78  2
       a = 15.500      CL =  1.3257
      Cm = -0.0217     CD =  0.05980   =>   CDf =  0.00600    CDp =  0.05379

 Side 1  free  transition at x/c =  0.0409   35
 Side 2 forced transition at x/c =  1.0000   64

   4   rms: 0.7280E-04   max: 0.6378E-03   D at   78  2
       a = 15.500      CL =  1.3256
      Cm = -0.0217     CD =  0.05977   =>   CDf =  0.00600    CDp =  0.05377
 plradd ia,ip,cpol           52           0  3.41660762E-03

 Point added to stored polar  1
 Point written to save file  sg6040_Re400k.base.pol                          
 Dump file unspecified or not available
 Calculating wake trajectory ...
 Calculating source influence matrix ...

 Solving BL system ...

 Side 1  free  transition at x/c =  0.0409   35
 Side 2 forced transition at x/c =  1.0000   64

   1   rms: 0.2970E-01   max: 0.1208E+00   T at   35  1   RLX: 0.481
       a = 15.750      CL =  1.3285
      Cm = -0.0218     CD =  0.06111   =>   CDf =  0.00600    CDp =  0.05511

 Side 1  free  transition at x/c =  0.0402   35
 Side 2 forced transition at x/c =  1.0000   64

   2   rms: 0.1545E-01   max: 0.5899E-01   T at   35  1
       a = 15.750      CL =  1.3306
      Cm = -0.0219     CD =  0.06250   =>   CDf =  0.00597    CDp =  0.05653

 Side 1  free  transition at x/c =  0.0396   35
 Side 2 forced transition at x/c =  1.0000   64

   3   rms: 0.2135E-02   max: 0.1186E-01   D at   69  1
       a = 15.750      CL =  1.3291
      Cm = -0.0219     CD =  0.06244   =>   CDf =  0.00594    CDp =  0.05650

 Side 1  free  transition at x/c =  0.0396   35
 Side 2 forced transition at x/c =  1.0000   64

   4   rms: 0.1069E-03   max: 0.8631E-03   D at   79  2
       a = 15.750      CL =  1.3291
      Cm = -0.0218     CD =  0.06241   =>   CDf =  0.00593    CDp =  0.05648

 Side 1  free  transition at x/c =  0.0396   35
 Side 2 forced transition at x/c =  1.0000   64

   5   rms: 0.2690E-05   max: -.5236E-04   C at   64  2
       a = 15.750      CL =  1.3291
      Cm = -0.0218     CD =  0.06241   =>   CDf =  0.00593    CDp =  0.05648
 plradd ia,ip,cpol           53           0  3.41660762E-03

 Point added to stored polar  1
 Point written to save file  sg6040_Re400k.base.pol                          
 Dump file unspecified or not available
 Calculating wake trajectory ...
 Calculating source influence matrix ...

 Solving BL system ...

 Side 1  free  transition at x/c =  0.0396   35
 Side 2 forced transition at x/c =  1.0000   64

   1   rms: 0.3035E-01   max: 0.1285E+00   T at   35  1   RLX: 0.469
       a = 16.000      CL =  1.3313
      Cm = -0.0220     CD =  0.06384   =>   CDf =  0.00594    CDp =  0.05790

 Side 1  free  transition at x/c =  0.0391   35
 Side 2 forced transition at x/c =  1.0000   64

   2   rms: 0.1627E-01   max: 0.6448E-01   T at   35  1
       a = 16.000      CL =  1.3328
      Cm = -0.0222     CD =  0.06539   =>   CDf =  0.00551    CDp =  0.05988

 Side 1  free  transition at x/c =  0.0386   36
 Side 2 forced transition at x/c =  1.0000   63

   3   rms: 0.2335E-02   max: -.1965E-01   T at    2  1
       a = 16.000      CL =  1.3313
      Cm = -0.0221     CD =  0.06527   =>   CDf =  0.00588    CDp =  0.05939

 Side 1  free  transition at x/c =  0.0386   36
 Side 2 forced transition at x/c =  1.0000   63

   4   rms: 0.5038E-03   max: -.6041E-02   D at    4  1
       a = 16.000      CL =  1.3312
      Cm = -0.0221     CD =  0.06525   =>   CDf =  0.00588    CDp =  0.05937

 Side 1  free  transition at x/c =  0.0386   36
 Side 2 forced transition at x/c =  1.0000   63

   5   rms: 0.8853E-05   max: -.1283E-03   C at   63  2
       a = 16.000      CL =  1.3312
      Cm = -0.0221     CD =  0.06525   =>   CDf =  0.00588    CDp =  0.05937
 plradd ia,ip,cpol           54           0  3.41660762E-03

 Point added to stored polar  1
 Point written to save file  sg6040_Re400k.base.pol                          
 Dump file unspecified or not available

.OPERva   c>  
 Polar accumulation disabled

.OPERv   c>  
 XFOIL   c>  
 XFOIL   c>  