
 ===================================================
  XFOIL Version 6.99
  Copyright (C) 2000   Mark Drela, Harold Youngren

  This software comes with ABSOLUTELY NO WARRANTY,
    subject to the GNU General Public License.

  Caveat computor
 ===================================================

 File  xfoil.def  not found

   QUIT    Exit program

  .OPER    Direct operating point(s)
  .MDES    Complex mapping design routine
  .QDES    Surface speed design routine
  .GDES    Geometry design routine

   SAVE f  Write airfoil to labeled coordinate file
   PSAV f  Write airfoil to plain coordinate file
   ISAV f  Write airfoil to ISES coordinate file
   MSAV f  Write airfoil to MSES coordinate file
   REVE    Reverse written-airfoil node ordering

   LOAD f  Read buffer airfoil from coordinate file
   NACA i  Set NACA 4,5-digit airfoil and buffer airfoil
   INTE    Set buffer airfoil by interpolating two airfoils
   NORM    Buffer airfoil normalization toggle
   XYCM rr Change CM reference location, currently  0.25000 0.00000

   BEND    Display structural properties of current airfoil

   PCOP    Set current-airfoil panel nodes directly from buffer airfoil points
   PANE    Set current-airfoil panel nodes ( 160 ) based on curvature
  .PPAR    Show/change paneling

  .PLOP    Plotting options

   WDEF f  Write  current-settings file
   RDEF f  Reread current-settings file
   NAME s  Specify new airfoil name
   NINC    Increment name version number

   Z       Zoom    | (available in all menus)
   U       Unzoom  | 

 XFOIL   c>  
 Labeled airfoil file.  Name:  SP4721LA                                        

 Number of input coordinate points: 120
 Counterclockwise ordering
 Max thickness =     0.213916  at x =   0.357
 Max camber    =     0.044511  at x =   0.676

  LE  x,y  =   0.00001  -0.00202  |   Chord =   0.99935
  TE  x,y  =   0.99936  -0.00241  |

 Current airfoil nodes set from buffer airfoil nodes ( 120 )

 XFOIL   c>  
 XFOIL   c>  
 Blunt trailing edge.  Gap =  0.00500

 Paneling parameters used...
   Number of panel nodes       160
   Panel bunching parameter    1.000
   TE/LE panel density ratio   0.150
   Refined-area/LE panel density ratio    0.200
   Top    side refined area x/c limits  1.000 1.000
   Bottom side refined area x/c limits  1.000 1.000

 XFOIL   c>  
.OPERi   c>  
 Xtr/c     =  1.0000    top    side
 Xtr/c     =  1.0000    bottom side
 Ncrit     =    9.00   ( 0.070 % turb. level )
 Vacc      =  0.0100

 Klag  =  5.6000     Uxwt  =    1.00
 A     =  6.7000     B     =  0.7500       KCt = 0.01485
 CtiniK=  1.8000     CtiniX=  3.3000

..VPAR   c>  
..VPAR   c>  
.OPERi   c>  
 M  =    0.0000
 Re =    150000

.OPERv   c>  
.OPERv   c>  
.OPERv   c>  
 Polar  1 newly created for accumulation
 Airfoil archived with polar: SP4721LA                                        

Enter  polar save filename  OR  <return> for no file   s>  
 New polar save file available

Enter  polar dump filename  OR  <return> for no file   s>  
 Polar dump file will NOT be written

 Polar accumulation enabled

.OPERva   c>   Calculating unit vorticity distributions ...
 Calculating wake trajectory ...
 Calculating source influence matrix ...

 Solving BL system ...

 Initializing BL ...
    side            1  ...
 MRCHUE: Inverse mode at  47     Hk =   4.201
 MRCHUE: Inverse mode at  48     Hk =   4.652
 MRCHUE: Inverse mode at  49     Hk =   5.090
 MRCHUE: Inverse mode at  50     Hk =   5.519
 MRCHUE: Inverse mode at  51     Hk =   5.938
 MRCHUE: Inverse mode at  52     Hk =   6.350
 MRCHUE: Inverse mode at  53     Hk =   6.756
 MRCHUE: Inverse mode at  54     Hk =   7.157
 MRCHUE: Inverse mode at  55     Hk =   7.553
 MRCHUE: Inverse mode at  56     Hk =   7.944
 MRCHUE: Inverse mode at  57     Hk =   8.332
 MRCHUE: Inverse mode at  58     Hk =   8.715
 MRCHUE: Inverse mode at  59     Hk =   9.095
 MRCHUE: Inverse mode at  60     Hk =   7.941
 MRCHUE: Inverse mode at  61     Hk =   6.517
 MRCHUE: Inverse mode at  62     Hk =   5.481
 MRCHUE: Inverse mode at  63     Hk =   4.664
 MRCHUE: Inverse mode at  64     Hk =   3.991
 MRCHUE: Inverse mode at  65     Hk =   3.422
 MRCHUE: Inverse mode at  76     Hk =   2.500
    side            2  ...
 MRCHUE: Inverse mode at  11     Hk =   3.800
 MRCHUE: Inverse mode at  12     Hk =   4.553
 MRCHUE: Inverse mode at  49     Hk =   3.800
 MRCHUE: Inverse mode at  50     Hk =   4.269
 MRCHUE: Inverse mode at  51     Hk =   4.727
 MRCHUE: Inverse mode at  52     Hk =   5.174
 MRCHUE: Inverse mode at  53     Hk =   5.614
 MRCHUE: Convergence failed at  53  side 2    Res =  0.5690E+00
 MRCHUE: Inverse mode at  54     Hk =   5.612
 MRCHUE: Convergence failed at  55  side 2    Res =  0.1777E+01
 MRCHUE: Inverse mode at  56     Hk =   6.045
 MRCHUE: Inverse mode at  57     Hk =   6.476
 MRCHUE: Inverse mode at  58     Hk =   6.903
 MRCHUE: Inverse mode at  59     Hk =   7.325
 MRCHUE: Inverse mode at  60     Hk =   7.738
 MRCHUE: Inverse mode at  61     Hk =   8.142
 MRCHUE: Inverse mode at  62     Hk =   8.312
 MRCHUE: Inverse mode at  63     Hk =   6.428
 MRCHUE: Inverse mode at  64     Hk =   5.190
 MRCHUE: Inverse mode at  65     Hk =   4.259
 MRCHUE: Inverse mode at  66     Hk =   3.514
 MRCHUE: Inverse mode at  67     Hk =   2.894
 MRCHUE: Inverse mode at  68     Hk =   2.500
 MRCHUE: Inverse mode at  69     Hk =   2.500
 MRCHUE: Inverse mode at  70     Hk =   2.500
 MRCHUE: Inverse mode at  71     Hk =   2.500
 MRCHUE: Inverse mode at  72     Hk =   2.500
 MRCHUE: Inverse mode at  73     Hk =   2.500
 MRCHUE: Inverse mode at  74     Hk =   2.500
 MRCHUE: Inverse mode at  75     Hk =   2.500
 MRCHUE: Inverse mode at  76     Hk =   2.500
 MRCHUE: Inverse mode at  77     Hk =   2.500
 MRCHUE: Inverse mode at  78     Hk =   2.500
 MRCHUE: Inverse mode at  79     Hk =   2.500
 MRCHUE: Inverse mode at  80     Hk =   2.500
 MRCHUE: Inverse mode at  81     Hk =   2.500
 MRCHUE: Inverse mode at  82     Hk =   2.500
 MRCHUE: Inverse mode at  83     Hk =   2.500

 MRCHDU: Convergence failed at  64  side 2    Res =  0.1109E+02
 MRCHDU: Convergence failed at  65  side 2    Res =  0.4287E+01
 MRCHDU: Convergence failed at  66  side 2    Res =  0.5458E+01
 MRCHDU: Convergence failed at  67  side 2    Res =  0.3414E+02
 MRCHDU: Convergence failed at  68  side 2    Res =  0.4952E+02
 MRCHDU: Convergence failed at  69  side 2    Res =  0.5320E+02
 MRCHDU: Convergence failed at  70  side 2    Res =  0.2303E+02
 MRCHDU: Convergence failed at  71  side 2    Res =  0.1274E+02
 MRCHDU: Convergence failed at  72  side 2    Res =  0.1435E+02
 MRCHDU: Convergence failed at  73  side 2    Res =  0.1591E+02
 MRCHDU: Convergence failed at  74  side 2    Res =  0.1698E+02
 MRCHDU: Convergence failed at  75  side 2    Res =  0.1831E+02
 MRCHDU: Convergence failed at  76  side 2    Res =  0.1921E+02
 MRCHDU: Convergence failed at  77  side 2    Res =  0.2370E+02
 MRCHDU: Convergence failed at  78  side 2    Res =  0.1304E+02
 MRCHDU: Convergence failed at  79  side 2    Res =  0.1366E+02
 MRCHDU: Convergence failed at  80  side 2    Res =  0.1427E+02
 MRCHDU: Convergence failed at  81  side 2    Res =  0.3785E+02
 MRCHDU: Convergence failed at  82  side 2    Res =  0.3782E+02
 MRCHDU: Convergence failed at  83  side 2    Res =  0.4231E+02
 MRCHDU: Convergence failed at  84  side 2    Res =  0.4623E+02
 MRCHDU: Convergence failed at  85  side 2    Res =  0.5124E+02
 MRCHDU: Convergence failed at  86  side 2    Res =  0.2111E+02
 Side 1  free  transition at x/c =  0.7544   60
 Side 2  free  transition at x/c =  0.6321   63

   1   rms: 0.8524E+00   max: 0.8307E+01   T at   63  2   RLX: 0.181
       a = -4.000      CL =  0.0853
      Cm = -0.0381     CD =  0.01514   =>   CDf =  0.00716    CDp =  0.00798

 MRCHDU: Convergence failed at  63  side 2    Res =  0.5603E+02
 MRCHDU: Convergence failed at  64  side 2    Res =  0.1613E+02
 MRCHDU: Convergence failed at  65  side 2    Res =  0.6974E+01
 Side 1  free  transition at x/c =  0.7656   61
 Side 2  free  transition at x/c =  0.6060   61
 idif Ue xi dudx           1  0.13128741      4.03416157E-03   32.543915    
 Uenew xinew           2  4.33266684E-02  1.33132935E-03

   2   rms: 0.6288E+00   max: 0.6037E+01   T at   61  2   RLX: 0.197
       a = -4.000      CL =  0.0120
      Cm = -0.0540     CD =  0.02340   =>   CDf =  0.00743    CDp =  0.01597

 Side 1  free  transition at x/c =  0.7712   60
 Side 2  free  transition at x/c =  0.5703   60
 idif Ue xi dudx           1  0.17605197      5.77664375E-03   30.476515    
 Uenew xinew           2  8.73502344E-02  2.86614895E-03

   3   rms: 0.3620E+00   max: 0.2657E+01   T at   60  2   RLX: 0.504
       a = -4.000      CL = -0.1193
      Cm = -0.0592     CD =  0.02696   =>   CDf =  0.00682    CDp =  0.02015

 Side 1  free  transition at x/c =  0.7908   60
 Side 2  free  transition at x/c =  0.5254   58

   4   rms: 0.1381E+00   max: -.8205E+00   T at   60  1   RLX: 0.609
       a = -4.000      CL = -0.0616
      Cm = -0.0799     CD =  0.02975   =>   CDf =  0.00611    CDp =  0.02365

 MRCHDU: Convergence failed at  81  side 2    Res =  0.4882E+01
 MRCHDU: Convergence failed at  82  side 2    Res =  0.2370E+01
 MRCHDU: Convergence failed at  83  side 2    Res =  0.1957E+01
 MRCHDU: Convergence failed at  84  side 2    Res =  0.9139E+00
 MRCHDU: Convergence failed at  86  side 2    Res =  0.1935E+01
 MRCHDU: Convergence failed at  87  side 2    Res =  0.3208E+01
 MRCHDU: Convergence failed at  88  side 2    Res =  0.9297E+01
 Side 1  free  transition at x/c =  0.8174   62
 Side 2  free  transition at x/c =  0.5214   58
 idif Ue xi dudx           1  0.14940025      5.02991676E-03   29.702330    
 Uenew xinew           2  5.60967922E-02  1.88863277E-03

   5   rms: 0.2988E+00   max: 0.1368E+01   T at   58  2   RLX: 0.429
       a = -4.000      CL = -0.1588
      Cm = -0.0702     CD =  0.02454   =>   CDf =  0.00595    CDp =  0.01859

 Side 1  free  transition at x/c =  0.8131   60
 Side 2  free  transition at x/c =  0.5023   58

   6   rms: 0.1362E+00   max: -.7435E+00   D at   89  2   RLX: 0.673
       a = -4.000      CL = -0.1075
      Cm = -0.0847     CD =  0.02705   =>   CDf =  0.00598    CDp =  0.02108

 Side 1  free  transition at x/c =  0.8000   60
 Side 2  free  transition at x/c =  0.5069   58

   7   rms: 0.2132E+00   max: -.1124E+01   T at   58  2   RLX: 0.445
       a = -4.000      CL = -0.0306
      Cm = -0.0943     CD =  0.03084   =>   CDf =  0.00595    CDp =  0.02489

 Side 1  free  transition at x/c =  0.8054   61
 Side 2  free  transition at x/c =  0.5211   58

   8   rms: 0.2826E+00   max: 0.1115E+01   D at   84  2
       a = -4.000      CL =  0.0954
      Cm = -0.1012     CD =  0.03891   =>   CDf =  0.00600    CDp =  0.03290

 Side 1  free  transition at x/c =  0.8311   63
 Side 2  free  transition at x/c =  0.5327   58
 idif Ue xi dudx           1  8.97984058E-02  2.96163559E-03   30.320545    
 Uenew xinew           2  1.55061646E-03  5.11407852E-05

   9   rms: 0.3193E-01   max: 0.1406E+00   D at   58  2
       a = -4.000      CL =  0.0921
      Cm = -0.1054     CD =  0.03620   =>   CDf =  0.00587    CDp =  0.03033

 Side 1  free  transition at x/c =  0.8262   62
 Side 2  free  transition at x/c =  0.5306   59

  10   rms: 0.1195E-01   max: -.5076E-01   T at   59  2
       a = -4.000      CL =  0.0992
      Cm = -0.1052     CD =  0.03656   =>   CDf =  0.00595    CDp =  0.03062

 Side 1  free  transition at x/c =  0.8290   63
 Side 2  free  transition at x/c =  0.5314   58
 idif Ue xi dudx           1  9.34026465E-02  3.08489799E-03   30.277386    
 Uenew xinew           2  5.28047280E-03  1.74403191E-04

  11   rms: 0.2247E-01   max: -.8668E-01   D at   87  2
       a = -4.000      CL =  0.0878
      Cm = -0.1059     CD =  0.03608   =>   CDf =  0.00587    CDp =  0.03021

 Side 1  free  transition at x/c =  0.8249   62
 Side 2  free  transition at x/c =  0.5304   59

  12   rms: 0.1436E-01   max: 0.5393E-01   D at   88  2
       a = -4.000      CL =  0.0950
      Cm = -0.1056     CD =  0.03625   =>   CDf =  0.00595    CDp =  0.03030

 Side 1  free  transition at x/c =  0.8276   63
 Side 2  free  transition at x/c =  0.5310   58

  13   rms: 0.3558E-01   max: -.3251E+00   D at    2  1
       a = -4.000      CL =  0.1098
      Cm = -0.1045     CD =  0.03721   =>   CDf =  0.00589    CDp =  0.03132

 Side 1  free  transition at x/c =  0.8325   64
 Side 2  free  transition at x/c =  0.5328   58

  14   rms: 0.6946E-02   max: 0.3732E-01   D at   78  2
       a = -4.000      CL =  0.1123
      Cm = -0.1043     CD =  0.03750   =>   CDf =  0.00589    CDp =  0.03162

 Side 1  free  transition at x/c =  0.8327   64
 Side 2  free  transition at x/c =  0.5330   58

  15   rms: 0.3470E-03   max: 0.3599E-02   D at   80  2
       a = -4.000      CL =  0.1124
      Cm = -0.1042     CD =  0.03754   =>   CDf =  0.00588    CDp =  0.03166

 Side 1  free  transition at x/c =  0.8327   64
 Side 2  free  transition at x/c =  0.5330   58

  16   rms: 0.2117E-04   max: 0.1323E-03   D at   80  2
       a = -4.000      CL =  0.1124
      Cm = -0.1042     CD =  0.03754   =>   CDf =  0.00588    CDp =  0.03166
 plradd ia,ip,cpol            1           0  2.16235332E-02

 Point added to stored polar  1
 Point written to save file  sp4721la_Re150k.base.pol                        
 Dump file unspecified or not available
 Calculating wake trajectory ...
 Calculating source influence matrix ...

 Solving BL system ...

 Side 1  free  transition at x/c =  0.8327   64
 Side 2  free  transition at x/c =  0.5330   58

   1   rms: 0.3409E+00   max: -.1822E+01   T at   58  2   RLX: 0.274
       a = -3.500      CL =  0.1473
      Cm = -0.0952     CD =  0.04127   =>   CDf =  0.00588    CDp =  0.03539

 Side 1  free  transition at x/c =  0.8329   64
 Side 2  free  transition at x/c =  0.5464   58

   2   rms: 0.1764E+00   max: -.7392E+00   T at   58  2   RLX: 0.676
       a = -3.500      CL =  0.1408
      Cm = -0.1070     CD =  0.03995   =>   CDf =  0.00585    CDp =  0.03410

 Side 1  free  transition at x/c =  0.8251   63
 Side 2  free  transition at x/c =  0.5524   59

   3   rms: 0.3478E+00   max: 0.1932E+01   D at   76  2   RLX: 0.776
       a = -3.500      CL =  0.1636
      Cm = -0.0977     CD =  0.04028   =>   CDf =  0.00623    CDp =  0.03405

 MRCHDU: Convergence failed at  77  side 2    Res =  0.7660E+02
 MRCHDU: Convergence failed at  78  side 2    Res =  0.1067E+01
 MRCHDU: Convergence failed at  79  side 2    Res =  0.1003E+01
 MRCHDU: Convergence failed at  80  side 2    Res =  0.9620E+00
 Side 1  free  transition at x/c =  0.8112   62
 Side 2  free  transition at x/c =  0.5692   60

   4   rms: 0.1171E+01   max: -.9785E+01   T at   60  2   RLX: 0.051
       a = -3.500      CL =  0.1838
      Cm = -0.0931     CD =  0.03749   =>   CDf =  0.00609    CDp =  0.03141

 Side 1  free  transition at x/c =  0.8165   64
 Side 2  free  transition at x/c =  0.5924   60

   5   rms: 0.1194E+00   max: -.1583E+01   T at   60  2   RLX: 0.316
       a = -3.500      CL =  0.1989
      Cm = -0.0961     CD =  0.03937   =>   CDf =  0.00597    CDp =  0.03340

 Side 1  free  transition at x/c =  0.8178   64
 Side 2  free  transition at x/c =  0.6373   63

   6   rms: 0.1686E+00   max: 0.1951E+01   T at   63  2   RLX: 0.769
       a = -3.500      CL =  0.1847
      Cm = -0.1063     CD =  0.03907   =>   CDf =  0.00594    CDp =  0.03312

 MRCHDU: Convergence failed at  77  side 2    Res =  0.1265E+01
 MRCHDU: Convergence failed at  78  side 2    Res =  0.2558E+01
 MRCHDU: Convergence failed at  79  side 2    Res =  0.7792E+01
 MRCHDU: Convergence failed at  80  side 2    Res =  0.7743E+01
 MRCHDU: Convergence failed at  81  side 2    Res =  0.3796E+01
 MRCHDU: Convergence failed at  82  side 2    Res =  0.2807E+01
 MRCHDU: Convergence failed at  83  side 2    Res =  0.2352E+01
 MRCHDU: Convergence failed at  84  side 2    Res =  0.1721E+01
 MRCHDU: Convergence failed at  85  side 2    Res =  0.1786E+01
 MRCHDU: Convergence failed at  86  side 2    Res =  0.2088E+01
 Side 1  free  transition at x/c =  0.8163   64
 Side 2  free  transition at x/c =  0.5801   60

   7   rms: 0.1228E+00   max: 0.1232E+01   T at   60  2   RLX: 0.740
       a = -3.500      CL =  0.1726
      Cm = -0.0959     CD =  0.03976   =>   CDf =  0.00603    CDp =  0.03373

 Side 1  free  transition at x/c =  0.8160   64
 Side 2  free  transition at x/c =  0.5769   59

   8   rms: 0.9468E-01   max: -.7990E+00   T at   59  2   RLX: 0.626
       a = -3.500      CL =  0.1868
      Cm = -0.1025     CD =  0.03884   =>   CDf =  0.00608    CDp =  0.03276

 Side 1  free  transition at x/c =  0.8166   64
 Side 2  free  transition at x/c =  0.5760   59

   9   rms: 0.5905E-01   max: -.4451E+00   D at   59  2
       a = -3.500      CL =  0.1983
      Cm = -0.1017     CD =  0.04192   =>   CDf =  0.00607    CDp =  0.03585

 Side 1  free  transition at x/c =  0.8176   64
 Side 2  free  transition at x/c =  0.5858   60

  10   rms: 0.1534E+00   max: 0.1849E+01   T at   60  2   RLX: 0.811
       a = -3.500      CL =  0.1991
      Cm = -0.1217     CD =  0.03437   =>   CDf =  0.00605    CDp =  0.02833

 Side 1  free  transition at x/c =  0.8157   64
 Side 2  free  transition at x/c =  0.5694   59

  11   rms: 0.4349E+00   max: 0.1947E+01   D at   60  2   RLX: 0.770
       a = -3.500      CL =  0.1479
      Cm = -0.0769     CD =  0.04706   =>   CDf =  0.00631    CDp =  0.04075

 Side 1  free  transition at x/c =  0.8164   64
 Side 2  free  transition at x/c =  0.6354   63

  12   rms: 0.3442E+00   max: 0.2492E+01   T at   63  2   RLX: 0.602
       a = -3.500      CL =  0.2484
      Cm = -0.1225     CD =  0.03584   =>   CDf =  0.00634    CDp =  0.02950

 MRCHDU: Convergence failed at  72  side 2    Res =  0.4472E+01
 MRCHDU: Convergence failed at  73  side 2    Res =  0.1241E+01
 MRCHDU: Convergence failed at  74  side 2    Res =  0.1243E+01
 MRCHDU: Convergence failed at  75  side 2    Res =  0.4723E+01
 MRCHDU: Convergence failed at  76  side 2    Res =  0.1505E+01
 MRCHDU: Convergence failed at  77  side 2    Res =  0.1434E+01
 MRCHDU: Convergence failed at  78  side 2    Res =  0.1657E+01
 MRCHDU: Convergence failed at  79  side 2    Res =  0.1990E+01
 MRCHDU: Convergence failed at  80  side 2    Res =  0.2389E+01
 MRCHDU: Convergence failed at  81  side 2    Res =  0.1821E+01
 MRCHDU: Convergence failed at  82  side 2    Res =  0.1347E+01
 MRCHDU: Convergence failed at  83  side 2    Res =  0.1360E+01
 MRCHDU: Convergence failed at  84  side 2    Res =  0.1319E+01
 MRCHDU: Convergence failed at  85  side 2    Res =  0.1249E+01
 MRCHDU: Convergence failed at  86  side 2    Res =  0.1219E+01
 Side 1  free  transition at x/c =  0.8170   64
 Side 2  free  transition at x/c =  0.6051   61

  13   rms: 0.1665E+01   max: -.3406E+02   T at   61  2   RLX: 0.015
       a = -3.500      CL =  0.1992
      Cm = -0.0937     CD =  0.02831   =>   CDf =  0.00617    CDp =  0.02214

 Side 1  free  transition at x/c =  0.8170   64
 Side 2  free  transition at x/c =  0.6065   61
 idif Ue xi dudx           1  9.24573317E-02  2.92694569E-03   31.588331    
 Uenew xinew           2  7.07937032E-03  2.24113464E-04

  14   rms: 0.3316E+00   max: 0.1817E+01   D at   79  2   RLX: 0.826
       a = -3.500      CL =  0.1369
      Cm = -0.0835     CD =  0.04038   =>   CDf =  0.00639    CDp =  0.03399

 MRCHDU: Convergence failed at  78  side 2    Res =  0.2865E+01
 MRCHDU: Convergence failed at  79  side 2    Res =  0.1507E+01
 MRCHDU: Convergence failed at  80  side 2    Res =  0.3081E+01
 MRCHDU: Convergence failed at  81  side 2    Res =  0.9097E+01
 MRCHDU: Convergence failed at  82  side 2    Res =  0.2056E+02
 MRCHDU: Convergence failed at  83  side 2    Res =  0.6305E+01
 MRCHDU: Convergence failed at  84  side 2    Res =  0.4123E+01
 MRCHDU: Convergence failed at  85  side 2    Res =  0.3170E+01
 MRCHDU: Convergence failed at  86  side 2    Res =  0.2610E+01
 MRCHDU: Convergence failed at  87  side 2    Res =  0.2481E+01
 Side 1  free  transition at x/c =  0.8157   63
 Side 2  free  transition at x/c =  0.6167   63

  15   rms: 0.1137E+00   max: 0.7169E+00   T at   63  2
       a = -3.500      CL =  0.1512
      Cm = -0.0909     CD =  0.04019   =>   CDf =  0.00587    CDp =  0.03432

 Side 1  free  transition at x/c =  0.8168   63
 Side 2  free  transition at x/c =  0.5786   60

  16   rms: 0.1546E+00   max: -.1684E+01   T at   60  2   RLX: 0.297
       a = -3.500      CL =  0.1421
      Cm = -0.0858     CD =  0.04194   =>   CDf =  0.00593    CDp =  0.03601

 Side 1  free  transition at x/c =  0.8160   63
 Side 2  free  transition at x/c =  0.5703   60

  17   rms: 0.1159E+00   max: -.9044E+00   T at   60  2   RLX: 0.553
       a = -3.500      CL =  0.1938
      Cm = -0.0928     CD =  0.04149   =>   CDf =  0.00603    CDp =  0.03545

 Side 1  free  transition at x/c =  0.8184   64
 Side 2  free  transition at x/c =  0.5741   59

  18   rms: 0.3780E-01   max: -.6016E+00   D at   59  2   RLX: 0.831
       a = -3.500      CL =  0.2136
      Cm = -0.0988     CD =  0.04289   =>   CDf =  0.00599    CDp =  0.03690

 Side 1  free  transition at x/c =  0.8193   64
 Side 2  free  transition at x/c =  0.6200   62

  19   rms: 0.1804E+00   max: 0.1600E+01   T at   62  2   RLX: 0.938
       a = -3.500      CL =  0.1985
      Cm = -0.1114     CD =  0.03984   =>   CDf =  0.00607    CDp =  0.03378

 Side 1  free  transition at x/c =  0.8159   64
 Side 2  free  transition at x/c =  0.5781   59

  20   rms: 0.1757E+00   max: -.2260E+01   T at   59  2   RLX: 0.221
       a = -3.500      CL =  0.1773
      Cm = -0.0991     CD =  0.03931   =>   CDf =  0.00612    CDp =  0.03319

 Side 1  free  transition at x/c =  0.8157   64
 Side 2  free  transition at x/c =  0.5755   59

  21   rms: 0.1460E+00   max: 0.7993E+00   D at   71  2
       a = -3.500      CL =  0.2347
      Cm = -0.1021     CD =  0.04532   =>   CDf =  0.00614    CDp =  0.03918

 Side 1  free  transition at x/c =  0.8188   64
 Side 2  free  transition at x/c =  0.5795   59

  22   rms: 0.7406E-01   max: -.4289E+00   D at   59  2
       a = -3.500      CL =  0.1981
      Cm = -0.1080     CD =  0.04245   =>   CDf =  0.00604    CDp =  0.03641

 Side 1  free  transition at x/c =  0.8166   64
 Side 2  free  transition at x/c =  0.5781   59

  23   rms: 0.1428E+00   max: 0.7292E+00   D at   84  2
       a = -3.500      CL =  0.1625
      Cm = -0.0906     CD =  0.04240   =>   CDf =  0.00615    CDp =  0.03625

 Side 1  free  transition at x/c =  0.8168   64
 Side 2  free  transition at x/c =  0.5825   60

  24   rms: 0.3372E-01   max: 0.2772E+00   T at   60  2
       a = -3.500      CL =  0.1867
      Cm = -0.1011     CD =  0.04038   =>   CDf =  0.00595    CDp =  0.03444

 Side 1  free  transition at x/c =  0.8176   64
 Side 2  free  transition at x/c =  0.5814   60

  25   rms: 0.2897E-01   max: 0.2482E+00   T at   60  2
       a = -3.500      CL =  0.1883
      Cm = -0.1032     CD =  0.04055   =>   CDf =  0.00603    CDp =  0.03451

 Side 1  free  transition at x/c =  0.8171   64
 Side 2  free  transition at x/c =  0.5785   59

  26   rms: 0.3409E-01   max: -.2970E+00   T at   59  2
       a = -3.500      CL =  0.1888
      Cm = -0.1033     CD =  0.04079   =>   CDf =  0.00606    CDp =  0.03474

 Side 1  free  transition at x/c =  0.8170   64
 Side 2  free  transition at x/c =  0.5781   59

  27   rms: 0.4481E-01   max: -.3602E+00   T at   59  2
       a = -3.500      CL =  0.1885
      Cm = -0.1024     CD =  0.04088   =>   CDf =  0.00606    CDp =  0.03482

 Side 1  free  transition at x/c =  0.8171   64
 Side 2  free  transition at x/c =  0.5792   59

  28   rms: 0.2778E-01   max: -.1964E+00   T at   59  2
       a = -3.500      CL =  0.1884
      Cm = -0.1028     CD =  0.04068   =>   CDf =  0.00605    CDp =  0.03463

 Side 1  free  transition at x/c =  0.8172   64
 Side 2  free  transition at x/c =  0.5784   59

  29   rms: 0.3670E-01   max: -.3053E+00   T at   59  2
       a = -3.500      CL =  0.1886
      Cm = -0.1026     CD =  0.04079   =>   CDf =  0.00605    CDp =  0.03474

 Side 1  free  transition at x/c =  0.8172   64
 Side 2  free  transition at x/c =  0.5790   59

  30   rms: 0.3094E-01   max: -.2317E+00   T at   59  2
       a = -3.500      CL =  0.1885
      Cm = -0.1028     CD =  0.04072   =>   CDf =  0.00605    CDp =  0.03467

 Side 1  free  transition at x/c =  0.8172   64
 Side 2  free  transition at x/c =  0.5786   59

  31   rms: 0.3477E-01   max: -.2805E+00   T at   59  2
       a = -3.500      CL =  0.1887
      Cm = -0.1027     CD =  0.04076   =>   CDf =  0.00605    CDp =  0.03471

 Side 1  free  transition at x/c =  0.8172   64
 Side 2  free  transition at x/c =  0.5788   59

  32   rms: 0.3247E-01   max: -.2491E+00   T at   59  2
       a = -3.500      CL =  0.1886
      Cm = -0.1027     CD =  0.04073   =>   CDf =  0.00605    CDp =  0.03468

 Side 1  free  transition at x/c =  0.8172   64
 Side 2  free  transition at x/c =  0.5787   59

  33   rms: 0.3394E-01   max: -.2686E+00   T at   59  2
       a = -3.500      CL =  0.1886
      Cm = -0.1027     CD =  0.04075   =>   CDf =  0.00605    CDp =  0.03470

 Side 1  free  transition at x/c =  0.8172   64
 Side 2  free  transition at x/c =  0.5788   59

  34   rms: 0.3296E-01   max: -.2556E+00   T at   59  2
       a = -3.500      CL =  0.1886
      Cm = -0.1027     CD =  0.04074   =>   CDf =  0.00605    CDp =  0.03469

 Side 1  free  transition at x/c =  0.8172   64
 Side 2  free  transition at x/c =  0.5787   59

  35   rms: 0.3353E-01   max: -.2645E+00   T at   59  2
       a = -3.500      CL =  0.1886
      Cm = -0.1027     CD =  0.04075   =>   CDf =  0.00605    CDp =  0.03470

 Side 1  free  transition at x/c =  0.8172   64
 Side 2  free  transition at x/c =  0.5788   59

  36   rms: 0.3331E-01   max: -.2596E+00   T at   59  2
       a = -3.500      CL =  0.1886
      Cm = -0.1027     CD =  0.04075   =>   CDf =  0.00605    CDp =  0.03470

 Side 1  free  transition at x/c =  0.8172   64
 Side 2  free  transition at x/c =  0.5787   59

  37   rms: 0.3341E-01   max: -.2614E+00   T at   59  2
       a = -3.500      CL =  0.1886
      Cm = -0.1027     CD =  0.04075   =>   CDf =  0.00605    CDp =  0.03470

 Side 1  free  transition at x/c =  0.8172   64
 Side 2  free  transition at x/c =  0.5788   59

  38   rms: 0.3328E-01   max: -.2606E+00   T at   59  2
       a = -3.500      CL =  0.1886
      Cm = -0.1027     CD =  0.04075   =>   CDf =  0.00605    CDp =  0.03470

 Side 1  free  transition at x/c =  0.8172   64
 Side 2  free  transition at x/c =  0.5787   59

  39   rms: 0.3342E-01   max: -.2613E+00   T at   59  2
       a = -3.500      CL =  0.1886
      Cm = -0.1027     CD =  0.04075   =>   CDf =  0.00605    CDp =  0.03470

 Side 1  free  transition at x/c =  0.8172   64
 Side 2  free  transition at x/c =  0.5788   59

  40   rms: 0.3327E-01   max: -.2606E+00   T at   59  2
       a = -3.500      CL =  0.1886
      Cm = -0.1027     CD =  0.04075   =>   CDf =  0.00605    CDp =  0.03470

 Side 1  free  transition at x/c =  0.8172   64
 Side 2  free  transition at x/c =  0.5787   59

  41   rms: 0.3343E-01   max: -.2612E+00   T at   59  2
       a = -3.500      CL =  0.1886
      Cm = -0.1027     CD =  0.04075   =>   CDf =  0.00605    CDp =  0.03470

 Side 1  free  transition at x/c =  0.8172   64
 Side 2  free  transition at x/c =  0.5788   59

  42   rms: 0.3326E-01   max: -.2605E+00   T at   59  2
       a = -3.500      CL =  0.1886
      Cm = -0.1027     CD =  0.04075   =>   CDf =  0.00605    CDp =  0.03470

 Side 1  free  transition at x/c =  0.8172   64
 Side 2  free  transition at x/c =  0.5787   59

  43   rms: 0.3344E-01   max: -.2614E+00   T at   59  2
       a = -3.500      CL =  0.1886
      Cm = -0.1027     CD =  0.04075   =>   CDf =  0.00605    CDp =  0.03470

 Side 1  free  transition at x/c =  0.8172   64
 Side 2  free  transition at x/c =  0.5788   59

  44   rms: 0.3326E-01   max: -.2606E+00   T at   59  2
       a = -3.500      CL =  0.1886
      Cm = -0.1027     CD =  0.04075   =>   CDf =  0.00605    CDp =  0.03470

 Side 1  free  transition at x/c =  0.8172   64
 Side 2  free  transition at x/c =  0.5787   59

  45   rms: 0.3346E-01   max: -.2616E+00   T at   59  2
       a = -3.500      CL =  0.1886
      Cm = -0.1027     CD =  0.04075   =>   CDf =  0.00605    CDp =  0.03470

 Side 1  free  transition at x/c =  0.8172   64
 Side 2  free  transition at x/c =  0.5788   59

  46   rms: 0.3326E-01   max: -.2604E+00   T at   59  2
       a = -3.500      CL =  0.1886
      Cm = -0.1027     CD =  0.04075   =>   CDf =  0.00605    CDp =  0.03470

 Side 1  free  transition at x/c =  0.8172   64
 Side 2  free  transition at x/c =  0.5787   59

  47   rms: 0.3344E-01   max: -.2615E+00   T at   59  2
       a = -3.500      CL =  0.1886
      Cm = -0.1027     CD =  0.04075   =>   CDf =  0.00605    CDp =  0.03470

 Side 1  free  transition at x/c =  0.8172   64
 Side 2  free  transition at x/c =  0.5788   59

  48   rms: 0.3328E-01   max: -.2605E+00   T at   59  2
       a = -3.500      CL =  0.1886
      Cm = -0.1027     CD =  0.04075   =>   CDf =  0.00605    CDp =  0.03470

 Side 1  free  transition at x/c =  0.8172   64
 Side 2  free  transition at x/c =  0.5787   59

  49   rms: 0.3342E-01   max: -.2613E+00   T at   59  2
       a = -3.500      CL =  0.1886
      Cm = -0.1027     CD =  0.04075   =>   CDf =  0.00605    CDp =  0.03470

 Side 1  free  transition at x/c =  0.8172   64
 Side 2  free  transition at x/c =  0.5788   59

  50   rms: 0.3326E-01   max: -.2605E+00   T at   59  2
       a = -3.500      CL =  0.1886
      Cm = -0.1027     CD =  0.04075   =>   CDf =  0.00605    CDp =  0.03470

 Side 1  free  transition at x/c =  0.8172   64
 Side 2  free  transition at x/c =  0.5787   59

  51   rms: 0.3342E-01   max: -.2612E+00   T at   59  2
       a = -3.500      CL =  0.1886
      Cm = -0.1027     CD =  0.04075   =>   CDf =  0.00605    CDp =  0.03470

 Side 1  free  transition at x/c =  0.8172   64
 Side 2  free  transition at x/c =  0.5788   59

  52   rms: 0.3325E-01   max: -.2606E+00   T at   59  2
       a = -3.500      CL =  0.1886
      Cm = -0.1027     CD =  0.04075   =>   CDf =  0.00605    CDp =  0.03470

 Side 1  free  transition at x/c =  0.8172   64
 Side 2  free  transition at x/c =  0.5787   59

  53   rms: 0.3346E-01   max: -.2615E+00   T at   59  2
       a = -3.500      CL =  0.1886
      Cm = -0.1027     CD =  0.04075   =>   CDf =  0.00605    CDp =  0.03470

 Side 1  free  transition at x/c =  0.8172   64
 Side 2  free  transition at x/c =  0.5788   59

  54   rms: 0.3326E-01   max: -.2605E+00   T at   59  2
       a = -3.500      CL =  0.1886
      Cm = -0.1027     CD =  0.04075   =>   CDf =  0.00605    CDp =  0.03470

 Side 1  free  transition at x/c =  0.8172   64
 Side 2  free  transition at x/c =  0.5787   59

  55   rms: 0.3345E-01   max: -.2615E+00   T at   59  2
       a = -3.500      CL =  0.1886
      Cm = -0.1027     CD =  0.04075   =>   CDf =  0.00605    CDp =  0.03470

 Side 1  free  transition at x/c =  0.8172   64
 Side 2  free  transition at x/c =  0.5788   59

  56   rms: 0.3327E-01   max: -.2605E+00   T at   59  2
       a = -3.500      CL =  0.1886
      Cm = -0.1027     CD =  0.04075   =>   CDf =  0.00605    CDp =  0.03470

 Side 1  free  transition at x/c =  0.8172   64
 Side 2  free  transition at x/c =  0.5787   59

  57   rms: 0.3344E-01   max: -.2614E+00   T at   59  2
       a = -3.500      CL =  0.1886
      Cm = -0.1027     CD =  0.04075   =>   CDf =  0.00605    CDp =  0.03470

 Side 1  free  transition at x/c =  0.8172   64
 Side 2  free  transition at x/c =  0.5788   59

  58   rms: 0.3325E-01   max: -.2605E+00   T at   59  2
       a = -3.500      CL =  0.1886
      Cm = -0.1027     CD =  0.04075   =>   CDf =  0.00605    CDp =  0.03470

 Side 1  free  transition at x/c =  0.8172   64
 Side 2  free  transition at x/c =  0.5787   59

  59   rms: 0.3346E-01   max: -.2616E+00   T at   59  2
       a = -3.500      CL =  0.1886
      Cm = -0.1027     CD =  0.04075   =>   CDf =  0.00605    CDp =  0.03470

 Side 1  free  transition at x/c =  0.8172   64
 Side 2  free  transition at x/c =  0.5788   59

  60   rms: 0.3327E-01   max: -.2605E+00   T at   59  2
       a = -3.500      CL =  0.1886
      Cm = -0.1027     CD =  0.04075   =>   CDf =  0.00605    CDp =  0.03470

 Side 1  free  transition at x/c =  0.8172   64
 Side 2  free  transition at x/c =  0.5787   59

  61   rms: 0.3346E-01   max: -.2615E+00   T at   59  2
       a = -3.500      CL =  0.1886
      Cm = -0.1027     CD =  0.04075   =>   CDf =  0.00605    CDp =  0.03470

 Side 1  free  transition at x/c =  0.8172   64
 Side 2  free  transition at x/c =  0.5788   59

  62   rms: 0.3328E-01   max: -.2605E+00   T at   59  2
       a = -3.500      CL =  0.1886
      Cm = -0.1027     CD =  0.04075   =>   CDf =  0.00605    CDp =  0.03470

 Side 1  free  transition at x/c =  0.8172   64
 Side 2  free  transition at x/c =  0.5787   59

  63   rms: 0.3343E-01   max: -.2612E+00   T at   59  2
       a = -3.500      CL =  0.1886
      Cm = -0.1027     CD =  0.04075   =>   CDf =  0.00605    CDp =  0.03470

 Side 1  free  transition at x/c =  0.8172   64
 Side 2  free  transition at x/c =  0.5788   59

  64   rms: 0.3325E-01   max: -.2606E+00   T at   59  2
       a = -3.500      CL =  0.1886
      Cm = -0.1027     CD =  0.04075   =>   CDf =  0.00605    CDp =  0.03470

 Side 1  free  transition at x/c =  0.8172   64
 Side 2  free  transition at x/c =  0.5787   59

  65   rms: 0.3345E-01   max: -.2615E+00   T at   59  2
       a = -3.500      CL =  0.1886
      Cm = -0.1027     CD =  0.04075   =>   CDf =  0.00605    CDp =  0.03470

 Side 1  free  transition at x/c =  0.8172   64
 Side 2  free  transition at x/c =  0.5788   59

  66   rms: 0.3327E-01   max: -.2605E+00   T at   59  2
       a = -3.500      CL =  0.1886
      Cm = -0.1027     CD =  0.04075   =>   CDf =  0.00605    CDp =  0.03470

 Side 1  free  transition at x/c =  0.8172   64
 Side 2  free  transition at x/c =  0.5787   59

  67   rms: 0.3344E-01   max: -.2613E+00   T at   59  2
       a = -3.500      CL =  0.1886
      Cm = -0.1027     CD =  0.04075   =>   CDf =  0.00605    CDp =  0.03470

 Side 1  free  transition at x/c =  0.8172   64
 Side 2  free  transition at x/c =  0.5788   59

  68   rms: 0.3326E-01   max: -.2605E+00   T at   59  2
       a = -3.500      CL =  0.1886
      Cm = -0.1027     CD =  0.04075   =>   CDf =  0.00605    CDp =  0.03470

 Side 1  free  transition at x/c =  0.8172   64
 Side 2  free  transition at x/c =  0.5787   59

  69   rms: 0.3345E-01   max: -.2616E+00   T at   59  2
       a = -3.500      CL =  0.1886
      Cm = -0.1027     CD =  0.04075   =>   CDf =  0.00605    CDp =  0.03470

 Side 1  free  transition at x/c =  0.8172   64
 Side 2  free  transition at x/c =  0.5788   59

  70   rms: 0.3328E-01   max: -.2605E+00   T at   59  2
       a = -3.500      CL =  0.1886
      Cm = -0.1027     CD =  0.04075   =>   CDf =  0.00605    CDp =  0.03470

 Side 1  free  transition at x/c =  0.8172   64
 Side 2  free  transition at x/c =  0.5787   59

  71   rms: 0.3342E-01   max: -.2612E+00   T at   59  2
       a = -3.500      CL =  0.1886
      Cm = -0.1027     CD =  0.04075   =>   CDf =  0.00605    CDp =  0.03470

 Side 1  free  transition at x/c =  0.8172   64
 Side 2  free  transition at x/c =  0.5788   59

  72   rms: 0.3325E-01   max: -.2605E+00   T at   59  2
       a = -3.500      CL =  0.1886
      Cm = -0.1027     CD =  0.04075   =>   CDf =  0.00605    CDp =  0.03470

 Side 1  free  transition at x/c =  0.8172   64
 Side 2  free  transition at x/c =  0.5787   59

  73   rms: 0.3344E-01   max: -.2614E+00   T at   59  2
       a = -3.500      CL =  0.1886
      Cm = -0.1027     CD =  0.04075   =>   CDf =  0.00605    CDp =  0.03470

 Side 1  free  transition at x/c =  0.8172   64
 Side 2  free  transition at x/c =  0.5788   59

  74   rms: 0.3326E-01   max: -.2606E+00   T at   59  2
       a = -3.500      CL =  0.1886
      Cm = -0.1027     CD =  0.04075   =>   CDf =  0.00605    CDp =  0.03470

 Side 1  free  transition at x/c =  0.8172   64
 Side 2  free  transition at x/c =  0.5787   59

  75   rms: 0.3346E-01   max: -.2616E+00   T at   59  2
       a = -3.500      CL =  0.1886
      Cm = -0.1027     CD =  0.04075   =>   CDf =  0.00605    CDp =  0.03470

 Side 1  free  transition at x/c =  0.8172   64
 Side 2  free  transition at x/c =  0.5788   59

  76   rms: 0.3327E-01   max: -.2604E+00   T at   59  2
       a = -3.500      CL =  0.1886
      Cm = -0.1027     CD =  0.04075   =>   CDf =  0.00605    CDp =  0.03470

 Side 1  free  transition at x/c =  0.8172   64
 Side 2  free  transition at x/c =  0.5787   59

  77   rms: 0.3343E-01   max: -.2613E+00   T at   59  2
       a = -3.500      CL =  0.1886
      Cm = -0.1027     CD =  0.04075   =>   CDf =  0.00605    CDp =  0.03470

 Side 1  free  transition at x/c =  0.8172   64
 Side 2  free  transition at x/c =  0.5788   59

  78   rms: 0.3325E-01   max: -.2606E+00   T at   59  2
       a = -3.500      CL =  0.1886
      Cm = -0.1027     CD =  0.04075   =>   CDf =  0.00605    CDp =  0.03470

 Side 1  free  transition at x/c =  0.8172   64
 Side 2  free  transition at x/c =  0.5787   59

  79   rms: 0.3346E-01   max: -.2615E+00   T at   59  2
       a = -3.500      CL =  0.1886
      Cm = -0.1027     CD =  0.04075   =>   CDf =  0.00605    CDp =  0.03470

 Side 1  free  transition at x/c =  0.8172   64
 Side 2  free  transition at x/c =  0.5788   59

  80   rms: 0.3327E-01   max: -.2605E+00   T at   59  2
       a = -3.500      CL =  0.1886
      Cm = -0.1027     CD =  0.04075   =>   CDf =  0.00605    CDp =  0.03470

 Side 1  free  transition at x/c =  0.8172   64
 Side 2  free  transition at x/c =  0.5787   59

  81   rms: 0.3344E-01   max: -.2614E+00   T at   59  2
       a = -3.500      CL =  0.1886
      Cm = -0.1027     CD =  0.04075   =>   CDf =  0.00605    CDp =  0.03470

 Side 1  free  transition at x/c =  0.8172   64
 Side 2  free  transition at x/c =  0.5788   59

  82   rms: 0.3327E-01   max: -.2605E+00   T at   59  2
       a = -3.500      CL =  0.1886
      Cm = -0.1027     CD =  0.04075   =>   CDf =  0.00605    CDp =  0.03470

 Side 1  free  transition at x/c =  0.8172   64
 Side 2  free  transition at x/c =  0.5787   59

  83   rms: 0.3344E-01   max: -.2613E+00   T at   59  2
       a = -3.500      CL =  0.1886
      Cm = -0.1027     CD =  0.04075   =>   CDf =  0.00605    CDp =  0.03470

 Side 1  free  transition at x/c =  0.8172   64
 Side 2  free  transition at x/c =  0.5788   59

  84   rms: 0.3326E-01   max: -.2606E+00   T at   59  2
       a = -3.500      CL =  0.1886
      Cm = -0.1027     CD =  0.04075   =>   CDf =  0.00605    CDp =  0.03470

 Side 1  free  transition at x/c =  0.8172   64
 Side 2  free  transition at x/c =  0.5787   59

  85   rms: 0.3346E-01   max: -.2616E+00   T at   59  2
       a = -3.500      CL =  0.1886
      Cm = -0.1027     CD =  0.04075   =>   CDf =  0.00605    CDp =  0.03470

 Side 1  free  transition at x/c =  0.8172   64
 Side 2  free  transition at x/c =  0.5788   59

  86   rms: 0.3327E-01   max: -.2605E+00   T at   59  2
       a = -3.500      CL =  0.1886
      Cm = -0.1027     CD =  0.04075   =>   CDf =  0.00605    CDp =  0.03470

 Side 1  free  transition at x/c =  0.8172   64
 Side 2  free  transition at x/c =  0.5787   59

  87   rms: 0.3343E-01   max: -.2613E+00   T at   59  2
       a = -3.500      CL =  0.1886
      Cm = -0.1027     CD =  0.04075   =>   CDf =  0.00605    CDp =  0.03470

 Side 1  free  transition at x/c =  0.8172   64
 Side 2  free  transition at x/c =  0.5788   59

  88   rms: 0.3326E-01   max: -.2606E+00   T at   59  2
       a = -3.500      CL =  0.1886
      Cm = -0.1027     CD =  0.04075   =>   CDf =  0.00605    CDp =  0.03470

 Side 1  free  transition at x/c =  0.8172   64
 Side 2  free  transition at x/c =  0.5787   59

  89   rms: 0.3346E-01   max: -.2615E+00   T at   59  2
       a = -3.500      CL =  0.1886
      Cm = -0.1027     CD =  0.04075   =>   CDf =  0.00605    CDp =  0.03470

 Side 1  free  transition at x/c =  0.8172   64
 Side 2  free  transition at x/c =  0.5788   59

  90   rms: 0.3327E-01   max: -.2605E+00   T at   59  2
       a = -3.500      CL =  0.1886
      Cm = -0.1027     CD =  0.04075   =>   CDf =  0.00605    CDp =  0.03470

 Side 1  free  transition at x/c =  0.8172   64
 Side 2  free  transition at x/c =  0.5787   59

  91   rms: 0.3342E-01   max: -.2612E+00   T at   59  2
       a = -3.500      CL =  0.1886
      Cm = -0.1027     CD =  0.04075   =>   CDf =  0.00605    CDp =  0.03470

 Side 1  free  transition at x/c =  0.8172   64
 Side 2  free  transition at x/c =  0.5788   59

  92   rms: 0.3325E-01   max: -.2606E+00   T at   59  2
       a = -3.500      CL =  0.1886
      Cm = -0.1027     CD =  0.04075   =>   CDf =  0.00605    CDp =  0.03470

 Side 1  free  transition at x/c =  0.8172   64
 Side 2  free  transition at x/c =  0.5787   59

  93   rms: 0.3346E-01   max: -.2615E+00   T at   59  2
       a = -3.500      CL =  0.1886
      Cm = -0.1027     CD =  0.04075   =>   CDf =  0.00605    CDp =  0.03470

 Side 1  free  transition at x/c =  0.8172   64
 Side 2  free  transition at x/c =  0.5788   59

  94   rms: 0.3327E-01   max: -.2605E+00   T at   59  2
       a = -3.500      CL =  0.1886
      Cm = -0.1027     CD =  0.04075   =>   CDf =  0.00605    CDp =  0.03470

 Side 1  free  transition at x/c =  0.8172   64
 Side 2  free  transition at x/c =  0.5787   59

  95   rms: 0.3345E-01   max: -.2616E+00   T at   59  2
       a = -3.500      CL =  0.1886
      Cm = -0.1027     CD =  0.04075   =>   CDf =  0.00605    CDp =  0.03470

 Side 1  free  transition at x/c =  0.8172   64
 Side 2  free  transition at x/c =  0.5788   59

  96   rms: 0.3329E-01   max: -.2605E+00   T at   59  2
       a = -3.500      CL =  0.1886
      Cm = -0.1027     CD =  0.04075   =>   CDf =  0.00605    CDp =  0.03470

 Side 1  free  transition at x/c =  0.8172   64
 Side 2  free  transition at x/c =  0.5787   59

  97   rms: 0.3341E-01   max: -.2612E+00   T at   59  2
       a = -3.500      CL =  0.1886
      Cm = -0.1027     CD =  0.04075   =>   CDf =  0.00605    CDp =  0.03470

 Side 1  free  transition at x/c =  0.8172   64
 Side 2  free  transition at x/c =  0.5788   59

  98   rms: 0.3327E-01   max: -.2605E+00   T at   59  2
       a = -3.500      CL =  0.1886
      Cm = -0.1027     CD =  0.04075   =>   CDf =  0.00605    CDp =  0.03470

 Side 1  free  transition at x/c =  0.8172   64
 Side 2  free  transition at x/c =  0.5787   59

  99   rms: 0.3341E-01   max: -.2612E+00   T at   59  2
       a = -3.500      CL =  0.1886
      Cm = -0.1027     CD =  0.04075   =>   CDf =  0.00605    CDp =  0.03470

 Side 1  free  transition at x/c =  0.8172   64
 Side 2  free  transition at x/c =  0.5788   59

 100   rms: 0.3327E-01   max: -.2605E+00   T at   59  2
       a = -3.500      CL =  0.1886
      Cm = -0.1027     CD =  0.04075   =>   CDf =  0.00605    CDp =  0.03470

 Side 1  free  transition at x/c =  0.8172   64
 Side 2  free  transition at x/c =  0.5787   59

 101   rms: 0.3343E-01   max: -.2613E+00   T at   59  2
       a = -3.500      CL =  0.1886
      Cm = -0.1027     CD =  0.04075   =>   CDf =  0.00605    CDp =  0.03470

 Side 1  free  transition at x/c =  0.8172   64
 Side 2  free  transition at x/c =  0.5788   59

 102   rms: 0.3325E-01   max: -.2604E+00   T at   59  2
       a = -3.500      CL =  0.1886
      Cm = -0.1027     CD =  0.04075   =>   CDf =  0.00605    CDp =  0.03470

 Side 1  free  transition at x/c =  0.8172   64
 Side 2  free  transition at x/c =  0.5787   59

 103   rms: 0.3343E-01   max: -.2614E+00   T at   59  2
       a = -3.500      CL =  0.1886
      Cm = -0.1027     CD =  0.04075   =>   CDf =  0.00605    CDp =  0.03470

 Side 1  free  transition at x/c =  0.8172   64
 Side 2  free  transition at x/c =  0.5788   59

 104   rms: 0.3325E-01   max: -.2605E+00   T at   59  2
       a = -3.500      CL =  0.1886
      Cm = -0.1027     CD =  0.04075   =>   CDf =  0.00605    CDp =  0.03470

 Side 1  free  transition at x/c =  0.8172   64
 Side 2  free  transition at x/c =  0.5787   59

 105   rms: 0.3345E-01   max: -.2615E+00   T at   59  2
       a = -3.500      CL =  0.1886
      Cm = -0.1027     CD =  0.04075   =>   CDf =  0.00605    CDp =  0.03470

 Side 1  free  transition at x/c =  0.8172   64
 Side 2  free  transition at x/c =  0.5788   59

 106   rms: 0.3328E-01   max: -.2606E+00   T at   59  2
       a = -3.500      CL =  0.1886
      Cm = -0.1027     CD =  0.04075   =>   CDf =  0.00605    CDp =  0.03470

 Side 1  free  transition at x/c =  0.8172   64
 Side 2  free  transition at x/c =  0.5787   59

 107   rms: 0.3345E-01   max: -.2615E+00   T at   59  2
       a = -3.500      CL =  0.1886
      Cm = -0.1027     CD =  0.04075   =>   CDf =  0.00605    CDp =  0.03470

 Side 1  free  transition at x/c =  0.8172   64
 Side 2  free  transition at x/c =  0.5788   59

 108   rms: 0.3327E-01   max: -.2605E+00   T at   59  2
       a = -3.500      CL =  0.1886
      Cm = -0.1027     CD =  0.04075   =>   CDf =  0.00605    CDp =  0.03470

 Side 1  free  transition at x/c =  0.8172   64
 Side 2  free  transition at x/c =  0.5787   59

 109   rms: 0.3342E-01   max: -.2613E+00   T at   59  2
       a = -3.500      CL =  0.1886
      Cm = -0.1027     CD =  0.04075   =>   CDf =  0.00605    CDp =  0.03470

 Side 1  free  transition at x/c =  0.8172   64
 Side 2  free  transition at x/c =  0.5788   59

 110   rms: 0.3326E-01   max: -.2605E+00   T at   59  2
       a = -3.500      CL =  0.1886
      Cm = -0.1027     CD =  0.04075   =>   CDf =  0.00605    CDp =  0.03470

 Side 1  free  transition at x/c =  0.8172   64
 Side 2  free  transition at x/c =  0.5787   59

 111   rms: 0.3342E-01   max: -.2612E+00   T at   59  2
       a = -3.500      CL =  0.1886
      Cm = -0.1027     CD =  0.04075   =>   CDf =  0.00605    CDp =  0.03470

 Side 1  free  transition at x/c =  0.8172   64
 Side 2  free  transition at x/c =  0.5788   59

 112   rms: 0.3325E-01   max: -.2605E+00   T at   59  2
       a = -3.500      CL =  0.1886
      Cm = -0.1027     CD =  0.04075   =>   CDf =  0.00605    CDp =  0.03470

 Side 1  free  transition at x/c =  0.8172   64
 Side 2  free  transition at x/c =  0.5787   59

 113   rms: 0.3345E-01   max: -.2615E+00   T at   59  2
       a = -3.500      CL =  0.1886
      Cm = -0.1027     CD =  0.04075   =>   CDf =  0.00605    CDp =  0.03470

 Side 1  free  transition at x/c =  0.8172   64
 Side 2  free  transition at x/c =  0.5788   59

 114   rms: 0.3327E-01   max: -.2605E+00   T at   59  2
       a = -3.500      CL =  0.1886
      Cm = -0.1027     CD =  0.04075   =>   CDf =  0.00605    CDp =  0.03470

 Side 1  free  transition at x/c =  0.8172   64
 Side 2  free  transition at x/c =  0.5787   59

 115   rms: 0.3345E-01   max: -.2615E+00   T at   59  2
       a = -3.500      CL =  0.1886
      Cm = -0.1027     CD =  0.04075   =>   CDf =  0.00605    CDp =  0.03470

 Side 1  free  transition at x/c =  0.8172   64
 Side 2  free  transition at x/c =  0.5788   59

 116   rms: 0.3328E-01   max: -.2605E+00   T at   59  2
       a = -3.500      CL =  0.1886
      Cm = -0.1027     CD =  0.04075   =>   CDf =  0.00605    CDp =  0.03470

 Side 1  free  transition at x/c =  0.8172   64
 Side 2  free  transition at x/c =  0.5787   59

 117   rms: 0.3342E-01   max: -.2613E+00   T at   59  2
       a = -3.500      CL =  0.1886
      Cm = -0.1027     CD =  0.04075   =>   CDf =  0.00605    CDp =  0.03470

 Side 1  free  transition at x/c =  0.8172   64
 Side 2  free  transition at x/c =  0.5788   59

 118   rms: 0.3326E-01   max: -.2605E+00   T at   59  2
       a = -3.500      CL =  0.1886
      Cm = -0.1027     CD =  0.04075   =>   CDf =  0.00605    CDp =  0.03470

 Side 1  free  transition at x/c =  0.8172   64
 Side 2  free  transition at x/c =  0.5787   59

 119   rms: 0.3342E-01   max: -.2612E+00   T at   59  2
       a = -3.500      CL =  0.1886
      Cm = -0.1027     CD =  0.04075   =>   CDf =  0.00605    CDp =  0.03470

 Side 1  free  transition at x/c =  0.8172   64
 Side 2  free  transition at x/c =  0.5788   59

 120   rms: 0.3325E-01   max: -.2606E+00   T at   59  2
       a = -3.500      CL =  0.1886
      Cm = -0.1027     CD =  0.04075   =>   CDf =  0.00605    CDp =  0.03470

 Side 1  free  transition at x/c =  0.8172   64
 Side 2  free  transition at x/c =  0.5787   59

 121   rms: 0.3346E-01   max: -.2615E+00   T at   59  2
       a = -3.500      CL =  0.1886
      Cm = -0.1027     CD =  0.04075   =>   CDf =  0.00605    CDp =  0.03470

 Side 1  free  transition at x/c =  0.8172   64
 Side 2  free  transition at x/c =  0.5788   59

 122   rms: 0.3328E-01   max: -.2605E+00   T at   59  2
       a = -3.500      CL =  0.1886
      Cm = -0.1027     CD =  0.04075   =>   CDf =  0.00605    CDp =  0.03470

 Side 1  free  transition at x/c =  0.8172   64
 Side 2  free  transition at x/c =  0.5787   59

 123   rms: 0.3344E-01   max: -.2614E+00   T at   59  2
       a = -3.500      CL =  0.1886
      Cm = -0.1027     CD =  0.04075   =>   CDf =  0.00605    CDp =  0.03470

 Side 1  free  transition at x/c =  0.8172   64
 Side 2  free  transition at x/c =  0.5788   59

 124   rms: 0.3327E-01   max: -.2606E+00   T at   59  2
       a = -3.500      CL =  0.1886
      Cm = -0.1027     CD =  0.04075   =>   CDf =  0.00605    CDp =  0.03470

 Side 1  free  transition at x/c =  0.8172   64
 Side 2  free  transition at x/c =  0.5787   59

 125   rms: 0.3345E-01   max: -.2615E+00   T at   59  2
       a = -3.500      CL =  0.1886
      Cm = -0.1027     CD =  0.04075   =>   CDf =  0.00605    CDp =  0.03470

 Side 1  free  transition at x/c =  0.8172   64
 Side 2  free  transition at x/c =  0.5788   59

 126   rms: 0.3328E-01   max: -.2605E+00   T at   59  2
       a = -3.500      CL =  0.1886
      Cm = -0.1027     CD =  0.04075   =>   CDf =  0.00605    CDp =  0.03470

 Side 1  free  transition at x/c =  0.8172   64
 Side 2  free  transition at x/c =  0.5787   59

 127   rms: 0.3344E-01   max: -.2613E+00   T at   59  2
       a = -3.500      CL =  0.1886
      Cm = -0.1027     CD =  0.04075   =>   CDf =  0.00605    CDp =  0.03470

 Side 1  free  transition at x/c =  0.8172   64
 Side 2  free  transition at x/c =  0.5788   59

 128   rms: 0.3325E-01   max: -.2605E+00   T at   59  2
       a = -3.500      CL =  0.1886
      Cm = -0.1027     CD =  0.04075   =>   CDf =  0.00605    CDp =  0.03470

 Side 1  free  transition at x/c =  0.8172   64
 Side 2  free  transition at x/c =  0.5787   59

 129   rms: 0.3345E-01   max: -.2616E+00   T at   59  2
       a = -3.500      CL =  0.1886
      Cm = -0.1027     CD =  0.04075   =>   CDf =  0.00605    CDp =  0.03470

 Side 1  free  transition at x/c =  0.8172   64
 Side 2  free  transition at x/c =  0.5788   59

 130   rms: 0.3328E-01   max: -.2605E+00   T at   59  2
       a = -3.500      CL =  0.1886
      Cm = -0.1027     CD =  0.04075   =>   CDf =  0.00605    CDp =  0.03470

 Side 1  free  transition at x/c =  0.8172   64
 Side 2  free  transition at x/c =  0.5787   59

 131   rms: 0.3343E-01   max: -.2613E+00   T at   59  2
       a = -3.500      CL =  0.1886
      Cm = -0.1027     CD =  0.04075   =>   CDf =  0.00605    CDp =  0.03470

 Side 1  free  transition at x/c =  0.8172   64
 Side 2  free  transition at x/c =  0.5788   59

 132   rms: 0.3326E-01   max: -.2605E+00   T at   59  2
       a = -3.500      CL =  0.1886
      Cm = -0.1027     CD =  0.04075   =>   CDf =  0.00605    CDp =  0.03470

 Side 1  free  transition at x/c =  0.8172   64
 Side 2  free  transition at x/c =  0.5787   59

 133   rms: 0.3343E-01   max: -.2613E+00   T at   59  2
       a = -3.500      CL =  0.1886
      Cm = -0.1027     CD =  0.04075   =>   CDf =  0.00605    CDp =  0.03470

 Side 1  free  transition at x/c =  0.8172   64
 Side 2  free  transition at x/c =  0.5788   59

 134   rms: 0.3326E-01   max: -.2606E+00   T at   59  2
       a = -3.500      CL =  0.1886
      Cm = -0.1027     CD =  0.04075   =>   CDf =  0.00605    CDp =  0.03470

 Side 1  free  transition at x/c =  0.8172   64
 Side 2  free  transition at x/c =  0.5787   59

 135   rms: 0.3346E-01   max: -.2615E+00   T at   59  2
       a = -3.500      CL =  0.1886
      Cm = -0.1027     CD =  0.04075   =>   CDf =  0.00605    CDp =  0.03470

 Side 1  free  transition at x/c =  0.8172   64
 Side 2  free  transition at x/c =  0.5788   59

 136   rms: 0.3327E-01   max: -.2605E+00   T at   59  2
       a = -3.500      CL =  0.1886
      Cm = -0.1027     CD =  0.04075   =>   CDf =  0.00605    CDp =  0.03470

 Side 1  free  transition at x/c =  0.8172   64
 Side 2  free  transition at x/c =  0.5787   59

 137   rms: 0.3343E-01   max: -.2614E+00   T at   59  2
       a = -3.500      CL =  0.1886
      Cm = -0.1027     CD =  0.04075   =>   CDf =  0.00605    CDp =  0.03470

 Side 1  free  transition at x/c =  0.8172   64
 Side 2  free  transition at x/c =  0.5788   59

 138   rms: 0.3328E-01   max: -.2606E+00   T at   59  2
       a = -3.500      CL =  0.1886
      Cm = -0.1027     CD =  0.04075   =>   CDf =  0.00605    CDp =  0.03470

 Side 1  free  transition at x/c =  0.8172   64
 Side 2  free  transition at x/c =  0.5787   59

 139   rms: 0.3343E-01   max: -.2613E+00   T at   59  2
       a = -3.500      CL =  0.1886
      Cm = -0.1027     CD =  0.04075   =>   CDf =  0.00605    CDp =  0.03470

 Side 1  free  transition at x/c =  0.8172   64
 Side 2  free  transition at x/c =  0.5788   59

 140   rms: 0.3326E-01   max: -.2606E+00   T at   59  2
       a = -3.500      CL =  0.1886
      Cm = -0.1027     CD =  0.04075   =>   CDf =  0.00605    CDp =  0.03470

 Side 1  free  transition at x/c =  0.8172   64
 Side 2  free  transition at x/c =  0.5787   59

 141   rms: 0.3344E-01   max: -.2614E+00   T at   59  2
       a = -3.500      CL =  0.1886
      Cm = -0.1027     CD =  0.04075   =>   CDf =  0.00605    CDp =  0.03470

 Side 1  free  transition at x/c =  0.8172   64
 Side 2  free  transition at x/c =  0.5788   59

 142   rms: 0.3327E-01   max: -.2606E+00   T at   59  2
       a = -3.500      CL =  0.1886
      Cm = -0.1027     CD =  0.04075   =>   CDf =  0.00605    CDp =  0.03470

 Side 1  free  transition at x/c =  0.8172   64
 Side 2  free  transition at x/c =  0.5787   59

 143   rms: 0.3343E-01   max: -.2613E+00   T at   59  2
       a = -3.500      CL =  0.1886
      Cm = -0.1027     CD =  0.04075   =>   CDf =  0.00605    CDp =  0.03470

 Side 1  free  transition at x/c =  0.8172   64
 Side 2  free  transition at x/c =  0.5788   59

 144   rms: 0.3327E-01   max: -.2606E+00   T at   59  2
       a = -3.500      CL =  0.1886
      Cm = -0.1027     CD =  0.04075   =>   CDf =  0.00605    CDp =  0.03470

 Side 1  free  transition at x/c =  0.8172   64
 Side 2  free  transition at x/c =  0.5787   59

 145   rms: 0.3343E-01   max: -.2613E+00   T at   59  2
       a = -3.500      CL =  0.1886
      Cm = -0.1027     CD =  0.04075   =>   CDf =  0.00605    CDp =  0.03470

 Side 1  free  transition at x/c =  0.8172   64
 Side 2  free  transition at x/c =  0.5788   59

 146   rms: 0.3327E-01   max: -.2606E+00   T at   59  2
       a = -3.500      CL =  0.1886
      Cm = -0.1027     CD =  0.04075   =>   CDf =  0.00605    CDp =  0.03470

 Side 1  free  transition at x/c =  0.8172   64
 Side 2  free  transition at x/c =  0.5787   59

 147   rms: 0.3342E-01   max: -.2612E+00   T at   59  2
       a = -3.500      CL =  0.1886
      Cm = -0.1027     CD =  0.04075   =>   CDf =  0.00605    CDp =  0.03470

 Side 1  free  transition at x/c =  0.8172   64
 Side 2  free  transition at x/c =  0.5788   59

 148   rms: 0.3325E-01   max: -.2605E+00   T at   59  2
       a = -3.500      CL =  0.1886
      Cm = -0.1027     CD =  0.04075   =>   CDf =  0.00605    CDp =  0.03470

 Side 1  free  transition at x/c =  0.8172   64
 Side 2  free  transition at x/c =  0.5787   59

 149   rms: 0.3344E-01   max: -.2613E+00   T at   59  2
       a = -3.500      CL =  0.1886
      Cm = -0.1027     CD =  0.04075   =>   CDf =  0.00605    CDp =  0.03470

 Side 1  free  transition at x/c =  0.8172   64
 Side 2  free  transition at x/c =  0.5788   59

 150   rms: 0.3325E-01   max: -.2605E+00   T at   59  2
       a = -3.500      CL =  0.1886
      Cm = -0.1027     CD =  0.04075   =>   CDf =  0.00605    CDp =  0.03470

 Side 1  free  transition at x/c =  0.8172   64
 Side 2  free  transition at x/c =  0.5787   59

 151   rms: 0.3346E-01   max: -.2616E+00   T at   59  2
       a = -3.500      CL =  0.1886
      Cm = -0.1027     CD =  0.04075   =>   CDf =  0.00605    CDp =  0.03470

 Side 1  free  transition at x/c =  0.8172   64
 Side 2  free  transition at x/c =  0.5788   59

 152   rms: 0.3328E-01   max: -.2605E+00   T at   59  2
       a = -3.500      CL =  0.1886
      Cm = -0.1027     CD =  0.04075   =>   CDf =  0.00605    CDp =  0.03470

 Side 1  free  transition at x/c =  0.8172   64
 Side 2  free  transition at x/c =  0.5787   59

 153   rms: 0.3344E-01   max: -.2613E+00   T at   59  2
       a = -3.500      CL =  0.1886
      Cm = -0.1027     CD =  0.04075   =>   CDf =  0.00605    CDp =  0.03470

 Side 1  free  transition at x/c =  0.8172   64
 Side 2  free  transition at x/c =  0.5788   59

 154   rms: 0.3326E-01   max: -.2606E+00   T at   59  2
       a = -3.500      CL =  0.1886
      Cm = -0.1027     CD =  0.04075   =>   CDf =  0.00605    CDp =  0.03470

 Side 1  free  transition at x/c =  0.8172   64
 Side 2  free  transition at x/c =  0.5787   59

 155   rms: 0.3345E-01   max: -.2614E+00   T at   59  2
       a = -3.500      CL =  0.1886
      Cm = -0.1027     CD =  0.04075   =>   CDf =  0.00605    CDp =  0.03470
 VISCAL:  Convergence failed
 Calculating wake trajectory ...
 Calculating source influence matrix ...

 Solving BL system ...

 Side 1  free  transition at x/c =  0.8172   64
 Side 2  free  transition at x/c =  0.5788   59

   1   rms: 0.2763E+00   max: -.2120E+01   T at   59  2   RLX: 0.236
       a = -3.000      CL =  0.2057
      Cm = -0.1124     CD =  0.03741   =>   CDf =  0.00605    CDp =  0.03135

 Side 1  free  transition at x/c =  0.8138   63
 Side 2  free  transition at x/c =  0.5784   59
 idif Ue xi dudx           1  0.13774839      4.25481796E-03   32.374683    
 Uenew xinew           2  5.02450466E-02  1.55198574E-03

   2   rms: 0.3211E+00   max: 0.1623E+01   T at   63  1   RLX: 0.552
       a = -3.000      CL =  0.0404
      Cm = -0.0647     CD =  0.04166   =>   CDf =  0.00622    CDp =  0.03544

 Side 1  free  transition at x/c =  0.7690   60
 Side 2  free  transition at x/c =  0.5488   59

   3   rms: 0.2659E+01   max: 0.3373E+02   T at   59  2   RLX: 0.044
       a = -3.000      CL = -0.0076
      Cm = -0.0652     CD =  0.04525   =>   CDf =  0.00584    CDp =  0.03941

 Side 1  free  transition at x/c =  0.7679   60
 Side 2  free  transition at x/c =  0.5432   58

   4   rms: 0.3184E+00   max: -.3375E+01   T at   58  2   RLX: 0.148
       a = -3.000      CL =  0.0330
      Cm = -0.0758     CD =  0.03881   =>   CDf =  0.00602    CDp =  0.03279

 Side 1  free  transition at x/c =  0.7721   60
 Side 2  free  transition at x/c =  0.5501   59

   5   rms: 0.4136E+00   max: 0.2074E+01   D at   76  2   RLX: 0.457
       a = -3.000      CL =  0.1246
      Cm = -0.0797     CD =  0.03849   =>   CDf =  0.00631    CDp =  0.03219

 Side 1  free  transition at x/c =  0.7919   62
 Side 2  free  transition at x/c =  0.5748   59

   6   rms: 0.1896E+00   max: -.2575E+01   T at   59  2   RLX: 0.194
       a = -3.000      CL =  0.1650
      Cm = -0.0884     CD =  0.03708   =>   CDf =  0.00615    CDp =  0.03093

 Side 1  free  transition at x/c =  0.7959   62
 Side 2  free  transition at x/c =  0.5872   60

   7   rms: 0.7199E+00   max: 0.7419E+01   T at   60  2   RLX: 0.191
       a = -3.000      CL =  0.1552
      Cm = -0.1059     CD =  0.03047   =>   CDf =  0.00622    CDp =  0.02425

 Side 1  free  transition at x/c =  0.7859   62
 Side 2  free  transition at x/c =  0.5749   59

   8   rms: 0.4688E+00   max: 0.3109E+01   D at   60  2   RLX: 0.482
       a = -3.000      CL =  0.1875
      Cm = -0.0951     CD =  0.03735   =>   CDf =  0.00644    CDp =  0.03091

 Side 1  free  transition at x/c =  0.7909   62
 Side 2  free  transition at x/c =  0.5980   61

   9   rms: 0.1005E+01   max: 0.7506E+01   T at   61  2   RLX: 0.157
       a = -3.000      CL =  0.2418
      Cm = -0.1255     CD =  0.02982   =>   CDf =  0.00633    CDp =  0.02349

 Side 1  free  transition at x/c =  0.7894   62
 Side 2  free  transition at x/c =  0.5959   60

  10   rms: 0.1721E+02   max: 0.8534E+02   D at   61  2   RLX: 0.018
       a = -3.000      CL =  0.2039
      Cm = -0.1060     CD =  0.02627   =>   CDf =  0.00714    CDp =  0.01913

 Side 1  free  transition at x/c =  0.7879   62
 Side 2  free  transition at x/c =  0.5947   60

  11   rms: 0.4429E+00   max: 0.2781E+01   D at   61  2   RLX: 0.507
       a = -3.000      CL =  0.2406
      Cm = -0.1161     CD =  0.03016   =>   CDf =  0.00677    CDp =  0.02339

 Side 1  free  transition at x/c =  0.7914   62
 Side 2  free  transition at x/c =  0.6065   61

  12   rms: 0.2243E+01   max: 0.1054E+02   D at   70  2   RLX: 0.100
       a = -3.000      CL =  0.1822
      Cm = -0.0861     CD =  0.03335   =>   CDf =  0.00652    CDp =  0.02683

 MRCHDU: Convergence failed at  81  side 2    Res =  0.1206E+01
 MRCHDU: Convergence failed at  82  side 2    Res =  0.1172E+02
 MRCHDU: Convergence failed at  83  side 2    Res =  0.3048E+02
 MRCHDU: Convergence failed at  84  side 2    Res =  0.3356E+03
 MRCHDU: Convergence failed at  85  side 2    Res =  0.4007E+02
 MRCHDU: Convergence failed at  86  side 2    Res =  0.2069E+04
 Side 1  free  transition at x/c =  0.7909   62
 Side 2 forced transition at x/c =  0.9993   86

  13   rms: 0.6780E+00   max: 0.3292E+01   D at   89  2   RLX: 0.161
       a = -3.000      CL =  0.1557
      Cm = -0.0312     CD =  0.01263   =>   CDf =  0.00600    CDp =  0.00663

 Side 1  free  transition at x/c =  0.8024   64
 Side 2  free  transition at x/c =  0.7607   69

  14   rms: 0.7027E+00   max: 0.1132E+02   T at   69  2   RLX: 0.088
       a = -3.000      CL =  0.1912
      Cm = -0.0467     CD =  0.03305   =>   CDf =  0.00613    CDp =  0.02692

 Side 1  free  transition at x/c =  0.8067   64
 Side 2  free  transition at x/c =  0.7228   67

  15   rms: 0.3705E+00   max: 0.6433E+01   T at   67  2   RLX: 0.233
       a = -3.000      CL =  0.2336
      Cm = -0.0633     CD =  0.04254   =>   CDf =  0.00616    CDp =  0.03638

 Side 1  free  transition at x/c =  0.8157   65
 Side 2  free  transition at x/c =  0.6925   65

  16   rms: 0.2721E+00   max: 0.3563E+01   T at   65  2   RLX: 0.349
       a = -3.000      CL =  0.3060
      Cm = -0.0808     CD =  0.04679   =>   CDf =  0.00629    CDp =  0.04051

 Side 1  free  transition at x/c =  0.8205   65
 Side 2  free  transition at x/c =  0.6633   63

  17   rms: 0.2705E+00   max: -.2080E+01   T at   64  2   RLX: 0.240
       a = -3.000      CL =  0.3611
      Cm = -0.0906     CD =  0.04935   =>   CDf =  0.00636    CDp =  0.04299

 Side 1  free  transition at x/c =  0.8222   66
 Side 2  free  transition at x/c =  0.6470   61

  18   rms: 0.2178E+00   max: -.1334E+01   T at   62  2   RLX: 0.375
       a = -3.000      CL =  0.4278
      Cm = -0.1057     CD =  0.05431   =>   CDf =  0.00634    CDp =  0.04798

 Side 1  free  transition at x/c =  0.8229   66
 Side 2  free  transition at x/c =  0.6330   61

  19   rms: 0.1695E+00   max: 0.1304E+01   T at   63  2   RLX: 0.664
       a = -3.000      CL =  0.4693
      Cm = -0.1197     CD =  0.05074   =>   CDf =  0.00635    CDp =  0.04439

 Side 1  free  transition at x/c =  0.8205   66
 Side 2  free  transition at x/c =  0.6306   61

  20   rms: 0.1337E+00   max: -.6599E+00   D at   84  2   RLX: 0.758
       a = -3.000      CL =  0.4587
      Cm = -0.1208     CD =  0.04731   =>   CDf =  0.00637    CDp =  0.04095

 Side 1  free  transition at x/c =  0.8162   66
 Side 2  free  transition at x/c =  0.6328   61

  21   rms: 0.9855E-01   max: -.6495E+00   T at   61  2   RLX: 0.770
       a = -3.000      CL =  0.4243
      Cm = -0.1159     CD =  0.04318   =>   CDf =  0.00637    CDp =  0.03682

 Side 1  free  transition at x/c =  0.8146   65
 Side 2  free  transition at x/c =  0.6374   61

  22   rms: 0.7185E-01   max: -.5230E+00   T at   61  2   RLX: 0.956
       a = -3.000      CL =  0.3691
      Cm = -0.1074     CD =  0.04256   =>   CDf =  0.00633    CDp =  0.03624

 Side 1  free  transition at x/c =  0.8072   65
 Side 2  free  transition at x/c =  0.6422   61
 idif Ue xi dudx           1  0.14217108      3.15129757E-03   45.115093    
 Uenew xinew           2  3.65014225E-02  8.09073448E-04

  23   rms: 0.5048E-01   max: -.3342E+00   D at   61  2
       a = -3.000      CL =  0.3255
      Cm = -0.1020     CD =  0.04282   =>   CDf =  0.00625    CDp =  0.03657

 Side 1  free  transition at x/c =  0.8052   64
 Side 2  free  transition at x/c =  0.6464   62

  24   rms: 0.8351E-01   max: -.2065E+00   D at   85  2
       a = -3.000      CL =  0.2379
      Cm = -0.0900     CD =  0.04555   =>   CDf =  0.00620    CDp =  0.03934

 Side 1  free  transition at x/c =  0.7992   64
 Side 2  free  transition at x/c =  0.6453   62

  25   rms: 0.6555E-01   max: 0.2506E+00   D at   63  2
       a = -3.000      CL =  0.2800
      Cm = -0.0967     CD =  0.04363   =>   CDf =  0.00615    CDp =  0.03748

 Side 1  free  transition at x/c =  0.8019   64
 Side 2  free  transition at x/c =  0.6476   63

  26   rms: 0.2957E-01   max: -.1876E+00   T at   63  2
       a = -3.000      CL =  0.2882
      Cm = -0.0961     CD =  0.04204   =>   CDf =  0.00617    CDp =  0.03588

 Side 1  free  transition at x/c =  0.8033   64
 Side 2  free  transition at x/c =  0.6478   63

  27   rms: 0.1913E-01   max: -.1160E+00   T at   63  2
       a = -3.000      CL =  0.3011
      Cm = -0.0984     CD =  0.04211   =>   CDf =  0.00616    CDp =  0.03595

 Side 1  free  transition at x/c =  0.8041   64
 Side 2  free  transition at x/c =  0.6485   63

  28   rms: 0.5421E-02   max: -.3588E-01   D at   63  2
       a = -3.000      CL =  0.2996
      Cm = -0.0982     CD =  0.04214   =>   CDf =  0.00617    CDp =  0.03597

 Side 1  free  transition at x/c =  0.8040   64
 Side 2  free  transition at x/c =  0.6487   63

  29   rms: 0.5243E-03   max: -.2303E-02   D at   84  2
       a = -3.000      CL =  0.2991
      Cm = -0.0981     CD =  0.04213   =>   CDf =  0.00617    CDp =  0.03596

 Side 1  free  transition at x/c =  0.8039   64
 Side 2  free  transition at x/c =  0.6487   63

  30   rms: 0.1992E-04   max: -.9112E-04   D at   84  2
       a = -3.000      CL =  0.2991
      Cm = -0.0981     CD =  0.04213   =>   CDf =  0.00617    CDp =  0.03596
 plradd ia,ip,cpol            2           0  0.33026880    

 Point added to stored polar  1
 Point written to save file  sp4721la_Re150k.base.pol                        
 Dump file unspecified or not available
 Calculating wake trajectory ...
 Calculating source influence matrix ...

 Solving BL system ...

 Side 1  free  transition at x/c =  0.8039   64
 Side 2  free  transition at x/c =  0.6487   63

   1   rms: 0.2495E+00   max: -.1433E+01   T at   63  2   RLX: 0.349
       a = -2.500      CL =  0.3768
      Cm = -0.1055     CD =  0.03915   =>   CDf =  0.00622    CDp =  0.03293

 Side 1  free  transition at x/c =  0.8022   65
 Side 2  free  transition at x/c =  0.6444   61

   2   rms: 0.8484E-01   max: -.5431E+00   T at   61  2   RLX: 0.921
       a = -2.500      CL =  0.3814
      Cm = -0.1047     CD =  0.04300   =>   CDf =  0.00631    CDp =  0.03669

 Side 1  free  transition at x/c =  0.7896   64
 Side 2  free  transition at x/c =  0.6435   61

   3   rms: 0.5977E-01   max: -.4564E+00   D at   61  2
       a = -2.500      CL =  0.3173
      Cm = -0.0954     CD =  0.04289   =>   CDf =  0.00641    CDp =  0.03648

 Side 1  free  transition at x/c =  0.7775   63
 Side 2  free  transition at x/c =  0.6788   63
 idif Ue xi dudx           1  0.12289394      2.65550613E-03   46.278912    
 Uenew xinew           2  1.44983502E-02  3.13282013E-04

   4   rms: 0.1240E+02   max: -.1260E+03   T at   63  2   RLX: 0.004
       a = -2.500      CL =  0.3035
      Cm = -0.0981     CD =  0.03795   =>   CDf =  0.00641    CDp =  0.03154

 Side 1  free  transition at x/c =  0.7747   62
 Side 2  free  transition at x/c =  0.6752   64

   5   rms: 0.2601E+00   max: 0.1607E+01   D at   65  2   RLX: 0.933
       a = -2.500      CL =  0.3383
      Cm = -0.0856     CD =  0.04655   =>   CDf =  0.00644    CDp =  0.04011

 Side 1  free  transition at x/c =  0.7825   64
 Side 2  free  transition at x/c =  0.6395   61

   6   rms: 0.5967E-01   max: -.6094E+00   D at   62  2   RLX: 0.821
       a = -2.500      CL =  0.3830
      Cm = -0.1011     CD =  0.03983   =>   CDf =  0.00639    CDp =  0.03344

 Side 1  free  transition at x/c =  0.7846   64
 Side 2  free  transition at x/c =  0.6452   61

   7   rms: 0.1297E+00   max: -.7860E+00   T at   61  2   RLX: 0.636
       a = -2.500      CL =  0.3214
      Cm = -0.0951     CD =  0.04529   =>   CDf =  0.00643    CDp =  0.03886

 Side 1  free  transition at x/c =  0.7815   63
 Side 2  free  transition at x/c =  0.6436   61

   8   rms: 0.5161E-01   max: -.4686E+00   D at   61  2
       a = -2.500      CL =  0.3400
      Cm = -0.0998     CD =  0.04211   =>   CDf =  0.00640    CDp =  0.03571

 Side 1  free  transition at x/c =  0.7824   64
 Side 2  free  transition at x/c =  0.6762   63
 idif Ue xi dudx           1  0.12348585      2.66635418E-03   46.312618    
 Uenew xinew           2  1.50113115E-02  3.24130058E-04

   9   rms: 0.2522E+00   max: 0.2100E+01   D at   63  2   RLX: 0.714
       a = -2.500      CL =  0.2957
      Cm = -0.0889     CD =  0.04006   =>   CDf =  0.00649    CDp =  0.03357

 Side 1  free  transition at x/c =  0.7817   62
 Side 2  free  transition at x/c =  0.6604   63

  10   rms: 0.1005E+00   max: -.6017E+00   T at    2  2   RLX: 0.831
       a = -2.500      CL =  0.3778
      Cm = -0.1025     CD =  0.03879   =>   CDf =  0.00638    CDp =  0.03241

 Side 1  free  transition at x/c =  0.7934   64
 Side 2  free  transition at x/c =  0.6536   62

  11   rms: 0.4097E-01   max: -.3066E+00   D at   62  2
       a = -2.500      CL =  0.4016
      Cm = -0.1073     CD =  0.03905   =>   CDf =  0.00631    CDp =  0.03273

 Side 1  free  transition at x/c =  0.7891   64
 Side 2  free  transition at x/c =  0.6531   62

  12   rms: 0.1716E-01   max: -.9170E-01   D at   78  1
       a = -2.500      CL =  0.3811
      Cm = -0.1032     CD =  0.03967   =>   CDf =  0.00641    CDp =  0.03326

 Side 1  free  transition at x/c =  0.7844   64
 Side 2  free  transition at x/c =  0.6541   62

  13   rms: 0.1956E-02   max: -.1789E-01   D at   64  1
       a = -2.500      CL =  0.3791
      Cm = -0.1027     CD =  0.03970   =>   CDf =  0.00644    CDp =  0.03326

 Side 1  free  transition at x/c =  0.7847   64
 Side 2  free  transition at x/c =  0.6542   62

  14   rms: 0.3723E-04   max: 0.2039E-03   T at   65  1
       a = -2.500      CL =  0.3790
      Cm = -0.1027     CD =  0.03970   =>   CDf =  0.00643    CDp =  0.03327
 plradd ia,ip,cpol            3           0  0.33026880    

 Point added to stored polar  1
 Point written to save file  sp4721la_Re150k.base.pol                        
 Dump file unspecified or not available
 Calculating wake trajectory ...
 Calculating source influence matrix ...

 Solving BL system ...

 Side 1  free  transition at x/c =  0.7847   64
 Side 2  free  transition at x/c =  0.6542   62

   1   rms: 0.7748E-01   max: -.1920E+00   T at   62  2
       a = -2.000      CL =  0.4407
      Cm = -0.1060     CD =  0.03784   =>   CDf =  0.00647    CDp =  0.03138

 Side 1  free  transition at x/c =  0.7694   64
 Side 2  free  transition at x/c =  0.6576   61

   2   rms: 0.2399E-01   max: -.1561E+00   T at   61  2
       a = -2.000      CL =  0.4139
      Cm = -0.1011     CD =  0.03889   =>   CDf =  0.00660    CDp =  0.03229

 Side 1  free  transition at x/c =  0.7617   63
 Side 2  free  transition at x/c =  0.6601   61
 idif Ue xi dudx           1  0.10987854      2.62594223E-03   41.843472    
 Uenew xinew           2  1.70643944E-02  4.07814980E-04

   3   rms: 0.1199E+00   max: -.1545E+01   T at   61  2   RLX: 0.324
       a = -2.000      CL =  0.3804
      Cm = -0.0960     CD =  0.04060   =>   CDf =  0.00666    CDp =  0.03394

 Side 1  free  transition at x/c =  0.7600   62
 Side 2  free  transition at x/c =  0.6582   62

   4   rms: 0.2720E-01   max: -.4054E+00   D at   62  2
       a = -2.000      CL =  0.3988
      Cm = -0.0989     CD =  0.03949   =>   CDf =  0.00659    CDp =  0.03290

 Side 1  free  transition at x/c =  0.7613   62
 Side 2  free  transition at x/c =  0.6630   62

   5   rms: 0.1650E-01   max: 0.1318E+00   T at   62  2
       a = -2.000      CL =  0.4046
      Cm = -0.0995     CD =  0.03915   =>   CDf =  0.00662    CDp =  0.03253

 Side 1  free  transition at x/c =  0.7617   63
 Side 2  free  transition at x/c =  0.6614   61
 idif Ue xi dudx           1  9.24487561E-02  2.22194195E-03   41.607189    
 Uenew xinew           2  1.58718831E-04  3.81469727E-06

   6   rms: 0.4996E+00   max: -.9059E+01   D at    2  1   RLX: 0.055
       a = -2.000      CL =  0.4055
      Cm = -0.0996     CD =  0.03945   =>   CDf =  0.00662    CDp =  0.03283

 Side 1  free  transition at x/c =  0.7617   62
 Side 2  free  transition at x/c =  0.6612   62

   7   rms: 0.1797E+00   max: 0.3199E+01   D at    2  2   RLX: 0.404
       a = -2.000      CL =  0.4130
      Cm = -0.1008     CD =  0.03897   =>   CDf =  0.00663    CDp =  0.03234

 Side 1  free  transition at x/c =  0.7621   63
 Side 2  free  transition at x/c =  0.6597   61
 idif Ue xi dudx           1  0.10118405      2.44939327E-03   41.309841    
 Uenew xinew           2  9.55356285E-03  2.31266022E-04

   8   rms: 0.4231E-01   max: -.5492E+00   D at    2  1   RLX: 0.910
       a = -2.000      CL =  0.3925
      Cm = -0.0978     CD =  0.03979   =>   CDf =  0.00663    CDp =  0.03316

 Side 1  free  transition at x/c =  0.7610   62
 Side 2  free  transition at x/c =  0.6610   62

   9   rms: 0.2309E-01   max: -.2083E+00   T at   62  2
       a = -2.000      CL =  0.3819
      Cm = -0.0971     CD =  0.04049   =>   CDf =  0.00659    CDp =  0.03390

 Side 1  free  transition at x/c =  0.7601   62
 Side 2  free  transition at x/c =  0.6634   62

  10   rms: 0.1230E+00   max: 0.6155E+00   T at   62  2   RLX: 0.823
       a = -2.000      CL =  0.4414
      Cm = -0.1015     CD =  0.03630   =>   CDf =  0.00660    CDp =  0.02970

 Side 1  free  transition at x/c =  0.7649   63
 Side 2  free  transition at x/c =  0.6457   60

  11   rms: 0.1039E+00   max: 0.7195E+00   T at   61  2   RLX: 0.940
       a = -2.000      CL =  0.4270
      Cm = -0.1038     CD =  0.04454   =>   CDf =  0.00668    CDp =  0.03787

 Side 1  free  transition at x/c =  0.7594   63
 Side 2  free  transition at x/c =  0.6448   60
 idif Ue xi dudx           1  0.11957241      2.84457207E-03   42.035290    
 Uenew xinew           2  2.63327900E-02  6.26444817E-04

  12   rms: 0.6930E-01   max: -.4166E+00   D at   60  2
       a = -2.000      CL =  0.3758
      Cm = -0.1021     CD =  0.04246   =>   CDf =  0.00666    CDp =  0.03580

 Side 1  free  transition at x/c =  0.7577   62
 Side 2  free  transition at x/c =  0.7106   65

  13   rms: 0.9197E+00   max: 0.1402E+02   T at   65  2   RLX: 0.076
       a = -2.000      CL =  0.3572
      Cm = -0.0906     CD =  0.03119   =>   CDf =  0.00661    CDp =  0.02458

 Side 1  free  transition at x/c =  0.7585   62
 Side 2  free  transition at x/c =  0.6795   63

  14   rms: 0.1613E+01   max: -.1481E+02   T at   64  2   RLX: 0.034
       a = -2.000      CL =  0.3758
      Cm = -0.0874     CD =  0.03511   =>   CDf =  0.00655    CDp =  0.02856

 Side 1  free  transition at x/c =  0.7607   62
 Side 2  free  transition at x/c =  0.6633   62

  15   rms: 0.1738E+00   max: -.1131E+01   T at   63  2   RLX: 0.442
       a = -2.000      CL =  0.4455
      Cm = -0.0992     CD =  0.03807   =>   CDf =  0.00660    CDp =  0.03147

 Side 1  free  transition at x/c =  0.7645   63
 Side 2  free  transition at x/c =  0.6467   60

  16   rms: 0.1099E+00   max: 0.1217E+01   T at   63  2   RLX: 0.635
       a = -2.000      CL =  0.4674
      Cm = -0.1063     CD =  0.04187   =>   CDf =  0.00669    CDp =  0.03518

 Side 1  free  transition at x/c =  0.7645   63
 Side 2  free  transition at x/c =  0.6470   60
 idif Ue xi dudx           1  0.10616125      2.52926350E-03   41.973186    
 Uenew xinew           2  1.30593795E-02  3.11136246E-04

  17   rms: 0.3636E+00   max: 0.2319E+01   T at   63  2   RLX: 0.336
       a = -2.000      CL =  0.3873
      Cm = -0.0985     CD =  0.05107   =>   CDf =  0.00673    CDp =  0.04435

 Side 1  free  transition at x/c =  0.7572   62
 Side 2  free  transition at x/c =  0.6437   61

  18   rms: 0.5228E-01   max: -.4909E+00   D at   61  2
       a = -2.000      CL =  0.3737
      Cm = -0.0990     CD =  0.04121   =>   CDf =  0.00660    CDp =  0.03461

 Side 1  free  transition at x/c =  0.7584   62
 Side 2  free  transition at x/c =  0.6909   64

  19   rms: 0.3142E+00   max: 0.2487E+01   D at   64  2   RLX: 0.603
       a = -2.000      CL =  0.3420
      Cm = -0.0924     CD =  0.03725   =>   CDf =  0.00665    CDp =  0.03060

 Side 1  free  transition at x/c =  0.7574   62
 Side 2  free  transition at x/c =  0.6725   63

  20   rms: 0.1300E+00   max: 0.1352E+01   T at   63  2
       a = -2.000      CL =  0.4119
      Cm = -0.0979     CD =  0.03840   =>   CDf =  0.00654    CDp =  0.03186

 Side 1  free  transition at x/c =  0.7624   63
 Side 2  free  transition at x/c =  0.6515   61

  21   rms: 0.3575E-01   max: -.5004E+00   D at   61  2   RLX: 0.999
       a = -2.000      CL =  0.4265
      Cm = -0.1028     CD =  0.03907   =>   CDf =  0.00662    CDp =  0.03245

 Side 1  free  transition at x/c =  0.7626   63
 Side 2  free  transition at x/c =  0.6565   61

  22   rms: 0.1253E-01   max: -.1821E+00   T at   61  2
       a = -2.000      CL =  0.4146
      Cm = -0.1011     CD =  0.03880   =>   CDf =  0.00664    CDp =  0.03216

 Side 1  free  transition at x/c =  0.7622   63
 Side 2  free  transition at x/c =  0.6596   61
 idif Ue xi dudx           1  0.10306500      2.46608257E-03   41.793003    
 Uenew xinew           2  1.03627974E-02  2.47955322E-04

  23   rms: 0.2780E-01   max: -.3632E+00   T at   61  2
       a = -2.000      CL =  0.3900
      Cm = -0.0974     CD =  0.03987   =>   CDf =  0.00663    CDp =  0.03324

 Side 1  free  transition at x/c =  0.7609   62
 Side 2  free  transition at x/c =  0.6606   62

  24   rms: 0.1495E-01   max: -.2280E+00   D at   62  2
       a = -2.000      CL =  0.3887
      Cm = -0.0979     CD =  0.04007   =>   CDf =  0.00659    CDp =  0.03349

 Side 1  free  transition at x/c =  0.7605   62
 Side 2  free  transition at x/c =  0.6629   62

  25   rms: 0.1677E+00   max: 0.1019E+01   T at   62  2   RLX: 0.634
       a = -2.000      CL =  0.4569
      Cm = -0.1039     CD =  0.03583   =>   CDf =  0.00661    CDp =  0.02922

 Side 1  free  transition at x/c =  0.7655   63
 Side 2  free  transition at x/c =  0.6442   60

  26   rms: 0.8755E-01   max: -.5243E+00   D at   62  2   RLX: 0.954
       a = -2.000      CL =  0.4554
      Cm = -0.1075     CD =  0.04273   =>   CDf =  0.00674    CDp =  0.03599

 Side 1  free  transition at x/c =  0.7610   63
 Side 2  free  transition at x/c =  0.6458   60
 idif Ue xi dudx           1  0.16141175      3.80575657E-03   42.412525    
 Uenew xinew           2  6.73353672E-02  1.58762932E-03

  27   rms: 0.1981E+00   max: -.6895E+00   T at   60  2   RLX: 0.725
       a = -2.000      CL =  0.3159
      Cm = -0.0909     CD =  0.04680   =>   CDf =  0.00669    CDp =  0.04011

 Side 1  free  transition at x/c =  0.7547   62
 Side 2  free  transition at x/c =  0.6449   61

[...]
 Calculating wake trajectory ...
 Calculating source influence matrix ...

 Solving BL system ...

 Side 1  free  transition at x/c =  0.2537   51
 Side 2  free  transition at x/c =  0.7001   46

   1   rms: 0.4307E-01   max: 0.3520E+00   C at   51  1   RLX: 0.518
       a = 13.250      CL =  1.5386
      Cm = -0.0982     CD =  0.05380   =>   CDf =  0.00638    CDp =  0.04742

 Side 1  free  transition at x/c =  0.2469   50
 Side 2  free  transition at x/c =  0.7010   46

   2   rms: 0.1858E-01   max: 0.7628E-01   C at   50  1
       a = 13.250      CL =  1.5369
      Cm = -0.0976     CD =  0.05525   =>   CDf =  0.00642    CDp =  0.04882

 Side 1  free  transition at x/c =  0.2378   50
 Side 2  free  transition at x/c =  0.7020   46

   3   rms: 0.4172E-02   max: -.5132E-01   C at   50  1
       a = 13.250      CL =  1.5348
      Cm = -0.0974     CD =  0.05517   =>   CDf =  0.00651    CDp =  0.04866

 Side 1  free  transition at x/c =  0.2393   50
 Side 2  free  transition at x/c =  0.7020   46

   4   rms: 0.3959E-03   max: -.2211E-02   D at   77  1
       a = 13.250      CL =  1.5350
      Cm = -0.0974     CD =  0.05514   =>   CDf =  0.00645    CDp =  0.04869

 Side 1  free  transition at x/c =  0.2392   50
 Side 2  free  transition at x/c =  0.7020   46

   5   rms: 0.2680E-04   max: -.1789E-03   D at   79  2
       a = 13.250      CL =  1.5350
      Cm = -0.0974     CD =  0.05514   =>   CDf =  0.00645    CDp =  0.04869
 plradd ia,ip,cpol           40           0  1.27141946E-03

 Point added to stored polar  1
 Point written to save file  sp4721la_Re150k.base.pol                        
 Dump file unspecified or not available
 Calculating wake trajectory ...
 Calculating source influence matrix ...

 Solving BL system ...

 Side 1  free  transition at x/c =  0.2392   50
 Side 2  free  transition at x/c =  0.7020   46

   1   rms: 0.3829E-01   max: 0.2760E+00   C at   50  1   RLX: 0.500
       a = 13.500      CL =  1.5315
      Cm = -0.0967     CD =  0.05690   =>   CDf =  0.00646    CDp =  0.05044

 Side 1  free  transition at x/c =  0.2335   49
 Side 2  free  transition at x/c =  0.7030   46

   2   rms: 0.1721E-01   max: 0.7525E-01   T at   49  1
       a = 13.500      CL =  1.5313
      Cm = -0.0962     CD =  0.05833   =>   CDf =  0.00654    CDp =  0.05179

 Side 1  free  transition at x/c =  0.2259   49
 Side 2  free  transition at x/c =  0.7042   46

   3   rms: 0.3355E-02   max: -.3890E-01   C at   49  1
       a = 13.500      CL =  1.5292
      Cm = -0.0960     CD =  0.05825   =>   CDf =  0.00653    CDp =  0.05172

 Side 1  free  transition at x/c =  0.2272   49
 Side 2  free  transition at x/c =  0.7041   46

   4   rms: 0.2783E-03   max: -.1518E-02   D at   76  1
       a = 13.500      CL =  1.5294
      Cm = -0.0960     CD =  0.05823   =>   CDf =  0.00650    CDp =  0.05174

 Side 1  free  transition at x/c =  0.2271   49
 Side 2  free  transition at x/c =  0.7041   46

   5   rms: 0.2129E-04   max: -.1317E-03   D at   79  2
       a = 13.500      CL =  1.5294
      Cm = -0.0960     CD =  0.05823   =>   CDf =  0.00650    CDp =  0.05174
 plradd ia,ip,cpol           41           0  1.27141946E-03

 Point added to stored polar  1
 Point written to save file  sp4721la_Re150k.base.pol                        
 Dump file unspecified or not available
 Calculating wake trajectory ...
 Calculating source influence matrix ...

 Solving BL system ...

 Side 1  free  transition at x/c =  0.2271   49
 Side 2  free  transition at x/c =  0.7041   46

   1   rms: 0.3487E-01   max: 0.1952E+00   C at   49  1   RLX: 0.485
       a = 13.750      CL =  1.5281
      Cm = -0.0956     CD =  0.05985   =>   CDf =  0.00650    CDp =  0.05335

 Side 1  free  transition at x/c =  0.2213   49
 Side 2  free  transition at x/c =  0.7052   46

   2   rms: 0.1712E-01   max: -.9319E-01   D at   49  1
       a = 13.750      CL =  1.5260
      Cm = -0.0948     CD =  0.06131   =>   CDf =  0.00659    CDp =  0.05472

 Side 1  free  transition at x/c =  0.2172   48
 Side 2  free  transition at x/c =  0.7063   46

   3   rms: 0.2518E-02   max: -.2896E-01   C at   48  1
       a = 13.750      CL =  1.5258
      Cm = -0.0949     CD =  0.06121   =>   CDf =  0.00661    CDp =  0.05460

 Side 1  free  transition at x/c =  0.2167   48
 Side 2  free  transition at x/c =  0.7064   46

   4   rms: 0.8885E-04   max: -.6076E-03   D at   75  1
       a = 13.750      CL =  1.5258
      Cm = -0.0949     CD =  0.06118   =>   CDf =  0.00658    CDp =  0.05460
 plradd ia,ip,cpol           42           0  1.27141946E-03

 Point added to stored polar  1
 Point written to save file  sp4721la_Re150k.base.pol                        
 Dump file unspecified or not available
 Calculating wake trajectory ...
 Calculating source influence matrix ...

 Solving BL system ...

 Side 1  free  transition at x/c =  0.2167   48
 Side 2  free  transition at x/c =  0.7064   46

   1   rms: 0.3274E-01   max: 0.1592E+00   T at   48  1   RLX: 0.471
       a = 14.000      CL =  1.5262
      Cm = -0.0947     CD =  0.06272   =>   CDf =  0.00659    CDp =  0.05613

 Side 1  free  transition at x/c =  0.2109   48
 Side 2  free  transition at x/c =  0.7075   46

   2   rms: 0.1689E-01   max: 0.6063E-01   D at   71  1
       a = 14.000      CL =  1.5246
      Cm = -0.0942     CD =  0.06436   =>   CDf =  0.00658    CDp =  0.05778

 Side 1  free  transition at x/c =  0.2062   48
 Side 2  free  transition at x/c =  0.7088   46

   3   rms: 0.2222E-02   max: -.1808E-01   C at   48  1
       a = 14.000      CL =  1.5233
      Cm = -0.0941     CD =  0.06418   =>   CDf =  0.00662    CDp =  0.05756

 Side 1  free  transition at x/c =  0.2067   48
 Side 2  free  transition at x/c =  0.7088   46

   4   rms: 0.2563E-03   max: -.1308E-02   D at   74  1
       a = 14.000      CL =  1.5235
      Cm = -0.0941     CD =  0.06416   =>   CDf =  0.00660    CDp =  0.05757

 Side 1  free  transition at x/c =  0.2066   48
 Side 2  free  transition at x/c =  0.7088   46

   5   rms: 0.2054E-04   max: -.1381E-03   D at   80  2
       a = 14.000      CL =  1.5235
      Cm = -0.0941     CD =  0.06417   =>   CDf =  0.00660    CDp =  0.05757
 plradd ia,ip,cpol           43           0  1.27141946E-03

 Point added to stored polar  1
 Point written to save file  sp4721la_Re150k.base.pol                        
 Dump file unspecified or not available
 Calculating wake trajectory ...
 Calculating source influence matrix ...

 Solving BL system ...

 Side 1  free  transition at x/c =  0.2066   48
 Side 2  free  transition at x/c =  0.7088   46

   1   rms: 0.3332E-01   max: -.1564E+00   D at   49  1   RLX: 0.457
       a = 14.250      CL =  1.5239
      Cm = -0.0937     CD =  0.06552   =>   CDf =  0.00661    CDp =  0.05892

 Side 1  free  transition at x/c =  0.2028   47
 Side 2  free  transition at x/c =  0.7099   46

   2   rms: 0.1809E-01   max: 0.9236E-01   T at   47  1
       a = 14.250      CL =  1.5247
      Cm = -0.0936     CD =  0.06723   =>   CDf =  0.00670    CDp =  0.06054

 Side 1  free  transition at x/c =  0.1971   47
 Side 2  free  transition at x/c =  0.7114   46

   3   rms: 0.2318E-02   max: -.1930E-01   C at   47  1
       a = 14.250      CL =  1.5235
      Cm = -0.0934     CD =  0.06698   =>   CDf =  0.00662    CDp =  0.06036

 Side 1  free  transition at x/c =  0.1977   47
 Side 2  free  transition at x/c =  0.7114   46

   4   rms: 0.2865E-03   max: -.1238E-02   D at   73  1
       a = 14.250      CL =  1.5237
      Cm = -0.0935     CD =  0.06697   =>   CDf =  0.00660    CDp =  0.06037

 Side 1  free  transition at x/c =  0.1977   47
 Side 2  free  transition at x/c =  0.7114   46

   5   rms: 0.2094E-04   max: -.1439E-03   D at   80  2
       a = 14.250      CL =  1.5237
      Cm = -0.0935     CD =  0.06698   =>   CDf =  0.00660    CDp =  0.06038
 plradd ia,ip,cpol           44           0  1.27141946E-03

 Point added to stored polar  1
 Point written to save file  sp4721la_Re150k.base.pol                        
 Dump file unspecified or not available
 Calculating wake trajectory ...
 Calculating source influence matrix ...

 Solving BL system ...

 Side 1  free  transition at x/c =  0.1977   47
 Side 2  free  transition at x/c =  0.7114   46

   1   rms: 0.3138E-01   max: 0.1574E+00   T at   47  1   RLX: 0.446
       a = 14.500      CL =  1.5247
      Cm = -0.0934     CD =  0.06843   =>   CDf =  0.00607    CDp =  0.06237

 Side 1  free  transition at x/c =  0.1935   48
 Side 2  free  transition at x/c =  0.7126   45

   2   rms: 0.5499E+00   max: 0.9777E+01   T at    2  1   RLX: 0.124
       a = 14.500      CL =  1.5245
      Cm = -0.0933     CD =  0.06838   =>   CDf =  0.00660    CDp =  0.06178

 Side 1  free  transition at x/c =  0.1930   48
 Side 2  free  transition at x/c =  0.7128   45

   3   rms: 0.1605E-01   max: 0.7800E-01   D at    4  1
       a = 14.500      CL =  1.5254
      Cm = -0.0931     CD =  0.06993   =>   CDf =  0.00661    CDp =  0.06333

 Side 1  free  transition at x/c =  0.1895   48
 Side 2  free  transition at x/c =  0.7142   46

   4   rms: 0.2947E-02   max: -.5106E-01   D at   45  2
       a = 14.500      CL =  1.5247
      Cm = -0.0929     CD =  0.06966   =>   CDf =  0.00666    CDp =  0.06300

 Side 1  free  transition at x/c =  0.1897   48
 Side 2  free  transition at x/c =  0.7140   46

   5   rms: 0.3228E-03   max: 0.2707E-02   D at   47  2
       a = 14.500      CL =  1.5249
      Cm = -0.0929     CD =  0.06966   =>   CDf =  0.00665    CDp =  0.06301

 Side 1  free  transition at x/c =  0.1897   48
 Side 2  free  transition at x/c =  0.7140   46

   6   rms: 0.1393E-04   max: -.9221E-04   D at   79  2
       a = 14.500      CL =  1.5249
      Cm = -0.0929     CD =  0.06966   =>   CDf =  0.00665    CDp =  0.06302
 plradd ia,ip,cpol           45           0  1.27141946E-03

 Point added to stored polar  1
 Point written to save file  sp4721la_Re150k.base.pol                        
 Dump file unspecified or not available
 Calculating wake trajectory ...
 Calculating source influence matrix ...

 Solving BL system ...

 Side 1  free  transition at x/c =  0.1897   48
 Side 2  free  transition at x/c =  0.7140   46

   1   rms: 0.3158E-01   max: -.1400E+00   D at   49  1   RLX: 0.436
       a = 14.750      CL =  1.5272
      Cm = -0.0925     CD =  0.07062   =>   CDf =  0.00665    CDp =  0.06397

 Side 1  free  transition at x/c =  0.1869   47
 Side 2  free  transition at x/c =  0.7151   46

   2   rms: 0.1827E-01   max: 0.8995E-01   T at   47  1
       a = 14.750      CL =  1.5280
      Cm = -0.0924     CD =  0.07248   =>   CDf =  0.00670    CDp =  0.06578

 Side 1  free  transition at x/c =  0.1823   47
 Side 2  free  transition at x/c =  0.7165   46

   3   rms: 0.1913E-02   max: -.1016E-01   C at   47  1
       a = 14.750      CL =  1.5270
      Cm = -0.0922     CD =  0.07215   =>   CDf =  0.00658    CDp =  0.06557

 Side 1  free  transition at x/c =  0.1827   47
 Side 2  free  transition at x/c =  0.7165   46

   4   rms: 0.2553E-03   max: -.9900E-03   D at   73  1
       a = 14.750      CL =  1.5272
      Cm = -0.0922     CD =  0.07215   =>   CDf =  0.00657    CDp =  0.06558

 Side 1  free  transition at x/c =  0.1826   47
 Side 2  free  transition at x/c =  0.7165   46

   5   rms: 0.1873E-04   max: -.1274E-03   D at   80  2
       a = 14.750      CL =  1.5272
      Cm = -0.0922     CD =  0.07216   =>   CDf =  0.00657    CDp =  0.06558
 plradd ia,ip,cpol           46           0  1.27141946E-03

 Point added to stored polar  1
 Point written to save file  sp4721la_Re150k.base.pol                        
 Dump file unspecified or not available
 Calculating wake trajectory ...
 Calculating source influence matrix ...

 Solving BL system ...

 Side 1  free  transition at x/c =  0.1826   47
 Side 2  free  transition at x/c =  0.7165   46

   1   rms: 0.2946E-01   max: 0.1444E+00   T at   47  1   RLX: 0.425
       a = 15.000      CL =  1.5286
      Cm = -0.0921     CD =  0.07346   =>   CDf =  0.00658    CDp =  0.06689

 Side 1  free  transition at x/c =  0.1795   47
 Side 2  free  transition at x/c =  0.7177   46

   2   rms: 0.1646E-01   max: 0.8191E-01   T at   47  1
       a = 15.000      CL =  1.5302
      Cm = -0.0919     CD =  0.07498   =>   CDf =  0.00654    CDp =  0.06844

 Side 1  free  transition at x/c =  0.1758   47
 Side 2  free  transition at x/c =  0.7193   46

   3   rms: 0.1929E-02   max: -.1506E-01   D at   47  1
       a = 15.000      CL =  1.5292
      Cm = -0.0917     CD =  0.07472   =>   CDf =  0.00654    CDp =  0.06818

 Side 1  free  transition at x/c =  0.1761   47
 Side 2  free  transition at x/c =  0.7193   46

   4   rms: 0.2582E-03   max: -.1110E-02   D at   72  1
       a = 15.000      CL =  1.5294
      Cm = -0.0917     CD =  0.07471   =>   CDf =  0.00653    CDp =  0.06818

 Side 1  free  transition at x/c =  0.1761   47
 Side 2  free  transition at x/c =  0.7193   46

   5   rms: 0.2407E-04   max: -.1582E-03   D at   80  2
       a = 15.000      CL =  1.5294
      Cm = -0.0917     CD =  0.07471   =>   CDf =  0.00653    CDp =  0.06819
 plradd ia,ip,cpol           47           0  1.27141946E-03

 Point added to stored polar  1
 Point written to save file  sp4721la_Re150k.base.pol                        
 Dump file unspecified or not available
 Calculating wake trajectory ...
 Calculating source influence matrix ...

 Solving BL system ...

 Side 1  free  transition at x/c =  0.1761   47
 Side 2  free  transition at x/c =  0.7193   46

   1   rms: 0.2947E-01   max: 0.1600E+00   T at   47  1   RLX: 0.417
       a = 15.250      CL =  1.5319
      Cm = -0.0915     CD =  0.07574   =>   CDf =  0.00653    CDp =  0.06921

 Side 1  free  transition at x/c =  0.1735   47
 Side 2  free  transition at x/c =  0.7207   46

   2   rms: 0.1803E-01   max: 0.1012E+00   T at   47  1
       a = 15.250      CL =  1.5379
      Cm = -0.0909     CD =  0.07643   =>   CDf =  0.00659    CDp =  0.06984

 Side 1  free  transition at x/c =  0.1703   46
 Side 2  free  transition at x/c =  0.7227   46

   3   rms: 0.6084E-02   max: -.3765E-01   C at   46  1
       a = 15.250      CL =  1.5348
      Cm = -0.0912     CD =  0.07697   =>   CDf =  0.00661    CDp =  0.07036

 Side 1  free  transition at x/c =  0.1701   46
 Side 2  free  transition at x/c =  0.7226   46

   4   rms: 0.2853E-03   max: 0.2462E-02   D at   80  2
       a = 15.250      CL =  1.5348
      Cm = -0.0911     CD =  0.07683   =>   CDf =  0.00656    CDp =  0.07027

 Side 1  free  transition at x/c =  0.1701   46
 Side 2  free  transition at x/c =  0.7226   46

   5   rms: 0.8857E-05   max: -.5611E-04   D at   82  2
       a = 15.250      CL =  1.5348
      Cm = -0.0911     CD =  0.07683   =>   CDf =  0.00656    CDp =  0.07027
 plradd ia,ip,cpol           48           0  1.27141946E-03

 Point added to stored polar  1
 Point written to save file  sp4721la_Re150k.base.pol                        
 Dump file unspecified or not available
 Calculating wake trajectory ...
 Calculating source influence matrix ...

 Solving BL system ...

 Side 1  free  transition at x/c =  0.1701   46
 Side 2  free  transition at x/c =  0.7226   46

   1   rms: 0.2929E-01   max: 0.1422E+00   T at   46  1   RLX: 0.408
       a = 15.500      CL =  1.5361
      Cm = -0.0912     CD =  0.07821   =>   CDf =  0.00657    CDp =  0.07164

 Side 1  free  transition at x/c =  0.1674   46
 Side 2  free  transition at x/c =  0.7239   46

   2   rms: 0.1669E-01   max: 0.7923E-01   T at   46  1
       a = 15.500      CL =  1.5380
      Cm = -0.0911     CD =  0.07989   =>   CDf =  0.00650    CDp =  0.07339

 Side 1  free  transition at x/c =  0.1638   46
 Side 2  free  transition at x/c =  0.7259   46

   3   rms: 0.2194E-02   max: -.1795E-01   D at   46  1
       a = 15.500      CL =  1.5367
      Cm = -0.0910     CD =  0.07966   =>   CDf =  0.00645    CDp =  0.07320

 Side 1  free  transition at x/c =  0.1641   46
 Side 2  free  transition at x/c =  0.7259   46

   4   rms: 0.2806E-03   max: -.1305E-02   D at   71  1
       a = 15.500      CL =  1.5369
      Cm = -0.0910     CD =  0.07963   =>   CDf =  0.00644    CDp =  0.07319

 Side 1  free  transition at x/c =  0.1641   46
 Side 2  free  transition at x/c =  0.7259   46

   5   rms: 0.2511E-04   max: -.1659E-03   D at   80  2
       a = 15.500      CL =  1.5369
      Cm = -0.0910     CD =  0.07964   =>   CDf =  0.00644    CDp =  0.07320
 plradd ia,ip,cpol           49           0  1.27141946E-03

 Point added to stored polar  1
 Point written to save file  sp4721la_Re150k.base.pol                        
 Dump file unspecified or not available
 Calculating wake trajectory ...
 Calculating source influence matrix ...

 Solving BL system ...

 Side 1  free  transition at x/c =  0.1641   46
 Side 2  free  transition at x/c =  0.7259   46

   1   rms: 0.2865E-01   max: 0.1527E+00   T at   46  1   RLX: 0.399
       a = 15.750      CL =  1.5388
      Cm = -0.0911     CD =  0.08085   =>   CDf =  0.00645    CDp =  0.07441

 Side 1  free  transition at x/c =  0.1617   46
 Side 2  free  transition at x/c =  0.7272   46

   2   rms: 0.1703E-01   max: 0.8960E-01   T at   46  1
       a = 15.750      CL =  1.5415
      Cm = -0.0910     CD =  0.08243   =>   CDf =  0.00644    CDp =  0.07598

 Side 1  free  transition at x/c =  0.1586   46
 Side 2  free  transition at x/c =  0.7292   46

   3   rms: 0.2494E-02   max: -.1651E-01   D at   71  1
       a = 15.750      CL =  1.5416
      Cm = -0.0908     CD =  0.08194   =>   CDf =  0.00649    CDp =  0.07544

 Side 1  free  transition at x/c =  0.1586   46
 Side 2  free  transition at x/c =  0.7293   46

   4   rms: 0.4203E-03   max: -.1796E-02   D at   80  2
       a = 15.750      CL =  1.5420
      Cm = -0.0908     CD =  0.08196   =>   CDf =  0.00649    CDp =  0.07547

 Side 1  free  transition at x/c =  0.1586   46
 Side 2  free  transition at x/c =  0.7293   46

   5   rms: 0.3514E-04   max: -.2180E-03   D at   80  2
       a = 15.750      CL =  1.5420
      Cm = -0.0908     CD =  0.08197   =>   CDf =  0.00650    CDp =  0.07547
 plradd ia,ip,cpol           50           0  1.27141946E-03

 Point added to stored polar  1
 Point written to save file  sp4721la_Re150k.base.pol                        
 Dump file unspecified or not available
 Calculating wake trajectory ...
 Calculating source influence matrix ...

 Solving BL system ...

 Side 1  free  transition at x/c =  0.1586   46
 Side 2  free  transition at x/c =  0.7293   46

   1   rms: 0.3170E-01   max: 0.1803E+00   T at   46  1   RLX: 0.394
       a = 16.000      CL =  1.5467
      Cm = -0.0906     CD =  0.08259   =>   CDf =  0.00650    CDp =  0.07609

 Side 1  free  transition at x/c =  0.1565   45
 Side 2  free  transition at x/c =  0.7307   47

   2   rms: 0.1952E-01   max: 0.9397E-01   T at   45  1
       a = 16.000      CL =  1.5471
      Cm = -0.0908     CD =  0.08480   =>   CDf =  0.00658    CDp =  0.07822

 Side 1  free  transition at x/c =  0.1534   45
 Side 2  free  transition at x/c =  0.7321   47

   3   rms: 0.1811E-02   max: -.1131E-01   D at   71  1
       a = 16.000      CL =  1.5466
      Cm = -0.0905     CD =  0.08427   =>   CDf =  0.00641    CDp =  0.07786

 Side 1  free  transition at x/c =  0.1535   45
 Side 2  free  transition at x/c =  0.7321   47

   4   rms: 0.2365E-03   max: -.1142E-02   D at   80  2
       a = 16.000      CL =  1.5468
      Cm = -0.0905     CD =  0.08429   =>   CDf =  0.00642    CDp =  0.07788

 Side 1  free  transition at x/c =  0.1535   45
 Side 2  free  transition at x/c =  0.7321   47

   5   rms: 0.1401E-04   max: -.1025E-03   D at   80  2
       a = 16.000      CL =  1.5469
      Cm = -0.0905     CD =  0.08430   =>   CDf =  0.00642    CDp =  0.07788
 plradd ia,ip,cpol           51           0  1.27141946E-03

 Point added to stored polar  1
 Point written to save file  sp4721la_Re150k.base.pol                        
 Dump file unspecified or not available

.OPERva   c>  
 Polar accumulation disabled

.OPERv   c>  
 XFOIL   c>  
 XFOIL   c>  