  
       XFOIL         Version 6.99
  
 Calculated polar for: Supermarine 371-II (tip)                        
  
 1 1 Reynolds number fixed          Mach number fixed         
  
 xtrf =   1.000 (top)        1.000 (bottom)  
 Mach =   0.000     Re =     0.200 e 6     Ncrit =   9.000
  
   alpha    CL        CD       CDp       CM     Top_Xtr  Bot_Xtr
  ------ -------- --------- --------- -------- -------- --------
  -4.000  -0.2714   0.01926   0.01161  -0.0420   0.9541   0.0351
  -3.500  -0.2165   0.01565   0.00783  -0.0415   0.9452   0.0393
  -3.000  -0.1645   0.01399   0.00598  -0.0410   0.9369   0.0495
  -2.500  -0.1441   0.01028   0.00480  -0.0353   0.9259   0.6840
  -2.000  -0.1157   0.01104   0.00596  -0.0258   0.9175   0.8681
  -1.500  -0.0464   0.01209   0.00681  -0.0242   0.9158   0.9304
  -1.000   0.0192   0.01215   0.00668  -0.0271   0.9100   0.9419
  -0.500   0.0914   0.01213   0.00652  -0.0316   0.9055   0.9475
   0.000   0.1551   0.01213   0.00646  -0.0342   0.9009   0.9554
   0.500   0.2239   0.01225   0.00662  -0.0385   0.8954   0.9625
   1.000   0.2922   0.01234   0.00679  -0.0423   0.8907   0.9700
   1.500   0.3605   0.01249   0.00716  -0.0462   0.8864   0.9785
   2.000   0.4269   0.01233   0.00723  -0.0486   0.8739   0.9868
   2.500   0.4713   0.01016   0.00499  -0.0408   0.7947   0.9976
   3.000   0.4941   0.00970   0.00364  -0.0320   0.5011   1.0000
   3.500   0.4974   0.01366   0.00548  -0.0243   0.0552   1.0000
   4.000   0.5201   0.01528   0.00715  -0.0186   0.0407   1.0000
   4.500   0.5529   0.01776   0.00969  -0.0142   0.0299   1.0000
   5.000   0.6026   0.02197   0.01433  -0.0116   0.0289   1.0000
   5.500   0.6553   0.02864   0.02185  -0.0079   0.0407   1.0000
