  
       XFOIL         Version 6.99
  
 Calculated polar for: TsAGI R-3a (12%)                                
  
 1 1 Reynolds number fixed          Mach number fixed         
  
 xtrf =   1.000 (top)        1.000 (bottom)  
 Mach =   0.000     Re =     0.600 e 6     Ncrit =   9.000
  
   alpha    CL        CD       CDp       CM     Top_Xtr  Bot_Xtr
  ------ -------- --------- --------- -------- -------- --------
-4.000  -0.1918   0.01266   0.00492  -0.0266   0.4586   0.0221
-3.500  -0.1360   0.01211   0.00433  -0.0261   0.4480   0.0240
-3.000  -0.0800   0.01167   0.00379  -0.0257   0.4384   0.0269
-2.500  -0.0234   0.01122   0.00333  -0.0253   0.4303   0.0326
-2.000   0.0327   0.01083   0.00290  -0.0249   0.4218   0.0499
-1.500   0.0894   0.01042   0.00266  -0.0247   0.4145   0.0830
-1.000   0.1454   0.01008   0.00253  -0.0245   0.4051   0.1610
-0.500   0.1999   0.00920   0.00239  -0.0243   0.3969   0.3822
0.000   0.2476   0.00800   0.00242  -0.0225   0.3872   0.7688
0.500   0.3015   0.00763   0.00249  -0.0207   0.3764   0.9487
1.000   0.3850   0.00773   0.00245  -0.0258   0.3594   0.9892
1.500   0.4520   0.00786   0.00238  -0.0279   0.3362   0.9955
2.500   0.5570   0.00841   0.00252  -0.0262   0.2838   0.9955
3.000   0.6099   0.00878   0.00275  -0.0254   0.2709   0.9955
3.500   0.6630   0.00920   0.00303  -0.0248   0.2609   0.9955
4.000   0.7172   0.00950   0.00331  -0.0243   0.2538   0.9955
4.500   0.7711   0.00988   0.00363  -0.0238   0.2477   0.9955
5.000   0.8247   0.01032   0.00402  -0.0233   0.2418   0.9955
5.500   0.8793   0.01063   0.00435  -0.0230   0.2373   0.9955
6.000   0.9331   0.01102   0.00473  -0.0226   0.2323   0.9955
6.500   0.9860   0.01155   0.00523  -0.0222   0.2267   0.9955
7.000   1.0401   0.01185   0.00560  -0.0219   0.2219   0.9955
7.500   1.0931   0.01229   0.00604  -0.0215   0.2164   0.9955
8.000   1.1452   0.01282   0.00661  -0.0211   0.2107   0.9955
8.500   1.1984   0.01315   0.00702  -0.0208   0.2045   0.9955
9.000   1.2495   0.01367   0.00755  -0.0203   0.1963   0.9955
9.500   1.3020   0.01401   0.00796  -0.0200   0.1879   0.9955
10.000   1.3531   0.01446   0.00846  -0.0195   0.1769   0.9955
10.250   1.3775   0.01479   0.00876  -0.0192   0.1709   0.9955
10.500   1.4026   0.01505   0.00907  -0.0190   0.1655   0.9955
10.750   1.4264   0.01542   0.00942  -0.0186   0.1595   0.9955
11.000   1.4500   0.01579   0.00983  -0.0182   0.1540   0.9955
11.250   1.4725   0.01624   0.01027  -0.0177   0.1483   0.9955
11.500   1.4946   0.01672   0.01076  -0.0171   0.1432   0.9955
11.750   1.5162   0.01721   0.01127  -0.0166   0.1383   0.9955
12.000   1.5360   0.01783   0.01189  -0.0158   0.1341   0.9955
12.250   1.5571   0.01830   0.01243  -0.0152   0.1311   0.9955
12.500   1.5774   0.01882   0.01301  -0.0144   0.1279   0.9955
12.750   1.5954   0.01948   0.01368  -0.0135   0.1246   0.9955
13.000   1.6117   0.02022   0.01445  -0.0124   0.1212   0.9955
13.250   1.6311   0.02070   0.01503  -0.0116   0.1185   0.9955
13.500   1.6472   0.02137   0.01574  -0.0105   0.1150   0.9955
13.750   1.6577   0.02223   0.01663  -0.0087   0.1118   0.9955
14.000   1.6687   0.02302   0.01749  -0.0070   0.1090   0.9955
14.250   1.6804   0.02383   0.01839  -0.0056   0.1060   0.9955
14.500   1.6878   0.02500   0.01961  -0.0043   0.1028   0.9955
14.750   1.6906   0.02668   0.02134  -0.0031   0.0997   0.9955
15.000   1.7003   0.02800   0.02276  -0.0027   0.0966   0.9955
15.250   1.7030   0.03013   0.02497  -0.0026   0.0927   0.9955
15.500   1.7008   0.03312   0.02803  -0.0033   0.0895   0.9955
15.750   1.7018   0.03600   0.03101  -0.0042   0.0855   0.9955
16.000   1.6928   0.04034   0.03544  -0.0060   0.0815   0.9955
