
 ===================================================
  XFOIL Version 6.99
  Copyright (C) 2000   Mark Drela, Harold Youngren

  This software comes with ABSOLUTELY NO WARRANTY,
    subject to the GNU General Public License.

  Caveat computor
 ===================================================

 File  xfoil.def  not found

   QUIT    Exit program

  .OPER    Direct operating point(s)
  .MDES    Complex mapping design routine
  .QDES    Surface speed design routine
  .GDES    Geometry design routine

   SAVE f  Write airfoil to labeled coordinate file
   PSAV f  Write airfoil to plain coordinate file
   ISAV f  Write airfoil to ISES coordinate file
   MSAV f  Write airfoil to MSES coordinate file
   REVE    Reverse written-airfoil node ordering

   LOAD f  Read buffer airfoil from coordinate file
   NACA i  Set NACA 4,5-digit airfoil and buffer airfoil
   INTE    Set buffer airfoil by interpolating two airfoils
   NORM    Buffer airfoil normalization toggle
   XYCM rr Change CM reference location, currently  0.25000 0.00000

   BEND    Display structural properties of current airfoil

   PCOP    Set current-airfoil panel nodes directly from buffer airfoil points
   PANE    Set current-airfoil panel nodes ( 160 ) based on curvature
  .PPAR    Show/change paneling

  .PLOP    Plotting options

   WDEF f  Write  current-settings file
   RDEF f  Reread current-settings file
   NAME s  Specify new airfoil name
   NINC    Increment name version number

   Z       Zoom    | (available in all menus)
   U       Unzoom  | 

 XFOIL   c>  
 Labeled airfoil file.  Name:  TsAGI 12% AIRFOIL                               

 Number of input coordinate points:  33
 Counterclockwise ordering
 Max thickness =     0.119001  at x =   0.300
 Max camber    =     0.019338  at x =   0.300

  LE  x,y  =  -0.00005   0.00080  |   Chord =   1.00005
  TE  x,y  =   1.00000   0.00000  |

 Current airfoil nodes set from buffer airfoil nodes (  33 )

 WARNING: Poor input coordinate distribution
          Excessive panel angle   81.4  at i =  17
          Repaneling with PANE and/or PPAR suggested
           (doing GDES,CADD before repaneling _may_
            improve excessively coarse LE spacing

 XFOIL   c>  
 XFOIL   c>  
 Sharp trailing edge

 Paneling parameters used...
   Number of panel nodes       160
   Panel bunching parameter    1.000
   TE/LE panel density ratio   0.150
   Refined-area/LE panel density ratio    0.200
   Top    side refined area x/c limits  1.000 1.000
   Bottom side refined area x/c limits  1.000 1.000

 XFOIL   c>  
.OPERi   c>  
 Xtr/c     =  1.0000    top    side
 Xtr/c     =  1.0000    bottom side
 Ncrit     =    9.00   ( 0.070 % turb. level )
 Vacc      =  0.0100

 Klag  =  5.6000     Uxwt  =    1.00
 A     =  6.7000     B     =  0.7500       KCt = 0.01485
 CtiniK=  1.8000     CtiniX=  3.3000

..VPAR   c>  
..VPAR   c>  
.OPERi   c>  
 M  =    0.0000
 Re =    500000

.OPERv   c>  
.OPERv   c>  
.OPERv   c>  
 Polar  1 newly created for accumulation
 Airfoil archived with polar: TsAGI 12% AIRFOIL                               

Enter  polar save filename  OR  <return> for no file   s>  
 New polar save file available

Enter  polar dump filename  OR  <return> for no file   s>  
 Polar dump file will NOT be written

 Polar accumulation enabled

.OPERva   c>   Calculating unit vorticity distributions ...
 Calculating wake trajectory ...
 Calculating source influence matrix ...

 Solving BL system ...

 Initializing BL ...
    side            1  ...
 MRCHUE: Inverse mode at  45     Hk =   4.221
 MRCHUE: Inverse mode at  46     Hk =   4.852
 MRCHUE: Inverse mode at  47     Hk =   5.472
 MRCHUE: Inverse mode at  48     Hk =   6.081
 MRCHUE: Inverse mode at  49     Hk =   6.682
 MRCHUE: Inverse mode at  50     Hk =   7.275
 MRCHUE: Inverse mode at  51     Hk =   7.862
 MRCHUE: Inverse mode at  52     Hk =   8.444
 MRCHUE: Inverse mode at  53     Hk =   8.013
 MRCHUE: Inverse mode at  54     Hk =   5.545
 MRCHUE: Inverse mode at  55     Hk =   4.026
 MRCHUE: Inverse mode at  56     Hk =   2.934
    side            2  ...
 MRCHUE: Inverse mode at  20     Hk =   4.899
 MRCHUE: Inverse mode at  21     Hk =   6.540
 MRCHUE: Inverse mode at  22     Hk =   8.200
 MRCHUE: Inverse mode at  23     Hk =   9.884
 MRCHUE: Inverse mode at  24     Hk =   2.822
 MRCHUE: Inverse mode at  87     Hk =   2.500
 MRCHUE: Convergence failed at  88  side 2    Res =  0.4601E+01

 MRCHDU: Convergence failed at  88  side 2    Res =  0.1415E+01
 Side 1  free  transition at x/c =  0.7045   53
 Side 2  free  transition at x/c =  0.0575   24

   1   rms: 0.3084E+00   max: -.1410E+01   T at   53  1   RLX: 0.355
       a = -4.000      CL = -0.3676
      Cm =  0.0001     CD =  0.00870   =>   CDf =  0.00771    CDp =  0.00099

 MRCHDU: Convergence failed at  56  side 1    Res =  0.2455E+01
 MRCHDU: Convergence failed at  57  side 1    Res =  0.2450E+02
 Side 1  free  transition at x/c =  0.7266   56
 Side 2  free  transition at x/c =  0.0693   24

   2   rms: 0.2221E+00   max: -.1091E+01   T at   24  2   RLX: 0.458
       a = -4.000      CL = -0.3012
      Cm = -0.0162     CD =  0.00826   =>   CDf =  0.00716    CDp =  0.00110

 Side 1  free  transition at x/c =  0.7500   57
 Side 2  free  transition at x/c =  0.0927   25

   3   rms: 0.9571E-01   max: -.7581E+00   T at   57  1   RLX: 0.660
       a = -4.000      CL = -0.2762
      Cm = -0.0196     CD =  0.00974   =>   CDf =  0.00731    CDp =  0.00243

 MRCHDU: Convergence failed at  60  side 1    Res =  0.1288E+02
 Side 1  free  transition at x/c =  0.7909   60
 Side 2  free  transition at x/c =  0.0924   25

   4   rms: 0.2998E-01   max: -.1846E+00   D at   75  1
       a = -4.000      CL = -0.2710
      Cm = -0.0194     CD =  0.01034   =>   CDf =  0.00688    CDp =  0.00346

 Side 1  free  transition at x/c =  0.7993   61
 Side 2  free  transition at x/c =  0.0900   25

   5   rms: 0.5132E-02   max: -.5619E-01   D at   60  1
       a = -4.000      CL = -0.2752
      Cm = -0.0184     CD =  0.01040   =>   CDf =  0.00690    CDp =  0.00350

 Side 1  free  transition at x/c =  0.7984   60
 Side 2  free  transition at x/c =  0.0892   25

   6   rms: 0.4463E-03   max: 0.6922E-02   D at   61  1
       a = -4.000      CL = -0.2752
      Cm = -0.0184     CD =  0.01039   =>   CDf =  0.00688    CDp =  0.00352

 Side 1  free  transition at x/c =  0.7980   60
 Side 2  free  transition at x/c =  0.0892   25

   7   rms: 0.6727E-05   max: -.8830E-04   C at   60  1
       a = -4.000      CL = -0.2752
      Cm = -0.0184     CD =  0.01039   =>   CDf =  0.00688    CDp =  0.00352
 plradd ia,ip,cpol            1           0  3.36019089E-03

 Point added to stored polar  1
 Point written to save file  tsagi12_Re500k.base.pol                         
 Dump file unspecified or not available
 Calculating wake trajectory ...
 Calculating source influence matrix ...

 Solving BL system ...

 Side 1  free  transition at x/c =  0.7980   60
 Side 2  free  transition at x/c =  0.0892   25

   1   rms: 0.9684E-01   max: 0.5963E+00   D at   25  2   RLX: 0.917
       a = -3.500      CL = -0.2327
      Cm = -0.0167     CD =  0.00994   =>   CDf =  0.00701    CDp =  0.00293

 Side 1  free  transition at x/c =  0.7715   60
 Side 2  free  transition at x/c =  0.1048   25

   2   rms: 0.2710E-01   max: -.2362E+00   D at   60  1
       a = -3.500      CL = -0.2285
      Cm = -0.0165     CD =  0.00999   =>   CDf =  0.00702    CDp =  0.00297

 Side 1  free  transition at x/c =  0.7748   60
 Side 2  free  transition at x/c =  0.1085   25

   3   rms: 0.4003E-02   max: 0.6374E-01   C at   60  1
       a = -3.500      CL = -0.2282
      Cm = -0.0166     CD =  0.01002   =>   CDf =  0.00694    CDp =  0.00308

 Side 1  free  transition at x/c =  0.7733   60
 Side 2  free  transition at x/c =  0.1085   25

   4   rms: 0.1118E-03   max: -.2082E-02   D at   62  1
       a = -3.500      CL = -0.2282
      Cm = -0.0166     CD =  0.01002   =>   CDf =  0.00695    CDp =  0.00307

 Side 1  free  transition at x/c =  0.7732   60
 Side 2  free  transition at x/c =  0.1085   25

   5   rms: 0.5362E-06   max: 0.5676E-05   C at   60  1
       a = -3.500      CL = -0.2282
      Cm = -0.0166     CD =  0.01002   =>   CDf =  0.00695    CDp =  0.00306
 plradd ia,ip,cpol            2           0  5.01006795E-03

 Point added to stored polar  1
 Point written to save file  tsagi12_Re500k.base.pol                         
 Dump file unspecified or not available
 Calculating wake trajectory ...
 Calculating source influence matrix ...

 Solving BL system ...

 Side 1  free  transition at x/c =  0.7732   60
 Side 2  free  transition at x/c =  0.1085   25

   1   rms: 0.9063E-01   max: -.4721E+00   C at   25  2
       a = -3.000      CL = -0.1797
      Cm = -0.0150     CD =  0.00978   =>   CDf =  0.00695    CDp =  0.00283

 Side 1  free  transition at x/c =  0.7522   58
 Side 2  free  transition at x/c =  0.1299   27

   2   rms: 0.6420E-01   max: -.1143E+01   C at   27  2   RLX: 0.437
       a = -3.000      CL = -0.1810
      Cm = -0.0146     CD =  0.00969   =>   CDf =  0.00700    CDp =  0.00269

 Side 1  free  transition at x/c =  0.7525   58
 Side 2  free  transition at x/c =  0.1372   28

   3   rms: 0.4707E-01   max: -.5852E+00   C at   28  2   RLX: 0.854
       a = -3.000      CL = -0.1826
      Cm = -0.0145     CD =  0.00950   =>   CDf =  0.00697    CDp =  0.00253

 Side 1  free  transition at x/c =  0.7520   58
 Side 2  free  transition at x/c =  0.1781   30

   4   rms: 0.1816E-01   max: -.3117E+00   C at   30  2
       a = -3.000      CL = -0.1833
      Cm = -0.0144     CD =  0.00945   =>   CDf =  0.00677    CDp =  0.00268

 Side 1  free  transition at x/c =  0.7516   58
 Side 2  free  transition at x/c =  0.1642   29

   5   rms: 0.3533E-02   max: -.6352E-01   C at   29  2
       a = -3.000      CL = -0.1824
      Cm = -0.0146     CD =  0.00953   =>   CDf =  0.00681    CDp =  0.00272

 Side 1  free  transition at x/c =  0.7515   58
 Side 2  free  transition at x/c =  0.1653   29

   6   rms: 0.5143E-04   max: -.9784E-03   D at   31  2
       a = -3.000      CL = -0.1824
      Cm = -0.0146     CD =  0.00953   =>   CDf =  0.00681    CDp =  0.00272
 plradd ia,ip,cpol            3           0  1.38463844E-02

 Point added to stored polar  1
 Point written to save file  tsagi12_Re500k.base.pol                         
 Dump file unspecified or not available
 Calculating wake trajectory ...
 Calculating source influence matrix ...

 Solving BL system ...

 Side 1  free  transition at x/c =  0.7515   58
 Side 2  free  transition at x/c =  0.1653   29

   1   rms: 0.1467E+00   max: -.2668E+01   C at   29  2   RLX: 0.187
       a = -2.500      CL = -0.1735
      Cm = -0.0143     CD =  0.00944   =>   CDf =  0.00681    CDp =  0.00263

 Side 1  free  transition at x/c =  0.7469   58
 Side 2  free  transition at x/c =  0.1837   31

   2   rms: 0.1449E+00   max: -.2219E+01   C at   31  2   RLX: 0.225
       a = -2.500      CL = -0.1660
      Cm = -0.0138     CD =  0.00928   =>   CDf =  0.00687    CDp =  0.00241

 Side 1  free  transition at x/c =  0.7428   59
 Side 2  free  transition at x/c =  0.1963   30

   3   rms: 0.8854E-01   max: -.1138E+01   C at   30  2   RLX: 0.439
       a = -2.500      CL = -0.1521
      Cm = -0.0133     CD =  0.00927   =>   CDf =  0.00674    CDp =  0.00253

 Side 1  free  transition at x/c =  0.7375   58
 Side 2  free  transition at x/c =  0.2265   32

   4   rms: 0.3488E-01   max: -.2911E+00   C at   32  2
       a = -2.500      CL = -0.1356
      Cm = -0.0128     CD =  0.00910   =>   CDf =  0.00669    CDp =  0.00242

 Side 1  free  transition at x/c =  0.7290   58
 Side 2  free  transition at x/c =  0.2835   36

   5   rms: 0.2659E-01   max: -.4615E+00   C at   36  2
       a = -2.500      CL = -0.1398
      Cm = -0.0121     CD =  0.00882   =>   CDf =  0.00652    CDp =  0.00231

 Side 1  free  transition at x/c =  0.7303   58
 Side 2  free  transition at x/c =  0.2841   36

   6   rms: 0.7047E-02   max: 0.1478E+00   C at   36  2
       a = -2.500      CL = -0.1393
      Cm = -0.0122     CD =  0.00887   =>   CDf =  0.00644    CDp =  0.00243

 Side 1  free  transition at x/c =  0.7303   58
 Side 2  free  transition at x/c =  0.2786   36

   7   rms: 0.6461E-03   max: -.1366E-01   C at   36  2
       a = -2.500      CL = -0.1392
      Cm = -0.0122     CD =  0.00887   =>   CDf =  0.00646    CDp =  0.00241

 Side 1  free  transition at x/c =  0.7303   58
 Side 2  free  transition at x/c =  0.2789   36

   8   rms: 0.1647E-05   max: -.1006E-04   D at   35  2
       a = -2.500      CL = -0.1392
      Cm = -0.0122     CD =  0.00887   =>   CDf =  0.00646    CDp =  0.00241
 plradd ia,ip,cpol            4           0  1.38463844E-02

 Point added to stored polar  1
 Point written to save file  tsagi12_Re500k.base.pol                         
 Dump file unspecified or not available
 Calculating wake trajectory ...
 Calculating source influence matrix ...

 Solving BL system ...

 Side 1  free  transition at x/c =  0.7303   58
 Side 2  free  transition at x/c =  0.2789   36

   1   rms: 0.2469E+00   max: -.4902E+01   C at   36  2   RLX: 0.102
       a = -2.000      CL = -0.1350
      Cm = -0.0119     CD =  0.00879   =>   CDf =  0.00646    CDp =  0.00233

 Side 1  free  transition at x/c =  0.7282   58
 Side 2  free  transition at x/c =  0.2921   37

   2   rms: 0.2315E+00   max: -.4559E+01   C at   37  2   RLX: 0.110
       a = -2.000      CL = -0.1309
      Cm = -0.0116     CD =  0.00872   =>   CDf =  0.00642    CDp =  0.00230

 Side 1  free  transition at x/c =  0.7263   58
 Side 2  free  transition at x/c =  0.3039   38

   3   rms: 0.2058E+00   max: -.3904E+01   C at   38  2   RLX: 0.128
       a = -2.000      CL = -0.1266
      Cm = -0.0113     CD =  0.00866   =>   CDf =  0.00640    CDp =  0.00226

 Side 1  free  transition at x/c =  0.7244   58
 Side 2  free  transition at x/c =  0.3176   38

   4   rms: 0.2178E+00   max: -.4389E+01   C at   38  2   RLX: 0.114
       a = -2.000      CL = -0.1231
      Cm = -0.0111     CD =  0.00863   =>   CDf =  0.00636    CDp =  0.00227

 Side 1  free  transition at x/c =  0.7232   57
 Side 2  free  transition at x/c =  0.3316   39

   5   rms: 0.2423E+00   max: -.4908E+01   C at   39  2   RLX: 0.102
       a = -2.000      CL = -0.1207
      Cm = -0.0109     CD =  0.00855   =>   CDf =  0.00631    CDp =  0.00223

 Side 1  free  transition at x/c =  0.7218   57
 Side 2  free  transition at x/c =  0.3440   40

   6   rms: 0.2372E+00   max: -.4818E+01   C at   40  2   RLX: 0.104
       a = -2.000      CL = -0.1186
      Cm = -0.0107     CD =  0.00848   =>   CDf =  0.00626    CDp =  0.00221

 Side 1  free  transition at x/c =  0.7207   57
 Side 2  free  transition at x/c =  0.3571   41

   7   rms: 0.2241E+00   max: -.4551E+01   C at   41  2   RLX: 0.110
       a = -2.000      CL = -0.1168
      Cm = -0.0104     CD =  0.00841   =>   CDf =  0.00621    CDp =  0.00220

 Side 1  free  transition at x/c =  0.7195   57
 Side 2  free  transition at x/c =  0.3715   42

   8   rms: 0.2189E+00   max: -.4432E+01   C at   42  2   RLX: 0.113
       a = -2.000      CL = -0.1153
      Cm = -0.0102     CD =  0.00834   =>   CDf =  0.00616    CDp =  0.00218

 Side 1  free  transition at x/c =  0.7185   57
 Side 2  free  transition at x/c =  0.3863   43

   9   rms: 0.2087E+00   max: -.4204E+01   C at   43  2   RLX: 0.119
       a = -2.000      CL = -0.1141
      Cm = -0.0100     CD =  0.00826   =>   CDf =  0.00610    CDp =  0.00217

 Side 1  free  transition at x/c =  0.7176   57
 Side 2  free  transition at x/c =  0.4017   44

  10   rms: 0.1892E+00   max: -.3792E+01   C at   44  2   RLX: 0.132
       a = -2.000      CL = -0.1130
      Cm = -0.0097     CD =  0.00819   =>   CDf =  0.00604    CDp =  0.00215

 Side 1  free  transition at x/c =  0.7167   57
 Side 2  free  transition at x/c =  0.4179   45

  11   rms: 0.1639E+00   max: -.3260E+01   C at   45  2   RLX: 0.153
       a = -2.000      CL = -0.1119
      Cm = -0.0094     CD =  0.00812   =>   CDf =  0.00598    CDp =  0.00214

 Side 1  free  transition at x/c =  0.7158   57
 Side 2  free  transition at x/c =  0.4351   46

  12   rms: 0.1351E+00   max: -.2658E+01   C at   46  2   RLX: 0.188
       a = -2.000      CL = -0.1109
      Cm = -0.0091     CD =  0.00804   =>   CDf =  0.00592    CDp =  0.00212

 Side 1  free  transition at x/c =  0.7149   57
 Side 2  free  transition at x/c =  0.4532   47

  13   rms: 0.9702E-01   max: -.1884E+01   C at   47  2   RLX: 0.265
       a = -2.000      CL = -0.1097
      Cm = -0.0087     CD =  0.00797   =>   CDf =  0.00586    CDp =  0.00211

 Side 1  free  transition at x/c =  0.7139   57
 Side 2  free  transition at x/c =  0.4761   49

  14   rms: 0.6854E-01   max: -.1339E+01   C at   49  2   RLX: 0.373
       a = -2.000      CL = -0.1094
      Cm = -0.0082     CD =  0.00784   =>   CDf =  0.00587    CDp =  0.00198

 Side 1  free  transition at x/c =  0.7129   58
 Side 2  free  transition at x/c =  0.4932   49

  15   rms: 0.5881E-01   max: -.8041E+00   C at   49  2   RLX: 0.622
       a = -2.000      CL = -0.1087
      Cm = -0.0077     CD =  0.00776   =>   CDf =  0.00572    CDp =  0.00204

 Side 1  free  transition at x/c =  0.7120   58
 Side 2  free  transition at x/c =  0.5112   50

  16   rms: 0.1565E-01   max: -.2970E+00   C at   50  2
       a = -2.000      CL = -0.1087
      Cm = -0.0073     CD =  0.00771   =>   CDf =  0.00565    CDp =  0.00205

 Side 1  free  transition at x/c =  0.7114   58
 Side 2  free  transition at x/c =  0.5215   51

  17   rms: 0.4593E-03   max: 0.6988E-02   C at   51  2
       a = -2.000      CL = -0.1088
      Cm = -0.0072     CD =  0.00770   =>   CDf =  0.00562    CDp =  0.00209

 Side 1  free  transition at x/c =  0.7114   58
 Side 2  free  transition at x/c =  0.5213   51

  18   rms: 0.9954E-05   max: -.1938E-03   C at   51  2
       a = -2.000      CL = -0.1088
      Cm = -0.0072     CD =  0.00770   =>   CDf =  0.00562    CDp =  0.00209
 plradd ia,ip,cpol            5           0  1.38463844E-02

 Point added to stored polar  1
 Point written to save file  tsagi12_Re500k.base.pol                         
 Dump file unspecified or not available
 Calculating wake trajectory ...
 Calculating source influence matrix ...

 Solving BL system ...

 Side 1  free  transition at x/c =  0.7114   58
 Side 2  free  transition at x/c =  0.5213   51

   1   rms: 0.4939E+00   max: -.9539E+01   C at   51  2   RLX: 0.052
       a = -1.500      CL = -0.1081
      Cm = -0.0068     CD =  0.00762   =>   CDf =  0.00562    CDp =  0.00200

 Side 1  free  transition at x/c =  0.7105   58
 Side 2  free  transition at x/c =  0.5368   52

   2   rms: 0.4938E+00   max: -.9474E+01   C at   52  2   RLX: 0.053
       a = -1.500      CL = -0.1073
      Cm = -0.0064     CD =  0.00755   =>   CDf =  0.00556    CDp =  0.00199

 Side 1  free  transition at x/c =  0.7097   58
 Side 2  free  transition at x/c =  0.5530   53

   3   rms: 0.4954E+00   max: -.9416E+01   C at   53  2   RLX: 0.053
       a = -1.500      CL = -0.1068
      Cm = -0.0059     CD =  0.00748   =>   CDf =  0.00550    CDp =  0.00198

 Side 1  free  transition at x/c =  0.7090   58
 Side 2  free  transition at x/c =  0.5697   54

   4   rms: 0.4807E+00   max: -.9036E+01   C at   54  2   RLX: 0.055
       a = -1.500      CL = -0.1063
      Cm = -0.0055     CD =  0.00741   =>   CDf =  0.00544    CDp =  0.00197

 Side 1  free  transition at x/c =  0.7083   58
 Side 2  free  transition at x/c =  0.5873   55

   5   rms: 0.4517E+00   max: -.8386E+01   C at   55  2   RLX: 0.060
       a = -1.500      CL = -0.1058
      Cm = -0.0050     CD =  0.00734   =>   CDf =  0.00538    CDp =  0.00196

 Side 1  free  transition at x/c =  0.7076   57
 Side 2  free  transition at x/c =  0.6060   56

   6   rms: 0.3946E+00   max: -.7213E+01   C at   56  2   RLX: 0.069
       a = -1.500      CL = -0.1051
      Cm = -0.0046     CD =  0.00725   =>   CDf =  0.00531    CDp =  0.00194

 Side 1  free  transition at x/c =  0.7066   57
 Side 2  free  transition at x/c =  0.6287   58

   7   rms: 0.3304E+00   max: -.6183E+01   C at   58  2   RLX: 0.081
       a = -1.500      CL = -0.1048
      Cm = -0.0039     CD =  0.00714   =>   CDf =  0.00522    CDp =  0.00193

 Side 1  free  transition at x/c =  0.7055   57
 Side 2  free  transition at x/c =  0.6483   59

   8   rms: 0.2477E+00   max: -.4567E+01   C at   59  2   RLX: 0.109
       a = -1.500      CL = -0.1035
      Cm = -0.0033     CD =  0.00707   =>   CDf =  0.00514    CDp =  0.00192

 Side 1  free  transition at x/c =  0.7041   57
 Side 2  free  transition at x/c =  0.6749   61

   9   rms: 0.2016E+00   max: -.3752E+01   C at   61  2   RLX: 0.133
       a = -1.500      CL = -0.1025
      Cm = -0.0025     CD =  0.00695   =>   CDf =  0.00504    CDp =  0.00191

 Side 1  free  transition at x/c =  0.7026   57
 Side 2  free  transition at x/c =  0.6974   62

  10   rms: 0.1179E+00   max: -.2102E+01   C at   62  2   RLX: 0.238
       a = -1.500      CL = -0.0991
      Cm = -0.0018     CD =  0.00687   =>   CDf =  0.00496    CDp =  0.00191

 Side 1  free  transition at x/c =  0.7003   57
 Side 2  free  transition at x/c =  0.7389   65

  11   rms: 0.6166E-01   max: -.1039E+01   C at   65  2   RLX: 0.481
       a = -1.500      CL = -0.0941
      Cm = -0.0004     CD =  0.00671   =>   CDf =  0.00481    CDp =  0.00190

 Side 1  free  transition at x/c =  0.6970   57
 Side 2  free  transition at x/c =  0.7929   69

  12   rms: 0.6524E-01   max: -.1115E+01   C at   69  2   RLX: 0.449
       a = -1.500      CL = -0.0880
      Cm = -0.0002     CD =  0.00654   =>   CDf =  0.00460    CDp =  0.00194

 Side 1  free  transition at x/c =  0.6956   57
 Side 2  free  transition at x/c =  0.8079   70

  13   rms: 0.2399E-01   max: -.3708E+00   C at   70  2
       a = -1.500      CL = -0.0791
      Cm = -0.0011     CD =  0.00655   =>   CDf =  0.00455    CDp =  0.00201

 Side 1  free  transition at x/c =  0.6940   57
 Side 2  free  transition at x/c =  0.8267   71

  14   rms: 0.1787E-02   max: 0.3491E-01   D at   70  2
       a = -1.500      CL = -0.0781
      Cm = -0.0013     CD =  0.00657   =>   CDf =  0.00450    CDp =  0.00207

 Side 1  free  transition at x/c =  0.6941   57
 Side 2  free  transition at x/c =  0.8280   71

  15   rms: 0.1261E-03   max: -.5594E-03   C at   71  2
       a = -1.500      CL = -0.0780
      Cm = -0.0014     CD =  0.00657   =>   CDf =  0.00450    CDp =  0.00207

 Side 1  free  transition at x/c =  0.6941   57
 Side 2  free  transition at x/c =  0.8281   71

  16   rms: 0.1018E-05   max: -.1110E-04   D at   58  1
       a = -1.500      CL = -0.0780
      Cm = -0.0014     CD =  0.00657   =>   CDf =  0.00450    CDp =  0.00207
 plradd ia,ip,cpol            6           0  1.92162059E-02

 Point added to stored polar  1
 Point written to save file  tsagi12_Re500k.base.pol                         
 Dump file unspecified or not available
 Calculating wake trajectory ...
 Calculating source influence matrix ...

 Solving BL system ...

 Side 1  free  transition at x/c =  0.6941   57
 Side 2  free  transition at x/c =  0.8281   71

   1   rms: 0.1895E+00   max: -.2503E+01   C at   71  2   RLX: 0.200
       a = -1.000      CL = -0.0623
      Cm = -0.0022     CD =  0.00657   =>   CDf =  0.00450    CDp =  0.00207

 Side 1  free  transition at x/c =  0.6910   56
 Side 2  free  transition at x/c =  0.8671   74

   2   rms: 0.1608E+00   max: 0.7845E+00   D at   75  2   RLX: 0.922
       a = -1.000      CL =  0.0304
      Cm = -0.0126     CD =  0.00683   =>   CDf =  0.00448    CDp =  0.00235

 Side 1  free  transition at x/c =  0.6730   56
 Side 2  free  transition at x/c =  0.9030   75

   3   rms: 0.4096E+00   max: -.2559E+01   D at   80  2   RLX: 0.195
       a = -1.000      CL = -0.0320
      Cm = -0.0002     CD =  0.00700   =>   CDf =  0.00453    CDp =  0.00247

 MRCHDU: Convergence failed at  77  side 2    Res =  0.3171E+01
 MRCHDU: Convergence failed at  78  side 2    Res =  0.2950E+01
 MRCHDU: Convergence failed at  79  side 2    Res =  0.7833E+01
 MRCHDU: Convergence failed at  80  side 2    Res =  0.2394E+01
 MRCHDU: Convergence failed at  81  side 2    Res =  0.3377E+02
 MRCHDU: Convergence failed at  82  side 2    Res =  0.7721E+01
 MRCHDU: Convergence failed at  83  side 2    Res =  0.4682E+01
 Side 1  free  transition at x/c =  0.6747   56
 Side 2  free  transition at x/c =  0.9541   79

   4   rms: 0.1502E+00   max: 0.1457E+01   C at   79  2
       a = -1.000      CL = -0.0440
      Cm =  0.0047     CD =  0.00594   =>   CDf =  0.00449    CDp =  0.00145

 Side 1  free  transition at x/c =  0.6767   56
 Side 2  free  transition at x/c =  0.9019   75

   5   rms: 0.1132E+00   max: 0.1003E+01   D at   78  2
       a = -1.000      CL =  0.0529
      Cm = -0.0171     CD =  0.00723   =>   CDf =  0.00444    CDp =  0.00279

 Side 1  free  transition at x/c =  0.6741   56
 Side 2  free  transition at x/c =  0.9042   75

   6   rms: 0.7470E-01   max: -.4268E+00   D at   82  2
       a = -1.000      CL = -0.0164
      Cm = -0.0018     CD =  0.00668   =>   CDf =  0.00455    CDp =  0.00213

 MRCHDU: Convergence failed at  82  side 2    Res =  0.7110E+01
 MRCHDU: Convergence failed at  83  side 2    Res =  0.9925E+00
 Side 1  free  transition at x/c =  0.6757   56
 Side 2  free  transition at x/c =  0.9103   76

   7   rms: 0.4548E-01   max: 0.4896E+00   D at   83  2
       a = -1.000      CL = -0.0051
      Cm = -0.0043     CD =  0.00672   =>   CDf =  0.00446    CDp =  0.00225

 Side 1  free  transition at x/c =  0.6754   56
 Side 2  free  transition at x/c =  0.9064   76

   8   rms: 0.1306E-01   max: 0.7020E-01   D at   83  2
       a = -1.000      CL =  0.0060
      Cm = -0.0068     CD =  0.00687   =>   CDf =  0.00448    CDp =  0.00240

 Side 1  free  transition at x/c =  0.6752   56
 Side 2  free  transition at x/c =  0.9065   76

   9   rms: 0.3533E-03   max: 0.2569E-02   D at   83  2
       a = -1.000      CL =  0.0063
      Cm = -0.0069     CD =  0.00688   =>   CDf =  0.00449    CDp =  0.00239

 Side 1  free  transition at x/c =  0.6752   56
 Side 2  free  transition at x/c =  0.9065   76

  10   rms: 0.2873E-05   max: 0.2326E-04   D at   83  2
       a = -1.000      CL =  0.0063
      Cm = -0.0069     CD =  0.00688   =>   CDf =  0.00449    CDp =  0.00239
 plradd ia,ip,cpol            7           0  1.92162059E-02

 Point added to stored polar  1
 Point written to save file  tsagi12_Re500k.base.pol                         
 Dump file unspecified or not available
 Calculating wake trajectory ...
 Calculating source influence matrix ...

 Solving BL system ...

 Side 1  free  transition at x/c =  0.6752   56
 Side 2  free  transition at x/c =  0.9065   76

   1   rms: 0.2111E+00   max: 0.9343E+00   D at   79  2
       a = -0.500      CL =  0.1669
      Cm = -0.0293     CD =  0.00752   =>   CDf =  0.00457    CDp =  0.00295

 Side 1  free  transition at x/c =  0.6500   56
 Side 2  free  transition at x/c =  0.9030   74

   2   rms: 0.4965E+00   max: -.2885E+01   T at   74  2   RLX: 0.173
       a = -0.500      CL =  0.0953
      Cm = -0.0151     CD =  0.00909   =>   CDf =  0.00479    CDp =  0.00429

 MRCHDU: Convergence failed at  77  side 2    Res =  0.2192E+01
 MRCHDU: Convergence failed at  78  side 2    Res =  0.4643E+01
 MRCHDU: Convergence failed at  79  side 2    Res =  0.5269E+01
 MRCHDU: Convergence failed at  80  side 2    Res =  0.5343E+01
 MRCHDU: Convergence failed at  81  side 2    Res =  0.2271E+03
 MRCHDU: Convergence failed at  82  side 2    Res =  0.6946E+01
 Side 1  free  transition at x/c =  0.6530   56
 Side 2  free  transition at x/c =  0.9373   77

   3   rms: 0.1583E+00   max: 0.1220E+01   C at   77  2
       a = -0.500      CL =  0.0907
      Cm = -0.0124     CD =  0.00652   =>   CDf =  0.00472    CDp =  0.00180

 Side 1  free  transition at x/c =  0.6573   56
 Side 2  free  transition at x/c =  0.9169   75

   4   rms: 0.6010E-01   max: -.4739E+00   D at   76  2
       a = -0.500      CL =  0.0568
      Cm = -0.0054     CD =  0.00714   =>   CDf =  0.00462    CDp =  0.00252

 MRCHDU: Convergence failed at  78  side 2    Res =  0.2108E+01
 MRCHDU: Convergence failed at  79  side 2    Res =  0.5412E+01
 MRCHDU: Convergence failed at  80  side 2    Res =  0.2831E+01
 MRCHDU: Convergence failed at  81  side 2    Res =  0.1989E+01
 MRCHDU: Convergence failed at  82  side 2    Res =  0.7011E+01
 Side 1  free  transition at x/c =  0.6571   56
 Side 2  free  transition at x/c =  0.9381   77

   5   rms: 0.1145E+00   max: 0.1159E+01   D at   82  2
       a = -0.500      CL =  0.0481
      Cm = -0.0032     CD =  0.00638   =>   CDf =  0.00462    CDp =  0.00176

 Side 1  free  transition at x/c =  0.6573   56
 Side 2  free  transition at x/c =  0.9327   76

   6   rms: 0.8592E-01   max: 0.5038E+00   D at   82  2
       a = -0.500      CL =  0.1217
      Cm = -0.0195     CD =  0.00736   =>   CDf =  0.00460    CDp =  0.00276

 Side 1  free  transition at x/c =  0.6547   56
 Side 2  free  transition at x/c =  0.9149   75

   7   rms: 0.8445E-01   max: -.4539E+00   D at   79  2
       a = -0.500      CL =  0.0607
      Cm = -0.0063     CD =  0.00697   =>   CDf =  0.00468    CDp =  0.00229

 MRCHDU: Convergence failed at  77  side 2    Res =  0.1285E+01
 MRCHDU: Convergence failed at  78  side 2    Res =  0.8024E+01
 MRCHDU: Convergence failed at  79  side 2    Res =  0.1302E+02
 MRCHDU: Convergence failed at  80  side 2    Res =  0.5635E+01
 MRCHDU: Convergence failed at  81  side 2    Res =  0.4494E+01
 MRCHDU: Convergence failed at  82  side 2    Res =  0.1885E+02
 Side 1  free  transition at x/c =  0.6569   56
 Side 2  free  transition at x/c =  0.9389   77

   8   rms: 0.1666E+00   max: 0.1196E+01   C at   77  2
       a = -0.500      CL =  0.0887
      Cm = -0.0120     CD =  0.00637   =>   CDf =  0.00461    CDp =  0.00176

 Side 1  free  transition at x/c =  0.6558   56
 Side 2  free  transition at x/c =  0.9182   75

   9   rms: 0.7191E-01   max: -.4913E+00   D at   79  2
       a = -0.500      CL =  0.0446
      Cm = -0.0028     CD =  0.00704   =>   CDf =  0.00463    CDp =  0.00241

 MRCHDU: Convergence failed at  77  side 2    Res =  0.3024E+01
 MRCHDU: Convergence failed at  78  side 2    Res =  0.8264E+01
 MRCHDU: Convergence failed at  79  side 2    Res =  0.7270E+01
 MRCHDU: Convergence failed at  80  side 2    Res =  0.5667E+02
 MRCHDU: Convergence failed at  81  side 2    Res =  0.6347E+01
 MRCHDU: Convergence failed at  82  side 2    Res =  0.6270E+01
 Side 1  free  transition at x/c =  0.6574   56
 Side 2  free  transition at x/c =  0.9458   77

  10   rms: 0.1733E+00   max: 0.1223E+01   D at   82  2
       a = -0.500      CL =  0.0874
      Cm = -0.0116     CD =  0.00626   =>   CDf =  0.00459    CDp =  0.00166

 Side 1  free  transition at x/c =  0.6558   56
 Side 2  free  transition at x/c =  0.9186   75

  11   rms: 0.7463E-01   max: -.5182E+00   D at   79  2   RLX: 0.965
       a = -0.500      CL =  0.0446
      Cm = -0.0028     CD =  0.00710   =>   CDf =  0.00463    CDp =  0.00247

 MRCHDU: Convergence failed at  77  side 2    Res =  0.9481E+01
 MRCHDU: Convergence failed at  78  side 2    Res =  0.1148E+02
 MRCHDU: Convergence failed at  79  side 2    Res =  0.9251E+01
 MRCHDU: Convergence failed at  80  side 2    Res =  0.1235E+03
 MRCHDU: Convergence failed at  81  side 2    Res =  0.5668E+01
 MRCHDU: Convergence failed at  82  side 2    Res =  0.6739E+01
 Side 1  free  transition at x/c =  0.6574   56
 Side 2  free  transition at x/c =  0.9452   77

  12   rms: 0.1729E+00   max: 0.1215E+01   D at   82  2
       a = -0.500      CL =  0.0874
      Cm = -0.0117     CD =  0.00626   =>   CDf =  0.00459    CDp =  0.00167

 Side 1  free  transition at x/c =  0.6558   56
 Side 2  free  transition at x/c =  0.9186   75

  13   rms: 0.7441E-01   max: -.5170E+00   D at   79  2   RLX: 0.967
       a = -0.500      CL =  0.0445
      Cm = -0.0027     CD =  0.00710   =>   CDf =  0.00463    CDp =  0.00246

 MRCHDU: Convergence failed at  77  side 2    Res =  0.1099E+02
 MRCHDU: Convergence failed at  78  side 2    Res =  0.1072E+02
 MRCHDU: Convergence failed at  79  side 2    Res =  0.8920E+01
 MRCHDU: Convergence failed at  80  side 2    Res =  0.2086E+03
 MRCHDU: Convergence failed at  81  side 2    Res =  0.5746E+01
 MRCHDU: Convergence failed at  82  side 2    Res =  0.6665E+01
 Side 1  free  transition at x/c =  0.6574   56
 Side 2  free  transition at x/c =  0.9453   77

  14   rms: 0.1730E+00   max: 0.1217E+01   D at   82  2
       a = -0.500      CL =  0.0874
      Cm = -0.0117     CD =  0.00626   =>   CDf =  0.00459    CDp =  0.00167

 Side 1  free  transition at x/c =  0.6558   56
 Side 2  free  transition at x/c =  0.9186   75

  15   rms: 0.7459E-01   max: -.5179E+00   D at   79  2   RLX: 0.965
       a = -0.500      CL =  0.0445
      Cm = -0.0027     CD =  0.00710   =>   CDf =  0.00463    CDp =  0.00247

 MRCHDU: Convergence failed at  77  side 2    Res =  0.1134E+02
 MRCHDU: Convergence failed at  78  side 2    Res =  0.1083E+02
 MRCHDU: Convergence failed at  79  side 2    Res =  0.8964E+01
 MRCHDU: Convergence failed at  80  side 2    Res =  0.1910E+03
 MRCHDU: Convergence failed at  81  side 2    Res =  0.5736E+01
 MRCHDU: Convergence failed at  82  side 2    Res =  0.6676E+01
 Side 1  free  transition at x/c =  0.6574   56
 Side 2  free  transition at x/c =  0.9453   77

  16   rms: 0.1730E+00   max: 0.1217E+01   D at   82  2
       a = -0.500      CL =  0.0874
      Cm = -0.0117     CD =  0.00626   =>   CDf =  0.00459    CDp =  0.00167

 Side 1  free  transition at x/c =  0.6558   56
 Side 2  free  transition at x/c =  0.9186   75

  17   rms: 0.7454E-01   max: -.5177E+00   D at   79  2   RLX: 0.966
       a = -0.500      CL =  0.0445
      Cm = -0.0027     CD =  0.00710   =>   CDf =  0.00463    CDp =  0.00247

 MRCHDU: Convergence failed at  77  side 2    Res =  0.1102E+02
 MRCHDU: Convergence failed at  78  side 2    Res =  0.1086E+02
 MRCHDU: Convergence failed at  79  side 2    Res =  0.8978E+01
 MRCHDU: Convergence failed at  80  side 2    Res =  0.1856E+03
 MRCHDU: Convergence failed at  81  side 2    Res =  0.5732E+01
 MRCHDU: Convergence failed at  82  side 2    Res =  0.6678E+01
 Side 1  free  transition at x/c =  0.6574   56
 Side 2  free  transition at x/c =  0.9453   77

  18   rms: 0.1730E+00   max: 0.1217E+01   D at   82  2
       a = -0.500      CL =  0.0874
      Cm = -0.0117     CD =  0.00626   =>   CDf =  0.00459    CDp =  0.00167

 Side 1  free  transition at x/c =  0.6558   56
 Side 2  free  transition at x/c =  0.9186   75

  19   rms: 0.7455E-01   max: -.5177E+00   D at   79  2   RLX: 0.966
       a = -0.500      CL =  0.0445
      Cm = -0.0027     CD =  0.00710   =>   CDf =  0.00463    CDp =  0.00247

 MRCHDU: Convergence failed at  77  side 2    Res =  0.1116E+02
 MRCHDU: Convergence failed at  78  side 2    Res =  0.1083E+02
 MRCHDU: Convergence failed at  79  side 2    Res =  0.8967E+01
 MRCHDU: Convergence failed at  80  side 2    Res =  0.1896E+03
 MRCHDU: Convergence failed at  81  side 2    Res =  0.5734E+01
 MRCHDU: Convergence failed at  82  side 2    Res =  0.6676E+01
 Side 1  free  transition at x/c =  0.6574   56
 Side 2  free  transition at x/c =  0.9453   77

  20   rms: 0.1730E+00   max: 0.1217E+01   D at   82  2
       a = -0.500      CL =  0.0874
      Cm = -0.0117     CD =  0.00626   =>   CDf =  0.00459    CDp =  0.00167

 Side 1  free  transition at x/c =  0.6558   56
 Side 2  free  transition at x/c =  0.9186   75

  21   rms: 0.7455E-01   max: -.5177E+00   D at   79  2   RLX: 0.966
       a = -0.500      CL =  0.0445
      Cm = -0.0027     CD =  0.00710   =>   CDf =  0.00463    CDp =  0.00247

 MRCHDU: Convergence failed at  77  side 2    Res =  0.1116E+02
 MRCHDU: Convergence failed at  78  side 2    Res =  0.1084E+02
 MRCHDU: Convergence failed at  79  side 2    Res =  0.8971E+01
 MRCHDU: Convergence failed at  80  side 2    Res =  0.1883E+03
 MRCHDU: Convergence failed at  81  side 2    Res =  0.5733E+01
 MRCHDU: Convergence failed at  82  side 2    Res =  0.6677E+01
 Side 1  free  transition at x/c =  0.6574   56
 Side 2  free  transition at x/c =  0.9453   77

  22   rms: 0.1730E+00   max: 0.1217E+01   D at   82  2
       a = -0.500      CL =  0.0874
      Cm = -0.0117     CD =  0.00626   =>   CDf =  0.00459    CDp =  0.00167

 Side 1  free  transition at x/c =  0.6558   56
 Side 2  free  transition at x/c =  0.9186   75

  23   rms: 0.7455E-01   max: -.5177E+00   D at   79  2   RLX: 0.966
       a = -0.500      CL =  0.0445
      Cm = -0.0027     CD =  0.00710   =>   CDf =  0.00463    CDp =  0.00247

 MRCHDU: Convergence failed at  77  side 2    Res =  0.1111E+02
 MRCHDU: Convergence failed at  78  side 2    Res =  0.1084E+02
 MRCHDU: Convergence failed at  79  side 2    Res =  0.8972E+01
 MRCHDU: Convergence failed at  80  side 2    Res =  0.1879E+03
 MRCHDU: Convergence failed at  81  side 2    Res =  0.5733E+01
 MRCHDU: Convergence failed at  82  side 2    Res =  0.6677E+01
 Side 1  free  transition at x/c =  0.6574   56
 Side 2  free  transition at x/c =  0.9453   77

  24   rms: 0.1730E+00   max: 0.1217E+01   D at   82  2
       a = -0.500      CL =  0.0874
      Cm = -0.0117     CD =  0.00626   =>   CDf =  0.00459    CDp =  0.00167

 Side 1  free  transition at x/c =  0.6558   56
 Side 2  free  transition at x/c =  0.9186   75

  25   rms: 0.7455E-01   max: -.5177E+00   D at   79  2   RLX: 0.966
       a = -0.500      CL =  0.0445
      Cm = -0.0027     CD =  0.00710   =>   CDf =  0.00463    CDp =  0.00247

 MRCHDU: Convergence failed at  77  side 2    Res =  0.1114E+02
 MRCHDU: Convergence failed at  78  side 2    Res =  0.1084E+02
 MRCHDU: Convergence failed at  79  side 2    Res =  0.8970E+01
 MRCHDU: Convergence failed at  80  side 2    Res =  0.1887E+03
 MRCHDU: Convergence failed at  81  side 2    Res =  0.5734E+01
 MRCHDU: Convergence failed at  82  side 2    Res =  0.6677E+01
 Side 1  free  transition at x/c =  0.6574   56
 Side 2  free  transition at x/c =  0.9453   77

  26   rms: 0.1730E+00   max: 0.1217E+01   D at   82  2
       a = -0.500      CL =  0.0874
      Cm = -0.0117     CD =  0.00626   =>   CDf =  0.00459    CDp =  0.00167

 Side 1  free  transition at x/c =  0.6558   56
 Side 2  free  transition at x/c =  0.9186   75

  27   rms: 0.7455E-01   max: -.5177E+00   D at   79  2   RLX: 0.966
       a = -0.500      CL =  0.0445
      Cm = -0.0027     CD =  0.00710   =>   CDf =  0.00463    CDp =  0.00247

 MRCHDU: Convergence failed at  77  side 2    Res =  0.1111E+02
 MRCHDU: Convergence failed at  78  side 2    Res =  0.1084E+02
 MRCHDU: Convergence failed at  79  side 2    Res =  0.8971E+01
 MRCHDU: Convergence failed at  80  side 2    Res =  0.1881E+03
 MRCHDU: Convergence failed at  81  side 2    Res =  0.5733E+01
 MRCHDU: Convergence failed at  82  side 2    Res =  0.6677E+01
 Side 1  free  transition at x/c =  0.6574   56
 Side 2  free  transition at x/c =  0.9453   77

  28   rms: 0.1730E+00   max: 0.1217E+01   D at   82  2
       a = -0.500      CL =  0.0874
      Cm = -0.0117     CD =  0.00626   =>   CDf =  0.00459    CDp =  0.00167

 Side 1  free  transition at x/c =  0.6558   56
 Side 2  free  transition at x/c =  0.9186   75

  29   rms: 0.7455E-01   max: -.5177E+00   D at   79  2   RLX: 0.966
       a = -0.500      CL =  0.0445
      Cm = -0.0027     CD =  0.00710   =>   CDf =  0.00463    CDp =  0.00247

 MRCHDU: Convergence failed at  77  side 2    Res =  0.1111E+02
 MRCHDU: Convergence failed at  78  side 2    Res =  0.1084E+02
 MRCHDU: Convergence failed at  79  side 2    Res =  0.8970E+01
 MRCHDU: Convergence failed at  80  side 2    Res =  0.1885E+03
 MRCHDU: Convergence failed at  81  side 2    Res =  0.5734E+01
 MRCHDU: Convergence failed at  82  side 2    Res =  0.6677E+01
 Side 1  free  transition at x/c =  0.6574   56
 Side 2  free  transition at x/c =  0.9453   77

  30   rms: 0.1730E+00   max: 0.1217E+01   D at   82  2
       a = -0.500      CL =  0.0874
      Cm = -0.0117     CD =  0.00626   =>   CDf =  0.00459    CDp =  0.00167

 Side 1  free  transition at x/c =  0.6558   56
 Side 2  free  transition at x/c =  0.9186   75

  31   rms: 0.7455E-01   max: -.5177E+00   D at   79  2   RLX: 0.966
       a = -0.500      CL =  0.0445
      Cm = -0.0027     CD =  0.00710   =>   CDf =  0.00463    CDp =  0.00247

 MRCHDU: Convergence failed at  77  side 2    Res =  0.1111E+02
 MRCHDU: Convergence failed at  78  side 2    Res =  0.1084E+02
 MRCHDU: Convergence failed at  79  side 2    Res =  0.8970E+01
 MRCHDU: Convergence failed at  80  side 2    Res =  0.1885E+03
 MRCHDU: Convergence failed at  81  side 2    Res =  0.5734E+01
 MRCHDU: Convergence failed at  82  side 2    Res =  0.6677E+01
 Side 1  free  transition at x/c =  0.6574   56
 Side 2  free  transition at x/c =  0.9453   77

  32   rms: 0.1730E+00   max: 0.1217E+01   D at   82  2
       a = -0.500      CL =  0.0874
      Cm = -0.0117     CD =  0.00626   =>   CDf =  0.00459    CDp =  0.00167

 Side 1  free  transition at x/c =  0.6558   56
 Side 2  free  transition at x/c =  0.9186   75

  33   rms: 0.7455E-01   max: -.5177E+00   D at   79  2   RLX: 0.966
       a = -0.500      CL =  0.0445
      Cm = -0.0027     CD =  0.00710   =>   CDf =  0.00463    CDp =  0.00247

 MRCHDU: Convergence failed at  77  side 2    Res =  0.1113E+02
 MRCHDU: Convergence failed at  78  side 2    Res =  0.1084E+02
 MRCHDU: Convergence failed at  79  side 2    Res =  0.8970E+01
 MRCHDU: Convergence failed at  80  side 2    Res =  0.1885E+03
 MRCHDU: Convergence failed at  81  side 2    Res =  0.5734E+01
 MRCHDU: Convergence failed at  82  side 2    Res =  0.6677E+01
 Side 1  free  transition at x/c =  0.6574   56
 Side 2  free  transition at x/c =  0.9453   77

  34   rms: 0.1730E+00   max: 0.1217E+01   D at   82  2
       a = -0.500      CL =  0.0874
      Cm = -0.0117     CD =  0.00626   =>   CDf =  0.00459    CDp =  0.00167

 Side 1  free  transition at x/c =  0.6558   56
 Side 2  free  transition at x/c =  0.9186   75

  35   rms: 0.7455E-01   max: -.5177E+00   D at   79  2   RLX: 0.966
       a = -0.500      CL =  0.0445
      Cm = -0.0027     CD =  0.00710   =>   CDf =  0.00463    CDp =  0.00247

 MRCHDU: Convergence failed at  77  side 2    Res =  0.1112E+02
 MRCHDU: Convergence failed at  78  side 2    Res =  0.1084E+02
 MRCHDU: Convergence failed at  79  side 2    Res =  0.8971E+01
 MRCHDU: Convergence failed at  80  side 2    Res =  0.1882E+03
 MRCHDU: Convergence failed at  81  side 2    Res =  0.5733E+01
 MRCHDU: Convergence failed at  82  side 2    Res =  0.6677E+01
 Side 1  free  transition at x/c =  0.6574   56
 Side 2  free  transition at x/c =  0.9453   77

  36   rms: 0.1730E+00   max: 0.1217E+01   D at   82  2
       a = -0.500      CL =  0.0874
      Cm = -0.0117     CD =  0.00626   =>   CDf =  0.00459    CDp =  0.00167

 Side 1  free  transition at x/c =  0.6558   56
 Side 2  free  transition at x/c =  0.9186   75

  37   rms: 0.7456E-01   max: -.5177E+00   D at   79  2   RLX: 0.966
       a = -0.500      CL =  0.0445
      Cm = -0.0027     CD =  0.00710   =>   CDf =  0.00463    CDp =  0.00247

 MRCHDU: Convergence failed at  77  side 2    Res =  0.1116E+02
 MRCHDU: Convergence failed at  78  side 2    Res =  0.1084E+02
 MRCHDU: Convergence failed at  79  side 2    Res =  0.8970E+01
 MRCHDU: Convergence failed at  80  side 2    Res =  0.1887E+03
 MRCHDU: Convergence failed at  81  side 2    Res =  0.5734E+01
 MRCHDU: Convergence failed at  82  side 2    Res =  0.6677E+01
 Side 1  free  transition at x/c =  0.6574   56
 Side 2  free  transition at x/c =  0.9453   77

  38   rms: 0.1730E+00   max: 0.1217E+01   D at   82  2
       a = -0.500      CL =  0.0874
      Cm = -0.0117     CD =  0.00626   =>   CDf =  0.00459    CDp =  0.00167

 Side 1  free  transition at x/c =  0.6558   56
 Side 2  free  transition at x/c =  0.9186   75

  39   rms: 0.7456E-01   max: -.5177E+00   D at   79  2   RLX: 0.966
       a = -0.500      CL =  0.0445
      Cm = -0.0027     CD =  0.00710   =>   CDf =  0.00463    CDp =  0.00247

 MRCHDU: Convergence failed at  77  side 2    Res =  0.1115E+02
 MRCHDU: Convergence failed at  78  side 2    Res =  0.1084E+02
 MRCHDU: Convergence failed at  79  side 2    Res =  0.8971E+01
 MRCHDU: Convergence failed at  80  side 2    Res =  0.1880E+03
 MRCHDU: Convergence failed at  81  side 2    Res =  0.5733E+01
 MRCHDU: Convergence failed at  82  side 2    Res =  0.6677E+01
 Side 1  free  transition at x/c =  0.6574   56
 Side 2  free  transition at x/c =  0.9453   77

  40   rms: 0.1730E+00   max: 0.1217E+01   D at   82  2
       a = -0.500      CL =  0.0874
      Cm = -0.0117     CD =  0.00626   =>   CDf =  0.00459    CDp =  0.00167

 Side 1  free  transition at x/c =  0.6558   56
 Side 2  free  transition at x/c =  0.9186   75

  41   rms: 0.7456E-01   max: -.5178E+00   D at   79  2   RLX: 0.966
       a = -0.500      CL =  0.0445
      Cm = -0.0027     CD =  0.00710   =>   CDf =  0.00463    CDp =  0.00247

 MRCHDU: Convergence failed at  77  side 2    Res =  0.1117E+02
 MRCHDU: Convergence failed at  78  side 2    Res =  0.1084E+02
 MRCHDU: Convergence failed at  79  side 2    Res =  0.8971E+01
 MRCHDU: Convergence failed at  80  side 2    Res =  0.1883E+03
 MRCHDU: Convergence failed at  81  side 2    Res =  0.5733E+01
 MRCHDU: Convergence failed at  82  side 2    Res =  0.6677E+01
 Side 1  free  transition at x/c =  0.6574   56
 Side 2  free  transition at x/c =  0.9453   77

  42   rms: 0.1730E+00   max: 0.1217E+01   D at   82  2
       a = -0.500      CL =  0.0874
      Cm = -0.0117     CD =  0.00626   =>   CDf =  0.00459    CDp =  0.00167

 Side 1  free  transition at x/c =  0.6558   56
 Side 2  free  transition at x/c =  0.9186   75

  43   rms: 0.7455E-01   max: -.5177E+00   D at   79  2   RLX: 0.966
       a = -0.500      CL =  0.0445
      Cm = -0.0027     CD =  0.00710   =>   CDf =  0.00463    CDp =  0.00247

 MRCHDU: Convergence failed at  77  side 2    Res =  0.1112E+02
 MRCHDU: Convergence failed at  78  side 2    Res =  0.1084E+02
 MRCHDU: Convergence failed at  79  side 2    Res =  0.8972E+01
 MRCHDU: Convergence failed at  80  side 2    Res =  0.1877E+03
 MRCHDU: Convergence failed at  81  side 2    Res =  0.5733E+01
 MRCHDU: Convergence failed at  82  side 2    Res =  0.6677E+01
 Side 1  free  transition at x/c =  0.6574   56
 Side 2  free  transition at x/c =  0.9453   77

  44   rms: 0.1730E+00   max: 0.1217E+01   D at   82  2
       a = -0.500      CL =  0.0874
      Cm = -0.0117     CD =  0.00626   =>   CDf =  0.00459    CDp =  0.00167

 Side 1  free  transition at x/c =  0.6558   56
 Side 2  free  transition at x/c =  0.9186   75

  45   rms: 0.7455E-01   max: -.5177E+00   D at   79  2   RLX: 0.966
       a = -0.500      CL =  0.0445
      Cm = -0.0027     CD =  0.00710   =>   CDf =  0.00463    CDp =  0.00247

 MRCHDU: Convergence failed at  77  side 2    Res =  0.1114E+02
 MRCHDU: Convergence failed at  78  side 2    Res =  0.1084E+02
 MRCHDU: Convergence failed at  79  side 2    Res =  0.8970E+01
 MRCHDU: Convergence failed at  80  side 2    Res =  0.1886E+03
 MRCHDU: Convergence failed at  81  side 2    Res =  0.5734E+01
 MRCHDU: Convergence failed at  82  side 2    Res =  0.6677E+01
 Side 1  free  transition at x/c =  0.6574   56
 Side 2  free  transition at x/c =  0.9453   77

  46   rms: 0.1730E+00   max: 0.1217E+01   D at   82  2
       a = -0.500      CL =  0.0874
      Cm = -0.0117     CD =  0.00626   =>   CDf =  0.00459    CDp =  0.00167

 Side 1  free  transition at x/c =  0.6558   56
 Side 2  free  transition at x/c =  0.9186   75

  47   rms: 0.7455E-01   max: -.5177E+00   D at   79  2   RLX: 0.966
       a = -0.500      CL =  0.0445
      Cm = -0.0027     CD =  0.00710   =>   CDf =  0.00463    CDp =  0.00247

 MRCHDU: Convergence failed at  77  side 2    Res =  0.1111E+02
 MRCHDU: Convergence failed at  78  side 2    Res =  0.1084E+02
 MRCHDU: Convergence failed at  79  side 2    Res =  0.8971E+01
 MRCHDU: Convergence failed at  80  side 2    Res =  0.1881E+03
 MRCHDU: Convergence failed at  81  side 2    Res =  0.5733E+01
 MRCHDU: Convergence failed at  82  side 2    Res =  0.6677E+01
 Side 1  free  transition at x/c =  0.6574   56
 Side 2  free  transition at x/c =  0.9453   77

  48   rms: 0.1730E+00   max: 0.1217E+01   D at   82  2
       a = -0.500      CL =  0.0874
      Cm = -0.0117     CD =  0.00626   =>   CDf =  0.00459    CDp =  0.00167

 Side 1  free  transition at x/c =  0.6558   56
 Side 2  free  transition at x/c =  0.9186   75

  49   rms: 0.7455E-01   max: -.5177E+00   D at   79  2   RLX: 0.966
       a = -0.500      CL =  0.0445
      Cm = -0.0027     CD =  0.00710   =>   CDf =  0.00463    CDp =  0.00247

 MRCHDU: Convergence failed at  77  side 2    Res =  0.1114E+02
 MRCHDU: Convergence failed at  78  side 2    Res =  0.1084E+02
 MRCHDU: Convergence failed at  79  side 2    Res =  0.8970E+01
 MRCHDU: Convergence failed at  80  side 2    Res =  0.1886E+03
 MRCHDU: Convergence failed at  81  side 2    Res =  0.5734E+01
 MRCHDU: Convergence failed at  82  side 2    Res =  0.6677E+01
 Side 1  free  transition at x/c =  0.6574   56
 Side 2  free  transition at x/c =  0.9453   77

  50   rms: 0.1730E+00   max: 0.1217E+01   D at   82  2
       a = -0.500      CL =  0.0874
      Cm = -0.0117     CD =  0.00626   =>   CDf =  0.00459    CDp =  0.00167

 Side 1  free  transition at x/c =  0.6558   56
 Side 2  free  transition at x/c =  0.9186   75

  51   rms: 0.7455E-01   max: -.5177E+00   D at   79  2   RLX: 0.966
       a = -0.500      CL =  0.0445
      Cm = -0.0027     CD =  0.00710   =>   CDf =  0.00463    CDp =  0.00247

 MRCHDU: Convergence failed at  77  side 2    Res =  0.1115E+02
 MRCHDU: Convergence failed at  78  side 2    Res =  0.1084E+02
 MRCHDU: Convergence failed at  79  side 2    Res =  0.8971E+01
 MRCHDU: Convergence failed at  80  side 2    Res =  0.1883E+03
 MRCHDU: Convergence failed at  81  side 2    Res =  0.5733E+01
 MRCHDU: Convergence failed at  82  side 2    Res =  0.6677E+01
 Side 1  free  transition at x/c =  0.6574   56
 Side 2  free  transition at x/c =  0.9453   77

  52   rms: 0.1730E+00   max: 0.1217E+01   D at   82  2
       a = -0.500      CL =  0.0874
      Cm = -0.0117     CD =  0.00626   =>   CDf =  0.00459    CDp =  0.00167

 Side 1  free  transition at x/c =  0.6558   56
 Side 2  free  transition at x/c =  0.9186   75

  53   rms: 0.7455E-01   max: -.5177E+00   D at   79  2   RLX: 0.966
       a = -0.500      CL =  0.0445
      Cm = -0.0027     CD =  0.00710   =>   CDf =  0.00463    CDp =  0.00247

 MRCHDU: Convergence failed at  77  side 2    Res =  0.1112E+02
 MRCHDU: Convergence failed at  78  side 2    Res =  0.1084E+02
 MRCHDU: Convergence failed at  79  side 2    Res =  0.8972E+01
 MRCHDU: Convergence failed at  80  side 2    Res =  0.1879E+03
 MRCHDU: Convergence failed at  81  side 2    Res =  0.5733E+01
 MRCHDU: Convergence failed at  82  side 2    Res =  0.6677E+01
 Side 1  free  transition at x/c =  0.6574   56
 Side 2  free  transition at x/c =  0.9453   77

  54   rms: 0.1730E+00   max: 0.1217E+01   D at   82  2
       a = -0.500      CL =  0.0874
      Cm = -0.0117     CD =  0.00626   =>   CDf =  0.00459    CDp =  0.00167

 Side 1  free  transition at x/c =  0.6558   56
 Side 2  free  transition at x/c =  0.9186   75

  55   rms: 0.7455E-01   max: -.5177E+00   D at   79  2   RLX: 0.966
       a = -0.500      CL =  0.0445
      Cm = -0.0027     CD =  0.00710   =>   CDf =  0.00463    CDp =  0.00247

 MRCHDU: Convergence failed at  77  side 2    Res =  0.1112E+02
 MRCHDU: Convergence failed at  78  side 2    Res =  0.1084E+02
 MRCHDU: Convergence failed at  79  side 2    Res =  0.8970E+01
 MRCHDU: Convergence failed at  80  side 2    Res =  0.1884E+03
 MRCHDU: Convergence failed at  81  side 2    Res =  0.5734E+01
 MRCHDU: Convergence failed at  82  side 2    Res =  0.6677E+01
 Side 1  free  transition at x/c =  0.6574   56
 Side 2  free  transition at x/c =  0.9453   77

  56   rms: 0.1730E+00   max: 0.1217E+01   D at   82  2
       a = -0.500      CL =  0.0874
      Cm = -0.0117     CD =  0.00626   =>   CDf =  0.00459    CDp =  0.00167

 Side 1  free  transition at x/c =  0.6558   56
 Side 2  free  transition at x/c =  0.9186   75

  57   rms: 0.7455E-01   max: -.5177E+00   D at   79  2   RLX: 0.966
       a = -0.500      CL =  0.0445
      Cm = -0.0027     CD =  0.00710   =>   CDf =  0.00463    CDp =  0.00247

 MRCHDU: Convergence failed at  77  side 2    Res =  0.1115E+02
 MRCHDU: Convergence failed at  78  side 2    Res =  0.1084E+02
 MRCHDU: Convergence failed at  79  side 2    Res =  0.8970E+01
 MRCHDU: Convergence failed at  80  side 2    Res =  0.1884E+03
 MRCHDU: Convergence failed at  81  side 2    Res =  0.5734E+01
 MRCHDU: Convergence failed at  82  side 2    Res =  0.6677E+01
 Side 1  free  transition at x/c =  0.6574   56
 Side 2  free  transition at x/c =  0.9453   77

  58   rms: 0.1730E+00   max: 0.1217E+01   D at   82  2
       a = -0.500      CL =  0.0874
      Cm = -0.0117     CD =  0.00626   =>   CDf =  0.00459    CDp =  0.00167

 Side 1  free  transition at x/c =  0.6558   56
 Side 2  free  transition at x/c =  0.9186   75

  59   rms: 0.7455E-01   max: -.5177E+00   D at   79  2   RLX: 0.966
       a = -0.500      CL =  0.0445
      Cm = -0.0027     CD =  0.00710   =>   CDf =  0.00463    CDp =  0.00247

 MRCHDU: Convergence failed at  77  side 2    Res =  0.1110E+02
 MRCHDU: Convergence failed at  78  side 2    Res =  0.1084E+02
 MRCHDU: Convergence failed at  79  side 2    Res =  0.8972E+01
 MRCHDU: Convergence failed at  80  side 2    Res =  0.1878E+03
 MRCHDU: Convergence failed at  81  side 2    Res =  0.5733E+01
 MRCHDU: Convergence failed at  82  side 2    Res =  0.6677E+01
 Side 1  free  transition at x/c =  0.6574   56
 Side 2  free  transition at x/c =  0.9453   77

  60   rms: 0.1730E+00   max: 0.1217E+01   D at   82  2
       a = -0.500      CL =  0.0874
      Cm = -0.0117     CD =  0.00626   =>   CDf =  0.00459    CDp =  0.00167

 Side 1  free  transition at x/c =  0.6558   56
 Side 2  free  transition at x/c =  0.9186   75

  61   rms: 0.7455E-01   max: -.5177E+00   D at   79  2   RLX: 0.966
       a = -0.500      CL =  0.0445
      Cm = -0.0027     CD =  0.00710   =>   CDf =  0.00463    CDp =  0.00247

 MRCHDU: Convergence failed at  77  side 2    Res =  0.1114E+02
 MRCHDU: Convergence failed at  78  side 2    Res =  0.1084E+02
 MRCHDU: Convergence failed at  79  side 2    Res =  0.8970E+01
 MRCHDU: Convergence failed at  80  side 2    Res =  0.1886E+03
 MRCHDU: Convergence failed at  81  side 2    Res =  0.5734E+01
 MRCHDU: Convergence failed at  82  side 2    Res =  0.6677E+01
 Side 1  free  transition at x/c =  0.6574   56
 Side 2  free  transition at x/c =  0.9453   77

  62   rms: 0.1730E+00   max: 0.1217E+01   D at   82  2
       a = -0.500      CL =  0.0874
      Cm = -0.0117     CD =  0.00626   =>   CDf =  0.00459    CDp =  0.00167

 Side 1  free  transition at x/c =  0.6558   56
 Side 2  free  transition at x/c =  0.9186   75

  63   rms: 0.7456E-01   max: -.5178E+00   D at   79  2   RLX: 0.966
       a = -0.500      CL =  0.0445
      Cm = -0.0027     CD =  0.00710   =>   CDf =  0.00463    CDp =  0.00247

 MRCHDU: Convergence failed at  77  side 2    Res =  0.1116E+02
 MRCHDU: Convergence failed at  78  side 2    Res =  0.1084E+02
 MRCHDU: Convergence failed at  79  side 2    Res =  0.8970E+01
 MRCHDU: Convergence failed at  80  side 2    Res =  0.1884E+03
 MRCHDU: Convergence failed at  81  side 2    Res =  0.5734E+01
 MRCHDU: Convergence failed at  82  side 2    Res =  0.6677E+01
 Side 1  free  transition at x/c =  0.6574   56
 Side 2  free  transition at x/c =  0.9453   77

  64   rms: 0.1730E+00   max: 0.1217E+01   D at   82  2
       a = -0.500      CL =  0.0874
      Cm = -0.0117     CD =  0.00626   =>   CDf =  0.00459    CDp =  0.00167

 Side 1  free  transition at x/c =  0.6558   56
 Side 2  free  transition at x/c =  0.9186   75

  65   rms: 0.7455E-01   max: -.5177E+00   D at   79  2   RLX: 0.966
       a = -0.500      CL =  0.0445
      Cm = -0.0027     CD =  0.00710   =>   CDf =  0.00463    CDp =  0.00247

 MRCHDU: Convergence failed at  77  side 2    Res =  0.1114E+02
 MRCHDU: Convergence failed at  78  side 2    Res =  0.1084E+02
 MRCHDU: Convergence failed at  79  side 2    Res =  0.8971E+01
 MRCHDU: Convergence failed at  80  side 2    Res =  0.1880E+03
 MRCHDU: Convergence failed at  81  side 2    Res =  0.5733E+01
 MRCHDU: Convergence failed at  82  side 2    Res =  0.6677E+01
 Side 1  free  transition at x/c =  0.6574   56
 Side 2  free  transition at x/c =  0.9453   77

  66   rms: 0.1730E+00   max: 0.1217E+01   D at   82  2
       a = -0.500      CL =  0.0874
      Cm = -0.0117     CD =  0.00626   =>   CDf =  0.00459    CDp =  0.00167

 Side 1  free  transition at x/c =  0.6558   56
 Side 2  free  transition at x/c =  0.9186   75

  67   rms: 0.7455E-01   max: -.5177E+00   D at   79  2   RLX: 0.966
       a = -0.500      CL =  0.0445
      Cm = -0.0027     CD =  0.00710   =>   CDf =  0.00463    CDp =  0.00247

 MRCHDU: Convergence failed at  77  side 2    Res =  0.1113E+02
 MRCHDU: Convergence failed at  78  side 2    Res =  0.1084E+02
 MRCHDU: Convergence failed at  79  side 2    Res =  0.8971E+01
 MRCHDU: Convergence failed at  80  side 2    Res =  0.1883E+03
 MRCHDU: Convergence failed at  81  side 2    Res =  0.5734E+01
 MRCHDU: Convergence failed at  82  side 2    Res =  0.6677E+01
 Side 1  free  transition at x/c =  0.6574   56
 Side 2  free  transition at x/c =  0.9453   77

  68   rms: 0.1730E+00   max: 0.1217E+01   D at   82  2
       a = -0.500      CL =  0.0874
      Cm = -0.0117     CD =  0.00626   =>   CDf =  0.00459    CDp =  0.00167

 Side 1  free  transition at x/c =  0.6558   56
 Side 2  free  transition at x/c =  0.9186   75

  69   rms: 0.7456E-01   max: -.5178E+00   D at   79  2   RLX: 0.966
       a = -0.500      CL =  0.0445
      Cm = -0.0027     CD =  0.00710   =>   CDf =  0.00463    CDp =  0.00247

 MRCHDU: Convergence failed at  77  side 2    Res =  0.1116E+02
 MRCHDU: Convergence failed at  78  side 2    Res =  0.1084E+02
 MRCHDU: Convergence failed at  79  side 2    Res =  0.8970E+01
 MRCHDU: Convergence failed at  80  side 2    Res =  0.1884E+03
 MRCHDU: Convergence failed at  81  side 2    Res =  0.5734E+01
 MRCHDU: Convergence failed at  82  side 2    Res =  0.6677E+01
 Side 1  free  transition at x/c =  0.6574   56
 Side 2  free  transition at x/c =  0.9453   77

  70   rms: 0.1730E+00   max: 0.1217E+01   D at   82  2
       a = -0.500      CL =  0.0874
      Cm = -0.0117     CD =  0.00626   =>   CDf =  0.00459    CDp =  0.00167

 Side 1  free  transition at x/c =  0.6558   56
 Side 2  free  transition at x/c =  0.9186   75

  71   rms: 0.7455E-01   max: -.5177E+00   D at   79  2   RLX: 0.966
       a = -0.500      CL =  0.0445
      Cm = -0.0027     CD =  0.00710   =>   CDf =  0.00463    CDp =  0.00247

 MRCHDU: Convergence failed at  77  side 2    Res =  0.1114E+02
 MRCHDU: Convergence failed at  78  side 2    Res =  0.1084E+02
 MRCHDU: Convergence failed at  79  side 2    Res =  0.8971E+01
 MRCHDU: Convergence failed at  80  side 2    Res =  0.1881E+03
 MRCHDU: Convergence failed at  81  side 2    Res =  0.5733E+01
 MRCHDU: Convergence failed at  82  side 2    Res =  0.6677E+01
 Side 1  free  transition at x/c =  0.6574   56
 Side 2  free  transition at x/c =  0.9453   77

  72   rms: 0.1730E+00   max: 0.1217E+01   D at   82  2
       a = -0.500      CL =  0.0874
      Cm = -0.0117     CD =  0.00626   =>   CDf =  0.00459    CDp =  0.00167

 Side 1  free  transition at x/c =  0.6558   56
 Side 2  free  transition at x/c =  0.9186   75

  73   rms: 0.7455E-01   max: -.5177E+00   D at   79  2   RLX: 0.966
       a = -0.500      CL =  0.0445
      Cm = -0.0027     CD =  0.00710   =>   CDf =  0.00463    CDp =  0.00247

 MRCHDU: Convergence failed at  77  side 2    Res =  0.1115E+02
 MRCHDU: Convergence failed at  78  side 2    Res =  0.1084E+02
 MRCHDU: Convergence failed at  79  side 2    Res =  0.8971E+01
 MRCHDU: Convergence failed at  80  side 2    Res =  0.1883E+03
 MRCHDU: Convergence failed at  81  side 2    Res =  0.5733E+01
 MRCHDU: Convergence failed at  82  side 2    Res =  0.6677E+01
 Side 1  free  transition at x/c =  0.6574   56
 Side 2  free  transition at x/c =  0.9453   77

  74   rms: 0.1730E+00   max: 0.1217E+01   D at   82  2
       a = -0.500      CL =  0.0874
      Cm = -0.0117     CD =  0.00626   =>   CDf =  0.00459    CDp =  0.00167

 Side 1  free  transition at x/c =  0.6558   56
 Side 2  free  transition at x/c =  0.9186   75

  75   rms: 0.7455E-01   max: -.5177E+00   D at   79  2   RLX: 0.966
       a = -0.500      CL =  0.0445
      Cm = -0.0027     CD =  0.00710   =>   CDf =  0.00463    CDp =  0.00247

 MRCHDU: Convergence failed at  77  side 2    Res =  0.1111E+02
 MRCHDU: Convergence failed at  78  side 2    Res =  0.1084E+02
 MRCHDU: Convergence failed at  79  side 2    Res =  0.8972E+01
 MRCHDU: Convergence failed at  80  side 2    Res =  0.1880E+03
 MRCHDU: Convergence failed at  81  side 2    Res =  0.5733E+01
 MRCHDU: Convergence failed at  82  side 2    Res =  0.6677E+01
 Side 1  free  transition at x/c =  0.6574   56
 Side 2  free  transition at x/c =  0.9453   77

  76   rms: 0.1730E+00   max: 0.1217E+01   D at   82  2
       a = -0.500      CL =  0.0874
      Cm = -0.0117     CD =  0.00626   =>   CDf =  0.00459    CDp =  0.00167

 Side 1  free  transition at x/c =  0.6558   56
 Side 2  free  transition at x/c =  0.9186   75

  77   rms: 0.7455E-01   max: -.5177E+00   D at   79  2   RLX: 0.966
       a = -0.500      CL =  0.0445
      Cm = -0.0027     CD =  0.00710   =>   CDf =  0.00463    CDp =  0.00247

 MRCHDU: Convergence failed at  77  side 2    Res =  0.1112E+02
 MRCHDU: Convergence failed at  78  side 2    Res =  0.1084E+02
 MRCHDU: Convergence failed at  79  side 2    Res =  0.8971E+01
 MRCHDU: Convergence failed at  80  side 2    Res =  0.1883E+03
 MRCHDU: Convergence failed at  81  side 2    Res =  0.5734E+01
 MRCHDU: Convergence failed at  82  side 2    Res =  0.6677E+01
 Side 1  free  transition at x/c =  0.6574   56
 Side 2  free  transition at x/c =  0.9453   77

  78   rms: 0.1730E+00   max: 0.1217E+01   D at   82  2
       a = -0.500      CL =  0.0874
      Cm = -0.0117     CD =  0.00626   =>   CDf =  0.00459    CDp =  0.00167

 Side 1  free  transition at x/c =  0.6558   56
 Side 2  free  transition at x/c =  0.9186   75

  79   rms: 0.7455E-01   max: -.5177E+00   D at   79  2   RLX: 0.966
       a = -0.500      CL =  0.0445
      Cm = -0.0027     CD =  0.00710   =>   CDf =  0.00463    CDp =  0.00247

 MRCHDU: Convergence failed at  77  side 2    Res =  0.1114E+02
 MRCHDU: Convergence failed at  78  side 2    Res =  0.1084E+02
 MRCHDU: Convergence failed at  79  side 2    Res =  0.8970E+01
 MRCHDU: Convergence failed at  80  side 2    Res =  0.1884E+03
 MRCHDU: Convergence failed at  81  side 2    Res =  0.5734E+01
 MRCHDU: Convergence failed at  82  side 2    Res =  0.6677E+01
 Side 1  free  transition at x/c =  0.6574   56
 Side 2  free  transition at x/c =  0.9453   77

  80   rms: 0.1730E+00   max: 0.1217E+01   D at   82  2
       a = -0.500      CL =  0.0874
      Cm = -0.0117     CD =  0.00626   =>   CDf =  0.00459    CDp =  0.00167

 Side 1  free  transition at x/c =  0.6558   56
 Side 2  free  transition at x/c =  0.9186   75

  81   rms: 0.7455E-01   max: -.5177E+00   D at   79  2   RLX: 0.966
       a = -0.500      CL =  0.0445
      Cm = -0.0027     CD =  0.00710   =>   CDf =  0.00463    CDp =  0.00247

 MRCHDU: Convergence failed at  77  side 2    Res =  0.1112E+02
 MRCHDU: Convergence failed at  78  side 2    Res =  0.1084E+02
 MRCHDU: Convergence failed at  79  side 2    Res =  0.8971E+01
 MRCHDU: Convergence failed at  80  side 2    Res =  0.1880E+03
 MRCHDU: Convergence failed at  81  side 2    Res =  0.5733E+01
 MRCHDU: Convergence failed at  82  side 2    Res =  0.6677E+01
 Side 1  free  transition at x/c =  0.6574   56
 Side 2  free  transition at x/c =  0.9453   77

  82   rms: 0.1730E+00   max: 0.1217E+01   D at   82  2
       a = -0.500      CL =  0.0874
      Cm = -0.0117     CD =  0.00626   =>   CDf =  0.00459    CDp =  0.00167

 Side 1  free  transition at x/c =  0.6558   56
 Side 2  free  transition at x/c =  0.9186   75

  83   rms: 0.7455E-01   max: -.5177E+00   D at   79  2   RLX: 0.966
       a = -0.500      CL =  0.0445
      Cm = -0.0027     CD =  0.00710   =>   CDf =  0.00463    CDp =  0.00247

 MRCHDU: Convergence failed at  77  side 2    Res =  0.1113E+02
 MRCHDU: Convergence failed at  78  side 2    Res =  0.1084E+02
 MRCHDU: Convergence failed at  79  side 2    Res =  0.8971E+01
 MRCHDU: Convergence failed at  80  side 2    Res =  0.1883E+03
 MRCHDU: Convergence failed at  81  side 2    Res =  0.5734E+01
 MRCHDU: Convergence failed at  82  side 2    Res =  0.6677E+01
 Side 1  free  transition at x/c =  0.6574   56
 Side 2  free  transition at x/c =  0.9453   77

  84   rms: 0.1730E+00   max: 0.1217E+01   D at   82  2
       a = -0.500      CL =  0.0874
      Cm = -0.0117     CD =  0.00626   =>   CDf =  0.00459    CDp =  0.00167

 Side 1  free  transition at x/c =  0.6558   56
 Side 2  free  transition at x/c =  0.9186   75

  85   rms: 0.7455E-01   max: -.5177E+00   D at   79  2   RLX: 0.966
       a = -0.500      CL =  0.0445
      Cm = -0.0027     CD =  0.00710   =>   CDf =  0.00463    CDp =  0.00247

 MRCHDU: Convergence failed at  77  side 2    Res =  0.1115E+02
 MRCHDU: Convergence failed at  78  side 2    Res =  0.1084E+02
 MRCHDU: Convergence failed at  79  side 2    Res =  0.8970E+01
 MRCHDU: Convergence failed at  80  side 2    Res =  0.1885E+03
 MRCHDU: Convergence failed at  81  side 2    Res =  0.5734E+01
 MRCHDU: Convergence failed at  82  side 2    Res =  0.6677E+01
 Side 1  free  transition at x/c =  0.6574   56
 Side 2  free  transition at x/c =  0.9453   77

  86   rms: 0.1730E+00   max: 0.1217E+01   D at   82  2
       a = -0.500      CL =  0.0874
      Cm = -0.0117     CD =  0.00626   =>   CDf =  0.00459    CDp =  0.00167

 Side 1  free  transition at x/c =  0.6558   56
 Side 2  free  transition at x/c =  0.9186   75

  87   rms: 0.7455E-01   max: -.5177E+00   D at   79  2   RLX: 0.966
       a = -0.500      CL =  0.0445
      Cm = -0.0027     CD =  0.00710   =>   CDf =  0.00463    CDp =  0.00247

 MRCHDU: Convergence failed at  77  side 2    Res =  0.1115E+02
 MRCHDU: Convergence failed at  78  side 2    Res =  0.1084E+02
 MRCHDU: Convergence failed at  79  side 2    Res =  0.8971E+01
 MRCHDU: Convergence failed at  80  side 2    Res =  0.1882E+03
 MRCHDU: Convergence failed at  81  side 2    Res =  0.5733E+01
 MRCHDU: Convergence failed at  82  side 2    Res =  0.6677E+01
 Side 1  free  transition at x/c =  0.6574   56
 Side 2  free  transition at x/c =  0.9453   77

  88   rms: 0.1730E+00   max: 0.1217E+01   D at   82  2
       a = -0.500      CL =  0.0874
      Cm = -0.0117     CD =  0.00626   =>   CDf =  0.00459    CDp =  0.00167

 Side 1  free  transition at x/c =  0.6558   56
 Side 2  free  transition at x/c =  0.9186   75

  89   rms: 0.7455E-01   max: -.5177E+00   D at   79  2   RLX: 0.966
       a = -0.500      CL =  0.0445
      Cm = -0.0027     CD =  0.00710   =>   CDf =  0.00463    CDp =  0.00247

 MRCHDU: Convergence failed at  77  side 2    Res =  0.1111E+02
 MRCHDU: Convergence failed at  78  side 2    Res =  0.1084E+02
 MRCHDU: Convergence failed at  79  side 2    Res =  0.8972E+01
 MRCHDU: Convergence failed at  80  side 2    Res =  0.1878E+03
 MRCHDU: Convergence failed at  81  side 2    Res =  0.5733E+01
 MRCHDU: Convergence failed at  82  side 2    Res =  0.6677E+01
 Side 1  free  transition at x/c =  0.6574   56
 Side 2  free  transition at x/c =  0.9453   77

  90   rms: 0.1730E+00   max: 0.1217E+01   D at   82  2
       a = -0.500      CL =  0.0874
      Cm = -0.0117     CD =  0.00626   =>   CDf =  0.00459    CDp =  0.00167

 Side 1  free  transition at x/c =  0.6558   56
 Side 2  free  transition at x/c =  0.9186   75

  91   rms: 0.7456E-01   max: -.5178E+00   D at   79  2   RLX: 0.966
       a = -0.500      CL =  0.0445
      Cm = -0.0027     CD =  0.00710   =>   CDf =  0.00463    CDp =  0.00247

 MRCHDU: Convergence failed at  77  side 2    Res =  0.1119E+02
 MRCHDU: Convergence failed at  78  side 2    Res =  0.1084E+02
 MRCHDU: Convergence failed at  79  side 2    Res =  0.8969E+01
 MRCHDU: Convergence failed at  80  side 2    Res =  0.1888E+03
 MRCHDU: Convergence failed at  81  side 2    Res =  0.5734E+01
 MRCHDU: Convergence failed at  82  side 2    Res =  0.6677E+01
 Side 1  free  transition at x/c =  0.6574   56
 Side 2  free  transition at x/c =  0.9453   77

  92   rms: 0.1730E+00   max: 0.1217E+01   D at   82  2
       a = -0.500      CL =  0.0874
      Cm = -0.0117     CD =  0.00626   =>   CDf =  0.00459    CDp =  0.00167

 Side 1  free  transition at x/c =  0.6558   56
 Side 2  free  transition at x/c =  0.9186   75

  93   rms: 0.7455E-01   max: -.5177E+00   D at   79  2   RLX: 0.966
       a = -0.500      CL =  0.0445
      Cm = -0.0027     CD =  0.00710   =>   CDf =  0.00463    CDp =  0.00247

 MRCHDU: Convergence failed at  77  side 2    Res =  0.1109E+02
 MRCHDU: Convergence failed at  78  side 2    Res =  0.1085E+02
 MRCHDU: Convergence failed at  79  side 2    Res =  0.8973E+01
 MRCHDU: Convergence failed at  80  side 2    Res =  0.1874E+03
 MRCHDU: Convergence failed at  81  side 2    Res =  0.5733E+01
 MRCHDU: Convergence failed at  82  side 2    Res =  0.6677E+01
 Side 1  free  transition at x/c =  0.6574   56
 Side 2  free  transition at x/c =  0.9453   77

  94   rms: 0.1730E+00   max: 0.1217E+01   D at   82  2
       a = -0.500      CL =  0.0874
      Cm = -0.0117     CD =  0.00626   =>   CDf =  0.00459    CDp =  0.00167

 Side 1  free  transition at x/c =  0.6558   56
 Side 2  free  transition at x/c =  0.9186   75

  95   rms: 0.7455E-01   max: -.5177E+00   D at   79  2   RLX: 0.966
       a = -0.500      CL =  0.0445
      Cm = -0.0027     CD =  0.00710   =>   CDf =  0.00463    CDp =  0.00247

 MRCHDU: Convergence failed at  77  side 2    Res =  0.1116E+02
 MRCHDU: Convergence failed at  78  side 2    Res =  0.1084E+02
 MRCHDU: Convergence failed at  79  side 2    Res =  0.8969E+01
 MRCHDU: Convergence failed at  80  side 2    Res =  0.1889E+03
 MRCHDU: Convergence failed at  81  side 2    Res =  0.5734E+01
 MRCHDU: Convergence failed at  82  side 2    Res =  0.6677E+01
 Side 1  free  transition at x/c =  0.6574   56
 Side 2  free  transition at x/c =  0.9453   77

  96   rms: 0.1730E+00   max: 0.1217E+01   D at   82  2
       a = -0.500      CL =  0.0874
      Cm = -0.0117     CD =  0.00626   =>   CDf =  0.00459    CDp =  0.00167

 Side 1  free  transition at x/c =  0.6558   56
 Side 2  free  transition at x/c =  0.9186   75

  97   rms: 0.7456E-01   max: -.5177E+00   D at   79  2   RLX: 0.966
       a = -0.500      CL =  0.0445
      Cm = -0.0027     CD =  0.00710   =>   CDf =  0.00463    CDp =  0.00247

 MRCHDU: Convergence failed at  77  side 2    Res =  0.1114E+02
 MRCHDU: Convergence failed at  78  side 2    Res =  0.1084E+02
 MRCHDU: Convergence failed at  79  side 2    Res =  0.8971E+01
 MRCHDU: Convergence failed at  80  side 2    Res =  0.1881E+03
 MRCHDU: Convergence failed at  81  side 2    Res =  0.5733E+01
 MRCHDU: Convergence failed at  82  side 2    Res =  0.6677E+01
 Side 1  free  transition at x/c =  0.6574   56
 Side 2  free  transition at x/c =  0.9453   77

  98   rms: 0.1730E+00   max: 0.1217E+01   D at   82  2
       a = -0.500      CL =  0.0874
      Cm = -0.0117     CD =  0.00626   =>   CDf =  0.00459    CDp =  0.00167

 Side 1  free  transition at x/c =  0.6558   56
 Side 2  free  transition at x/c =  0.9186   75

  99   rms: 0.7455E-01   max: -.5177E+00   D at   79  2   RLX: 0.966
       a = -0.500      CL =  0.0445
      Cm = -0.0027     CD =  0.00710   =>   CDf =  0.00463    CDp =  0.00247

 MRCHDU: Convergence failed at  77  side 2    Res =  0.1113E+02
 MRCHDU: Convergence failed at  78  side 2    Res =  0.1084E+02
 MRCHDU: Convergence failed at  79  side 2    Res =  0.8971E+01
 MRCHDU: Convergence failed at  80  side 2    Res =  0.1880E+03
 MRCHDU: Convergence failed at  81  side 2    Res =  0.5733E+01
 MRCHDU: Convergence failed at  82  side 2    Res =  0.6677E+01
 Side 1  free  transition at x/c =  0.6574   56
 Side 2  free  transition at x/c =  0.9453   77

 100   rms: 0.1730E+00   max: 0.1217E+01   D at   82  2
       a = -0.500      CL =  0.0874
      Cm = -0.0117     CD =  0.00626   =>   CDf =  0.00459    CDp =  0.00167

 Side 1  free  transition at x/c =  0.6558   56
 Side 2  free  transition at x/c =  0.9186   75

 101   rms: 0.7455E-01   max: -.5177E+00   D at   79  2   RLX: 0.966
       a = -0.500      CL =  0.0445
      Cm = -0.0027     CD =  0.00710   =>   CDf =  0.00463    CDp =  0.00247

 MRCHDU: Convergence failed at  77  side 2    Res =  0.1114E+02
 MRCHDU: Convergence failed at  78  side 2    Res =  0.1084E+02
 MRCHDU: Convergence failed at  79  side 2    Res =  0.8971E+01
 MRCHDU: Convergence failed at  80  side 2    Res =  0.1883E+03
 MRCHDU: Convergence failed at  81  side 2    Res =  0.5733E+01
 MRCHDU: Convergence failed at  82  side 2    Res =  0.6677E+01
 Side 1  free  transition at x/c =  0.6574   56
 Side 2  free  transition at x/c =  0.9453   77

 102   rms: 0.1730E+00   max: 0.1217E+01   D at   82  2
       a = -0.500      CL =  0.0874
      Cm = -0.0117     CD =  0.00626   =>   CDf =  0.00459    CDp =  0.00167

 Side 1  free  transition at x/c =  0.6558   56
 Side 2  free  transition at x/c =  0.9186   75

 103   rms: 0.7455E-01   max: -.5177E+00   D at   79  2   RLX: 0.966
       a = -0.500      CL =  0.0445
      Cm = -0.0027     CD =  0.00710   =>   CDf =  0.00463    CDp =  0.00247

 MRCHDU: Convergence failed at  77  side 2    Res =  0.1114E+02
 MRCHDU: Convergence failed at  78  side 2    Res =  0.1084E+02
 MRCHDU: Convergence failed at  79  side 2    Res =  0.8971E+01
 MRCHDU: Convergence failed at  80  side 2    Res =  0.1882E+03
 MRCHDU: Convergence failed at  81  side 2    Res =  0.5733E+01
 MRCHDU: Convergence failed at  82  side 2    Res =  0.6677E+01
 Side 1  free  transition at x/c =  0.6574   56
 Side 2  free  transition at x/c =  0.9453   77

 104   rms: 0.1730E+00   max: 0.1217E+01   D at   82  2
       a = -0.500      CL =  0.0874
      Cm = -0.0117     CD =  0.00626   =>   CDf =  0.00459    CDp =  0.00167

 Side 1  free  transition at x/c =  0.6558   56
 Side 2  free  transition at x/c =  0.9186   75

 105   rms: 0.7455E-01   max: -.5177E+00   D at   79  2   RLX: 0.966
       a = -0.500      CL =  0.0445
      Cm = -0.0027     CD =  0.00710   =>   CDf =  0.00463    CDp =  0.00247

 MRCHDU: Convergence failed at  77  side 2    Res =  0.1111E+02
 MRCHDU: Convergence failed at  78  side 2    Res =  0.1084E+02
 MRCHDU: Convergence failed at  79  side 2    Res =  0.8971E+01
 MRCHDU: Convergence failed at  80  side 2    Res =  0.1881E+03
 MRCHDU: Convergence failed at  81  side 2    Res =  0.5733E+01
 MRCHDU: Convergence failed at  82  side 2    Res =  0.6677E+01
 Side 1  free  transition at x/c =  0.6574   56
 Side 2  free  transition at x/c =  0.9453   77

 106   rms: 0.1730E+00   max: 0.1217E+01   D at   82  2
       a = -0.500      CL =  0.0874
      Cm = -0.0117     CD =  0.00626   =>   CDf =  0.00459    CDp =  0.00167

 Side 1  free  transition at x/c =  0.6558   56
 Side 2  free  transition at x/c =  0.9186   75

 107   rms: 0.7455E-01   max: -.5177E+00   D at   79  2   RLX: 0.966
       a = -0.500      CL =  0.0445
      Cm = -0.0027     CD =  0.00710   =>   CDf =  0.00463    CDp =  0.00247

 MRCHDU: Convergence failed at  77  side 2    Res =  0.1112E+02
 MRCHDU: Convergence failed at  78  side 2    Res =  0.1084E+02
 MRCHDU: Convergence failed at  79  side 2    Res =  0.8970E+01
 MRCHDU: Convergence failed at  80  side 2    Res =  0.1884E+03
 MRCHDU: Convergence failed at  81  side 2    Res =  0.5734E+01
 MRCHDU: Convergence failed at  82  side 2    Res =  0.6677E+01
 Side 1  free  transition at x/c =  0.6574   56
 Side 2  free  transition at x/c =  0.9453   77

 108   rms: 0.1730E+00   max: 0.1217E+01   D at   82  2
       a = -0.500      CL =  0.0874
      Cm = -0.0117     CD =  0.00626   =>   CDf =  0.00459    CDp =  0.00167

 Side 1  free  transition at x/c =  0.6558   56
 Side 2  free  transition at x/c =  0.9186   75

 109   rms: 0.7455E-01   max: -.5177E+00   D at   79  2   RLX: 0.966
       a = -0.500      CL =  0.0445
      Cm = -0.0027     CD =  0.00710   =>   CDf =  0.00463    CDp =  0.00247

 MRCHDU: Convergence failed at  77  side 2    Res =  0.1114E+02
 MRCHDU: Convergence failed at  78  side 2    Res =  0.1084E+02
 MRCHDU: Convergence failed at  79  side 2    Res =  0.8970E+01
 MRCHDU: Convergence failed at  80  side 2    Res =  0.1885E+03
 MRCHDU: Convergence failed at  81  side 2    Res =  0.5734E+01
 MRCHDU: Convergence failed at  82  side 2    Res =  0.6677E+01
 Side 1  free  transition at x/c =  0.6574   56
 Side 2  free  transition at x/c =  0.9453   77

 110   rms: 0.1730E+00   max: 0.1217E+01   D at   82  2
       a = -0.500      CL =  0.0874
      Cm = -0.0117     CD =  0.00626   =>   CDf =  0.00459    CDp =  0.00167

 Side 1  free  transition at x/c =  0.6558   56
 Side 2  free  transition at x/c =  0.9186   75

 111   rms: 0.7455E-01   max: -.5177E+00   D at   79  2   RLX: 0.966
       a = -0.500      CL =  0.0445
      Cm = -0.0027     CD =  0.00710   =>   CDf =  0.00463    CDp =  0.00247

 MRCHDU: Convergence failed at  77  side 2    Res =  0.1111E+02
 MRCHDU: Convergence failed at  78  side 2    Res =  0.1084E+02
 MRCHDU: Convergence failed at  79  side 2    Res =  0.8971E+01
 MRCHDU: Convergence failed at  80  side 2    Res =  0.1880E+03
 MRCHDU: Convergence failed at  81  side 2    Res =  0.5733E+01
 MRCHDU: Convergence failed at  82  side 2    Res =  0.6677E+01
 Side 1  free  transition at x/c =  0.6574   56
 Side 2  free  transition at x/c =  0.9453   77

 112   rms: 0.1730E+00   max: 0.1217E+01   D at   82  2
       a = -0.500      CL =  0.0874
      Cm = -0.0117     CD =  0.00626   =>   CDf =  0.00459    CDp =  0.00167

 Side 1  free  transition at x/c =  0.6558   56
 Side 2  free  transition at x/c =  0.9186   75

 113   rms: 0.7456E-01   max: -.5177E+00   D at   79  2   RLX: 0.966
       a = -0.500      CL =  0.0445
      Cm = -0.0027     CD =  0.00710   =>   CDf =  0.00463    CDp =  0.00247

 MRCHDU: Convergence failed at  77  side 2    Res =  0.1116E+02
 MRCHDU: Convergence failed at  78  side 2    Res =  0.1084E+02
 MRCHDU: Convergence failed at  79  side 2    Res =  0.8970E+01
 MRCHDU: Convergence failed at  80  side 2    Res =  0.1887E+03
 MRCHDU: Convergence failed at  81  side 2    Res =  0.5734E+01
 MRCHDU: Convergence failed at  82  side 2    Res =  0.6677E+01
 Side 1  free  transition at x/c =  0.6574   56
 Side 2  free  transition at x/c =  0.9453   77

 114   rms: 0.1730E+00   max: 0.1217E+01   D at   82  2
       a = -0.500      CL =  0.0874
      Cm = -0.0117     CD =  0.00626   =>   CDf =  0.00459    CDp =  0.00167

 Side 1  free  transition at x/c =  0.6558   56
 Side 2  free  transition at x/c =  0.9186   75

 115   rms: 0.7456E-01   max: -.5178E+00   D at   79  2   RLX: 0.966
       a = -0.500      CL =  0.0445
      Cm = -0.0027     CD =  0.00710   =>   CDf =  0.00463    CDp =  0.00247

 MRCHDU: Convergence failed at  77  side 2    Res =  0.1117E+02
 MRCHDU: Convergence failed at  78  side 2    Res =  0.1084E+02
 MRCHDU: Convergence failed at  79  side 2    Res =  0.8971E+01
 MRCHDU: Convergence failed at  80  side 2    Res =  0.1881E+03
 MRCHDU: Convergence failed at  81  side 2    Res =  0.5733E+01
 MRCHDU: Convergence failed at  82  side 2    Res =  0.6677E+01
 Side 1  free  transition at x/c =  0.6574   56
 Side 2  free  transition at x/c =  0.9453   77

[...]
 Calculating source influence matrix ...

 Solving BL system ...

 Side 1  free  transition at x/c =  0.0111   22
 Side 2 forced transition at x/c =  1.0000   69

   1   rms: 0.3723E-01   max: 0.1177E+00   D at   23  1   RLX: 0.961
       a = 13.000      CL =  1.0837
      Cm =  0.0369     CD =  0.04147   =>   CDf =  0.00563    CDp =  0.03584

 Side 1  free  transition at x/c =  0.0112   22
 Side 2 forced transition at x/c =  1.0000   69

   2   rms: 0.6042E-02   max: -.2810E-01   D at   24  1
       a = 13.000      CL =  1.0810
      Cm =  0.0369     CD =  0.04153   =>   CDf =  0.00550    CDp =  0.03603

 Side 1  free  transition at x/c =  0.0112   22
 Side 2 forced transition at x/c =  1.0000   69

   3   rms: 0.6111E-03   max: -.2991E-02   D at   69  1
       a = 13.000      CL =  1.0813
      Cm =  0.0369     CD =  0.04147   =>   CDf =  0.00551    CDp =  0.03597

 Side 1  free  transition at x/c =  0.0112   22
 Side 2 forced transition at x/c =  1.0000   69

   4   rms: 0.2399E-04   max: -.1637E-03   D at   80  2
       a = 13.000      CL =  1.0814
      Cm =  0.0369     CD =  0.04148   =>   CDf =  0.00551    CDp =  0.03597
 plradd ia,ip,cpol           41           0  9.68576423E-05

 Point added to stored polar  1
 Point written to save file  tsagi12_Re500k.base.pol                         
 Dump file unspecified or not available
 Calculating wake trajectory ...
 Calculating source influence matrix ...

 Solving BL system ...

 Side 1  free  transition at x/c =  0.0112   22
 Side 2 forced transition at x/c =  1.0000   69

   1   rms: 0.3595E-01   max: 0.2173E+00   T at   22  1   RLX: 0.912
       a = 13.250      CL =  1.0850
      Cm =  0.0372     CD =  0.04349   =>   CDf =  0.00551    CDp =  0.03798

 Side 1  free  transition at x/c =  0.0106   22
 Side 2 forced transition at x/c =  1.0000   69

   2   rms: 0.7028E-02   max: -.4915E-01   D at   23  1
       a = 13.250      CL =  1.0820
      Cm =  0.0376     CD =  0.04365   =>   CDf =  0.00547    CDp =  0.03818

 Side 1  free  transition at x/c =  0.0106   22
 Side 2 forced transition at x/c =  1.0000   69

   3   rms: 0.1259E-02   max: 0.4851E-02   T at   22  1
       a = 13.250      CL =  1.0826
      Cm =  0.0376     CD =  0.04362   =>   CDf =  0.00548    CDp =  0.03814

 Side 1  free  transition at x/c =  0.0106   22
 Side 2 forced transition at x/c =  1.0000   69

   4   rms: 0.5879E-04   max: 0.3924E-03   D at   67  1
       a = 13.250      CL =  1.0826
      Cm =  0.0376     CD =  0.04364   =>   CDf =  0.00549    CDp =  0.03815
 plradd ia,ip,cpol           42           0  9.68576423E-05

 Point added to stored polar  1
 Point written to save file  tsagi12_Re500k.base.pol                         
 Dump file unspecified or not available
 Calculating wake trajectory ...
 Calculating source influence matrix ...

 Solving BL system ...

 Side 1  free  transition at x/c =  0.0106   22
 Side 2 forced transition at x/c =  1.0000   69

   1   rms: 0.3391E-01   max: 0.1317E+00   T at   22  1   RLX: 0.868
       a = 13.500      CL =  1.0865
      Cm =  0.0381     CD =  0.04564   =>   CDf =  0.00549    CDp =  0.04015

 Side 1  free  transition at x/c =  0.0102   22
 Side 2 forced transition at x/c =  1.0000   69

   2   rms: 0.6590E-02   max: 0.3049E-01   D at   81  2
       a = 13.500      CL =  1.0824
      Cm =  0.0390     CD =  0.04615   =>   CDf =  0.00541    CDp =  0.04074

 Side 1  free  transition at x/c =  0.0101   22
 Side 2 forced transition at x/c =  1.0000   69

   3   rms: 0.1907E-02   max: 0.8893E-02   D at   22  1
       a = 13.500      CL =  1.0823
      Cm =  0.0390     CD =  0.04625   =>   CDf =  0.00541    CDp =  0.04084

 Side 1  free  transition at x/c =  0.0101   22
 Side 2 forced transition at x/c =  1.0000   69

   4   rms: 0.4519E-03   max: -.1505E-02   D at   25  1
       a = 13.500      CL =  1.0822
      Cm =  0.0390     CD =  0.04625   =>   CDf =  0.00540    CDp =  0.04085

 Side 1  free  transition at x/c =  0.0101   22
 Side 2 forced transition at x/c =  1.0000   69

   5   rms: 0.7877E-04   max: 0.2921E-03   T at   67  1
       a = 13.500      CL =  1.0822
      Cm =  0.0390     CD =  0.04625   =>   CDf =  0.00541    CDp =  0.04084
 plradd ia,ip,cpol           43           0  9.68576423E-05

 Point added to stored polar  1
 Point written to save file  tsagi12_Re500k.base.pol                         
 Dump file unspecified or not available
 Calculating wake trajectory ...
 Calculating source influence matrix ...

 Solving BL system ...

 Side 1  free  transition at x/c =  0.0101   22
 Side 2 forced transition at x/c =  1.0000   69

   1   rms: 0.5082E-01   max: 0.1659E+00   D at   24  1   RLX: 0.828
       a = 13.750      CL =  1.0873
      Cm =  0.0406     CD =  0.04851   =>   CDf =  0.00541    CDp =  0.04310

 Side 1  free  transition at x/c =  0.0101   22
 Side 2 forced transition at x/c =  1.0000   69

   2   rms: 0.1355E-01   max: 0.6580E-01   D at   67  1
       a = 13.750      CL =  1.0850
      Cm =  0.0403     CD =  0.04903   =>   CDf =  0.00529    CDp =  0.04374

 Side 1  free  transition at x/c =  0.0101   22
 Side 2 forced transition at x/c =  1.0000   69

   3   rms: 0.2134E-02   max: -.7336E-02   D at   24  1
       a = 13.750      CL =  1.0840
      Cm =  0.0403     CD =  0.04885   =>   CDf =  0.00526    CDp =  0.04359

 Side 1  free  transition at x/c =  0.0101   22
 Side 2 forced transition at x/c =  1.0000   69

   4   rms: 0.4011E-03   max: 0.1285E-02   T at   67  1
       a = 13.750      CL =  1.0841
      Cm =  0.0403     CD =  0.04884   =>   CDf =  0.00526    CDp =  0.04358

 Side 1  free  transition at x/c =  0.0101   22
 Side 2 forced transition at x/c =  1.0000   69

   5   rms: 0.5612E-04   max: 0.1995E-03   D at   66  1
       a = 13.750      CL =  1.0841
      Cm =  0.0403     CD =  0.04884   =>   CDf =  0.00526    CDp =  0.04358
 plradd ia,ip,cpol           44           0  9.68576423E-05

 Point added to stored polar  1
 Point written to save file  tsagi12_Re500k.base.pol                         
 Dump file unspecified or not available
 Calculating wake trajectory ...
 Calculating source influence matrix ...

 Solving BL system ...

 Side 1  free  transition at x/c =  0.0101   22
 Side 2 forced transition at x/c =  1.0000   69

   1   rms: 0.6588E-01   max: 0.2153E+00   D at   25  1   RLX: 0.789
       a = 14.000      CL =  1.0871
      Cm =  0.0420     CD =  0.05171   =>   CDf =  0.00526    CDp =  0.04645

 Side 1  free  transition at x/c =  0.0099   21
 Side 2 forced transition at x/c =  1.0000   69

   2   rms: 0.2437E-01   max: 0.1211E+00   D at   67  1
       a = 14.000      CL =  1.0792
      Cm =  0.0411     CD =  0.05265   =>   CDf =  0.00506    CDp =  0.04758

 Side 1  free  transition at x/c =  0.0099   21
 Side 2 forced transition at x/c =  1.0000   69

   3   rms: 0.2262E-02   max: 0.2159E-01   D at   66  1
       a = 14.000      CL =  1.0797
      Cm =  0.0412     CD =  0.05217   =>   CDf =  0.00508    CDp =  0.04709

 Side 1  free  transition at x/c =  0.0099   21
 Side 2 forced transition at x/c =  1.0000   69

   4   rms: 0.2855E-03   max: 0.1025E-02   D at   65  1
       a = 14.000      CL =  1.0795
      Cm =  0.0412     CD =  0.05218   =>   CDf =  0.00507    CDp =  0.04711

 Side 1  free  transition at x/c =  0.0099   21
 Side 2 forced transition at x/c =  1.0000   69

   5   rms: 0.1042E-04   max: 0.8500E-04   D at   82  2
       a = 14.000      CL =  1.0795
      Cm =  0.0412     CD =  0.05218   =>   CDf =  0.00507    CDp =  0.04710
 plradd ia,ip,cpol           45           0  9.68576423E-05

 Point added to stored polar  1
 Point written to save file  tsagi12_Re500k.base.pol                         
 Dump file unspecified or not available
 Calculating wake trajectory ...
 Calculating source influence matrix ...

 Solving BL system ...

 Side 1  free  transition at x/c =  0.0099   21
 Side 2 forced transition at x/c =  1.0000   69

   1   rms: 0.3798E-01   max: 0.1916E+00   T at   21  1   RLX: 0.743
       a = 14.250      CL =  1.0778
      Cm =  0.0406     CD =  0.05422   =>   CDf =  0.00507    CDp =  0.04915

 Side 1  free  transition at x/c =  0.0098   21
 Side 2 forced transition at x/c =  1.0000   69

   2   rms: 0.7028E-02   max: 0.3521E-01   T at   21  1
       a = 14.250      CL =  1.0782
      Cm =  0.0407     CD =  0.05465   =>   CDf =  0.00499    CDp =  0.04966

 Side 1  free  transition at x/c =  0.0097   21
 Side 2 forced transition at x/c =  1.0000   69

   3   rms: 0.1126E-02   max: 0.7370E-02   D at   21  1
       a = 14.250      CL =  1.0777
      Cm =  0.0408     CD =  0.05464   =>   CDf =  0.00494    CDp =  0.04969

 Side 1  free  transition at x/c =  0.0097   21
 Side 2 forced transition at x/c =  1.0000   69

   4   rms: 0.1371E-03   max: 0.5411E-03   D at   64  1
       a = 14.250      CL =  1.0776
      Cm =  0.0408     CD =  0.05464   =>   CDf =  0.00494    CDp =  0.04970

 Side 1  free  transition at x/c =  0.0097   21
 Side 2 forced transition at x/c =  1.0000   69

   5   rms: 0.5859E-05   max: 0.4295E-04   D at   82  2
       a = 14.250      CL =  1.0776
      Cm =  0.0408     CD =  0.05464   =>   CDf =  0.00494    CDp =  0.04970
 plradd ia,ip,cpol           46           0  9.68576423E-05

 Point added to stored polar  1
 Point written to save file  tsagi12_Re500k.base.pol                         
 Dump file unspecified or not available
 Calculating wake trajectory ...
 Calculating source influence matrix ...

 Solving BL system ...

 Side 1  free  transition at x/c =  0.0097   21
 Side 2 forced transition at x/c =  1.0000   69

   1   rms: 0.3457E-01   max: 0.1110E+00   D at   59  1   RLX: 0.712
       a = 14.500      CL =  1.0772
      Cm =  0.0408     CD =  0.05710   =>   CDf =  0.00494    CDp =  0.05215

 Side 1  free  transition at x/c =  0.0096   21
 Side 2 forced transition at x/c =  1.0000   69

   2   rms: 0.1281E-01   max: 0.5267E-01   D at   63  1
       a = 14.500      CL =  1.0739
      Cm =  0.0408     CD =  0.05812   =>   CDf =  0.00482    CDp =  0.05330

 Side 1  free  transition at x/c =  0.0096   21
 Side 2 forced transition at x/c =  1.0000   69

   3   rms: 0.1788E-02   max: 0.7810E-02   D at   83  2
       a = 14.500      CL =  1.0726
      Cm =  0.0409     CD =  0.05799   =>   CDf =  0.00477    CDp =  0.05322

 Side 1  free  transition at x/c =  0.0096   21
 Side 2 forced transition at x/c =  1.0000   69

   4   rms: 0.6256E-04   max: 0.5349E-03   D at   83  2
       a = 14.500      CL =  1.0726
      Cm =  0.0409     CD =  0.05797   =>   CDf =  0.00477    CDp =  0.05320
 plradd ia,ip,cpol           47           0  9.68576423E-05

 Point added to stored polar  1
 Point written to save file  tsagi12_Re500k.base.pol                         
 Dump file unspecified or not available
 Calculating wake trajectory ...
 Calculating source influence matrix ...

 Solving BL system ...

 Side 1  free  transition at x/c =  0.0096   21
 Side 2 forced transition at x/c =  1.0000   69

   1   rms: 0.3156E-01   max: 0.1040E+00   D at   59  1   RLX: 0.679
       a = 14.750      CL =  1.0726
      Cm =  0.0406     CD =  0.06025   =>   CDf =  0.00477    CDp =  0.05548

 Side 1  free  transition at x/c =  0.0096   21
 Side 2 forced transition at x/c =  1.0000   69

   2   rms: 0.1377E-01   max: 0.4069E-01   D at   62  1
       a = 14.750      CL =  1.0704
      Cm =  0.0407     CD =  0.06132   =>   CDf =  0.00470    CDp =  0.05662

 Side 1  free  transition at x/c =  0.0096   21
 Side 2 forced transition at x/c =  1.0000   69

   3   rms: 0.2520E-02   max: 0.1022E-01   D at   61  1
       a = 14.750      CL =  1.0687
      Cm =  0.0407     CD =  0.06124   =>   CDf =  0.00463    CDp =  0.05661

 Side 1  free  transition at x/c =  0.0096   21
 Side 2 forced transition at x/c =  1.0000   69

   4   rms: 0.9203E-04   max: 0.1105E-02   D at   83  2
       a = 14.750      CL =  1.0687
      Cm =  0.0407     CD =  0.06119   =>   CDf =  0.00463    CDp =  0.05656
 plradd ia,ip,cpol           48           0 -4.60345254E-05

 Point added to stored polar  1
 Point written to save file  tsagi12_Re500k.base.pol                         
 Dump file unspecified or not available
 Calculating wake trajectory ...
 Calculating source influence matrix ...

 Solving BL system ...

 Side 1  free  transition at x/c =  0.0096   21
 Side 2 forced transition at x/c =  1.0000   69

   1   rms: 0.3684E-01   max: 0.1279E+00   D at   57  1   RLX: 0.647
       a = 15.000      CL =  1.0660
      Cm =  0.0403     CD =  0.06402   =>   CDf =  0.00464    CDp =  0.05939

 Side 1  free  transition at x/c =  0.0096   21
 Side 2 forced transition at x/c =  1.0000   69

   2   rms: 0.1561E-01   max: 0.5960E-01   D at   60  1
       a = 15.000      CL =  1.0615
      Cm =  0.0400     CD =  0.06548   =>   CDf =  0.00452    CDp =  0.06096

 Side 1  free  transition at x/c =  0.0095   21
 Side 2 forced transition at x/c =  1.0000   69

   3   rms: 0.2285E-02   max: 0.1120E-01   D at   60  1
       a = 15.000      CL =  1.0599
      Cm =  0.0401     CD =  0.06525   =>   CDf =  0.00445    CDp =  0.06080

 Side 1  free  transition at x/c =  0.0095   21
 Side 2 forced transition at x/c =  1.0000   69

   4   rms: 0.7612E-04   max: 0.5231E-03   D at   83  2
       a = 15.000      CL =  1.0599
      Cm =  0.0401     CD =  0.06520   =>   CDf =  0.00445    CDp =  0.06074
 plradd ia,ip,cpol           49           0  9.68576423E-05

 Point added to stored polar  1
 Point written to save file  tsagi12_Re500k.base.pol                         
 Dump file unspecified or not available
 Calculating wake trajectory ...
 Calculating source influence matrix ...

 Solving BL system ...

 Side 1  free  transition at x/c =  0.0095   21
 Side 2 forced transition at x/c =  1.0000   69

   1   rms: 0.3278E-01   max: 0.1153E+00   D at   57  1   RLX: 0.618
       a = 15.250      CL =  1.0585
      Cm =  0.0394     CD =  0.06778   =>   CDf =  0.00446    CDp =  0.06332

 Side 1  free  transition at x/c =  0.0095   21
 Side 2 forced transition at x/c =  1.0000   69

   2   rms: 0.1373E-01   max: 0.6024E-01   D at   59  1
       a = 15.250      CL =  1.0555
      Cm =  0.0390     CD =  0.06916   =>   CDf =  0.00436    CDp =  0.06480

 Side 1  free  transition at x/c =  0.0094   21
 Side 2 forced transition at x/c =  1.0000   69

   3   rms: 0.1567E-02   max: 0.8774E-02   D at   84  2
       a = 15.250      CL =  1.0544
      Cm =  0.0391     CD =  0.06886   =>   CDf =  0.00431    CDp =  0.06454

 Side 1  free  transition at x/c =  0.0094   21
 Side 2 forced transition at x/c =  1.0000   69

   4   rms: 0.7132E-04   max: -.2801E-03   D at   59  1
       a = 15.250      CL =  1.0544
      Cm =  0.0391     CD =  0.06883   =>   CDf =  0.00432    CDp =  0.06451
 plradd ia,ip,cpol           50           0 -4.60345254E-05

 Point added to stored polar  1
 Point written to save file  tsagi12_Re500k.base.pol                         
 Dump file unspecified or not available
 Calculating wake trajectory ...
 Calculating source influence matrix ...

 Solving BL system ...

 Side 1  free  transition at x/c =  0.0094   21
 Side 2 forced transition at x/c =  1.0000   69

   1   rms: 0.4047E-01   max: 0.1437E+00   D at   54  1   RLX: 0.589
       a = 15.500      CL =  1.0502
      Cm =  0.0384     CD =  0.07206   =>   CDf =  0.00432    CDp =  0.06774

 Side 1  free  transition at x/c =  0.0094   21
 Side 2 forced transition at x/c =  1.0000   69

   2   rms: 0.1935E-01   max: 0.7232E-01   D at   57  1
       a = 15.500      CL =  1.0440
      Cm =  0.0378     CD =  0.07417   =>   CDf =  0.00421    CDp =  0.06997

 Side 1  free  transition at x/c =  0.0095   21
 Side 2 forced transition at x/c =  1.0000   69

   3   rms: 0.3067E-02   max: 0.1569E-01   D at   84  2
       a = 15.500      CL =  1.0420
      Cm =  0.0379     CD =  0.07379   =>   CDf =  0.00413    CDp =  0.06966

 Side 1  free  transition at x/c =  0.0095   21
 Side 2 forced transition at x/c =  1.0000   69

   4   rms: 0.1532E-03   max: 0.2110E-02   D at   84  2
       a = 15.500      CL =  1.0420
      Cm =  0.0379     CD =  0.07371   =>   CDf =  0.00414    CDp =  0.06957

 Side 1  free  transition at x/c =  0.0095   21
 Side 2 forced transition at x/c =  1.0000   69

   5   rms: 0.1104E-04   max: -.6185E-04   D at   83  2
       a = 15.500      CL =  1.0420
      Cm =  0.0379     CD =  0.07371   =>   CDf =  0.00414    CDp =  0.06957
 plradd ia,ip,cpol           51           0  9.68576423E-05

 Point added to stored polar  1
 Point written to save file  tsagi12_Re500k.base.pol                         
 Dump file unspecified or not available
 Calculating wake trajectory ...
 Calculating source influence matrix ...

 Solving BL system ...

 Side 1  free  transition at x/c =  0.0095   21
 Side 2 forced transition at x/c =  1.0000   69

   1   rms: 0.4226E-01   max: 0.1534E+00   D at   52  1   RLX: 0.561
       a = 15.750      CL =  1.0369
      Cm =  0.0370     CD =  0.07714   =>   CDf =  0.00414    CDp =  0.07299

 Side 1  free  transition at x/c =  0.0095   21
 Side 2 forced transition at x/c =  1.0000   69

   2   rms: 0.2163E-01   max: 0.8753E-01   D at   56  1
       a = 15.750      CL =  1.0295
      Cm =  0.0362     CD =  0.07970   =>   CDf =  0.00403    CDp =  0.07567

 Side 1  free  transition at x/c =  0.0096   21
 Side 2 forced transition at x/c =  1.0000   69

   3   rms: 0.3172E-02   max: 0.1501E-01   D at   55  1
       a = 15.750      CL =  1.0273
      Cm =  0.0363     CD =  0.07918   =>   CDf =  0.00396    CDp =  0.07523

 Side 1  free  transition at x/c =  0.0096   21
 Side 2 forced transition at x/c =  1.0000   69

   4   rms: 0.1316E-03   max: -.7231E-03   D at   56  1
       a = 15.750      CL =  1.0273
      Cm =  0.0363     CD =  0.07911   =>   CDf =  0.00396    CDp =  0.07514

 Side 1  free  transition at x/c =  0.0096   21
 Side 2 forced transition at x/c =  1.0000   69

   5   rms: 0.1332E-04   max: -.7855E-04   D at   84  2
       a = 15.750      CL =  1.0273
      Cm =  0.0363     CD =  0.07911   =>   CDf =  0.00396    CDp =  0.07515
 plradd ia,ip,cpol           52           0 -4.60345254E-05

 Point added to stored polar  1
 Point written to save file  tsagi12_Re500k.base.pol                         
 Dump file unspecified or not available
 Calculating wake trajectory ...
 Calculating source influence matrix ...

 Solving BL system ...

 Side 1  free  transition at x/c =  0.0096   21
 Side 2 forced transition at x/c =  1.0000   69

   1   rms: 0.3719E-01   max: 0.1434E+00   D at   52  1   RLX: 0.536
       a = 16.000      CL =  1.0234
      Cm =  0.0351     CD =  0.08235   =>   CDf =  0.00397    CDp =  0.07839

 Side 1  free  transition at x/c =  0.0095   21
 Side 2 forced transition at x/c =  1.0000   69

   2   rms: 0.1867E-01   max: 0.7847E-01   D at   54  1
       a = 16.000      CL =  1.0181
      Cm =  0.0340     CD =  0.08480   =>   CDf =  0.00388    CDp =  0.08092

 Side 1  free  transition at x/c =  0.0095   21
 Side 2 forced transition at x/c =  1.0000   69

   3   rms: 0.2552E-02   max: 0.1342E-01   D at   85  2
       a = 16.000      CL =  1.0165
      Cm =  0.0342     CD =  0.08418   =>   CDf =  0.00381    CDp =  0.08038

 Side 1  free  transition at x/c =  0.0095   21
 Side 2 forced transition at x/c =  1.0000   69

   4   rms: 0.1338E-03   max: -.5749E-03   D at   54  1
       a = 16.000      CL =  1.0165
      Cm =  0.0342     CD =  0.08413   =>   CDf =  0.00381    CDp =  0.08032

 Side 1  free  transition at x/c =  0.0095   21
 Side 2 forced transition at x/c =  1.0000   69

   5   rms: 0.1175E-04   max: -.7723E-04   D at   85  2
       a = 16.000      CL =  1.0165
      Cm =  0.0342     CD =  0.08414   =>   CDf =  0.00381    CDp =  0.08033
 plradd ia,ip,cpol           53           0  9.68576423E-05

 Point added to stored polar  1
 Point written to save file  tsagi12_Re500k.base.pol                         
 Dump file unspecified or not available

.OPERva   c>  
 Polar accumulation disabled

.OPERv   c>  
 XFOIL   c>  
 XFOIL   c>  