
 ===================================================
  XFOIL Version 6.99
  Copyright (C) 2000   Mark Drela, Harold Youngren

  This software comes with ABSOLUTELY NO WARRANTY,
    subject to the GNU General Public License.

  Caveat computor
 ===================================================

 File  xfoil.def  not found

   QUIT    Exit program

  .OPER    Direct operating point(s)
  .MDES    Complex mapping design routine
  .QDES    Surface speed design routine
  .GDES    Geometry design routine

   SAVE f  Write airfoil to labeled coordinate file
   PSAV f  Write airfoil to plain coordinate file
   ISAV f  Write airfoil to ISES coordinate file
   MSAV f  Write airfoil to MSES coordinate file
   REVE    Reverse written-airfoil node ordering

   LOAD f  Read buffer airfoil from coordinate file
   NACA i  Set NACA 4,5-digit airfoil and buffer airfoil
   INTE    Set buffer airfoil by interpolating two airfoils
   NORM    Buffer airfoil normalization toggle
   XYCM rr Change CM reference location, currently  0.25000 0.00000

   BEND    Display structural properties of current airfoil

   PCOP    Set current-airfoil panel nodes directly from buffer airfoil points
   PANE    Set current-airfoil panel nodes ( 160 ) based on curvature
  .PPAR    Show/change paneling

  .PLOP    Plotting options

   WDEF f  Write  current-settings file
   RDEF f  Reread current-settings file
   NAME s  Specify new airfoil name
   NINC    Increment name version number

   Z       Zoom    | (available in all menus)
   U       Unzoom  | 

 XFOIL   c>  
 Labeled airfoil file.  Name:   UNIVERSITY OF ILLINOIS UI-1720 AIRFOIL         

 Number of input coordinate points:  91
 Counterclockwise ordering
 Max thickness =     0.138178  at x =   0.179
 Max camber    =     0.046218  at x =   0.212

  LE  x,y  =  -0.00000   0.00007  |   Chord =   0.99962
  TE  x,y  =   0.99962   0.00065  |

 Current airfoil nodes set from buffer airfoil nodes (  91 )

 XFOIL   c>  
 XFOIL   c>  
 Blunt trailing edge.  Gap =  0.00098

 Paneling parameters used...
   Number of panel nodes       160
   Panel bunching parameter    1.000
   TE/LE panel density ratio   0.150
   Refined-area/LE panel density ratio    0.200
   Top    side refined area x/c limits  1.000 1.000
   Bottom side refined area x/c limits  1.000 1.000

 XFOIL   c>  
.OPERi   c>  
 Xtr/c     =  1.0000    top    side
 Xtr/c     =  1.0000    bottom side
 Ncrit     =    9.00   ( 0.070 % turb. level )
 Vacc      =  0.0100

 Klag  =  5.6000     Uxwt  =    1.00
 A     =  6.7000     B     =  0.7500       KCt = 0.01485
 CtiniK=  1.8000     CtiniX=  3.3000

..VPAR   c>  
..VPAR   c>  
.OPERi   c>  
 M  =    0.0000
 Re =    200000

.OPERv   c>  
.OPERv   c>  
.OPERv   c>  
 Polar  1 newly created for accumulation
 Airfoil archived with polar: UNIVERSITY OF ILLINOIS UI-1720 AIRFOIL          

Enter  polar save filename  OR  <return> for no file   s>  
 New polar save file available

Enter  polar dump filename  OR  <return> for no file   s>  
 Polar dump file will NOT be written

 Polar accumulation enabled

.OPERva   c>   Calculating unit vorticity distributions ...
 Calculating wake trajectory ...
 Calculating source influence matrix ...

 Solving BL system ...

 Initializing BL ...
    side            1  ...
 MRCHUE: Inverse mode at  32     Hk =   3.800
 MRCHUE: Inverse mode at  33     Hk =   4.657
 MRCHUE: Inverse mode at  34     Hk =   5.516
 MRCHUE: Inverse mode at  35     Hk =   6.381
 MRCHUE: Inverse mode at  36     Hk =   7.258
 MRCHUE: Inverse mode at  37     Hk =   8.146
 MRCHUE: Inverse mode at  38     Hk =   9.039
 MRCHUE: Inverse mode at  39     Hk =   9.931
 MRCHUE: Inverse mode at  40     Hk =   7.090
 MRCHUE: Inverse mode at  41     Hk =   4.474
 MRCHUE: Inverse mode at  42     Hk =   2.898
 MRCHUE: Convergence failed at  77  side 1    Res =  0.1786E+01
    side            2  ...
 MRCHUE: Inverse mode at  28     Hk =   4.063
 MRCHUE: Inverse mode at  29     Hk =   4.578
 MRCHUE: Inverse mode at  30     Hk =   5.105
 MRCHUE: Inverse mode at  31     Hk =   5.652
 MRCHUE: Convergence failed at  31  side 2    Res =  0.3489E-01
 MRCHUE: Convergence failed at  32  side 2    Res =  0.3076E+01
 MRCHUE: Inverse mode at  33     Hk =   6.277
 MRCHUE: Inverse mode at  34     Hk =   6.929
 MRCHUE: Inverse mode at  35     Hk =   7.624
 MRCHUE: Inverse mode at  36     Hk =   8.370
 MRCHUE: Inverse mode at  37     Hk =   9.170
 MRCHUE: Inverse mode at  38     Hk =   8.308
 MRCHUE: Inverse mode at  39     Hk =   4.737
 MRCHUE: Inverse mode at  40     Hk =   2.774
 MRCHUE: Convergence failed at  85  side 2    Res =  0.8107E+00

 MRCHDU: Convergence failed at  77  side 1    Res =  0.1868E+01
 Side 1  free  transition at x/c =  0.3180   40
 Side 2  free  transition at x/c =  0.1302   38

   1   rms: 0.3983E+00   max: 0.4167E+01   T at   38  2   RLX: 0.227
       a = -4.000      CL =  0.0987
      Cm = -0.1124     CD =  0.01316   =>   CDf =  0.00908    CDp =  0.00408

 Side 1  free  transition at x/c =  0.3173   40
 Side 2  free  transition at x/c =  0.1171   37

   2   rms: 0.1952E+00   max: 0.1510E+01   T at   37  2   RLX: 0.576
       a = -4.000      CL =  0.0574
      Cm = -0.0965     CD =  0.01846   =>   CDf =  0.00874    CDp =  0.00972

 Side 1  free  transition at x/c =  0.3166   40
 Side 2  free  transition at x/c =  0.1095   37

   3   rms: 0.1893E+00   max: -.8414E+00   D at   41  2   RLX: 0.594
       a = -4.000      CL =  0.0355
      Cm = -0.0893     CD =  0.02048   =>   CDf =  0.00882    CDp =  0.01166

 Side 1  free  transition at x/c =  0.3159   40
 Side 2  free  transition at x/c =  0.1075   37

   4   rms: 0.5133E-01   max: 0.3522E+00   T at   37  2
       a = -4.000      CL =  0.0373
      Cm = -0.0860     CD =  0.02434   =>   CDf =  0.00928    CDp =  0.01506

 Side 1  free  transition at x/c =  0.3149   40
 Side 2  free  transition at x/c =  0.1059   36

   5   rms: 0.4476E-01   max: 0.3783E+00   D at   37  2
       a = -4.000      CL =  0.0398
      Cm = -0.0867     CD =  0.02437   =>   CDf =  0.00951    CDp =  0.01486

 Side 1  free  transition at x/c =  0.3147   40
 Side 2  free  transition at x/c =  0.1053   36

   6   rms: 0.1824E-01   max: 0.9426E-01   D at   40  2
       a = -4.000      CL =  0.0393
      Cm = -0.0868     CD =  0.02421   =>   CDf =  0.00948    CDp =  0.01474

 Side 1  free  transition at x/c =  0.3147   40
 Side 2  free  transition at x/c =  0.1053   36

   7   rms: 0.1005E-02   max: 0.7106E-02   D at   38  2
       a = -4.000      CL =  0.0393
      Cm = -0.0868     CD =  0.02422   =>   CDf =  0.00939    CDp =  0.01484

 Side 1  free  transition at x/c =  0.3147   40
 Side 2  free  transition at x/c =  0.1053   36

   8   rms: 0.9028E-05   max: 0.7137E-04   D at   38  2
       a = -4.000      CL =  0.0393
      Cm = -0.0868     CD =  0.02422   =>   CDf =  0.00938    CDp =  0.01484
 plradd ia,ip,cpol            1           0  8.93074460E-03

 Point added to stored polar  1
 Point written to save file  ui1720_Re200k.base.pol                          
 Dump file unspecified or not available
 Calculating wake trajectory ...
 Calculating source influence matrix ...

 Solving BL system ...

 Side 1  free  transition at x/c =  0.3147   40
 Side 2  free  transition at x/c =  0.1053   36

   1   rms: 0.9476E-01   max: -.4169E+00   T at   36  2
       a = -3.500      CL =  0.0964
      Cm = -0.0866     CD =  0.02299   =>   CDf =  0.00938    CDp =  0.01360

 Side 1  free  transition at x/c =  0.3119   40
 Side 2  free  transition at x/c =  0.1106   37

   2   rms: 0.8577E-01   max: 0.6740E+00   D at   37  2
       a = -3.500      CL =  0.0956
      Cm = -0.0867     CD =  0.02313   =>   CDf =  0.00997    CDp =  0.01315

 Side 1  free  transition at x/c =  0.3117   39
 Side 2  free  transition at x/c =  0.1094   37

   3   rms: 0.6246E-02   max: 0.4202E-01   D at   39  2
       a = -3.500      CL =  0.0952
      Cm = -0.0866     CD =  0.02300   =>   CDf =  0.00981    CDp =  0.01319

 Side 1  free  transition at x/c =  0.3117   39
 Side 2  free  transition at x/c =  0.1093   37

   4   rms: 0.9183E-04   max: 0.9748E-03   D at   38  2
       a = -3.500      CL =  0.0952
      Cm = -0.0866     CD =  0.02300   =>   CDf =  0.00979    CDp =  0.01321
 plradd ia,ip,cpol            2           0  1.36081269E-02

 Point added to stored polar  1
 Point written to save file  ui1720_Re200k.base.pol                          
 Dump file unspecified or not available
 Calculating wake trajectory ...
 Calculating source influence matrix ...

 Solving BL system ...

 Side 1  free  transition at x/c =  0.3117   39
 Side 2  free  transition at x/c =  0.1093   37

   1   rms: 0.8601E-01   max: -.4159E+00   T at   37  2
       a = -3.000      CL =  0.1508
      Cm = -0.0862     CD =  0.02183   =>   CDf =  0.00983    CDp =  0.01200

 Side 1  free  transition at x/c =  0.3098   40
 Side 2  free  transition at x/c =  0.1142   36

   2   rms: 0.3419E-01   max: -.1699E+00   D at   39  2
       a = -3.000      CL =  0.1514
      Cm = -0.0861     CD =  0.02216   =>   CDf =  0.00976    CDp =  0.01240

 Side 1  free  transition at x/c =  0.3097   40
 Side 2  free  transition at x/c =  0.1140   36

   3   rms: 0.7222E-03   max: 0.1007E-01   D at   38  2
       a = -3.000      CL =  0.1513
      Cm = -0.0861     CD =  0.02218   =>   CDf =  0.00989    CDp =  0.01229

 Side 1  free  transition at x/c =  0.3097   40
 Side 2  free  transition at x/c =  0.1140   36

   4   rms: 0.3081E-05   max: 0.2506E-04   D at   38  2
       a = -3.000      CL =  0.1513
      Cm = -0.0861     CD =  0.02218   =>   CDf =  0.00989    CDp =  0.01229
 plradd ia,ip,cpol            3           0  1.62340887E-02

 Point added to stored polar  1
 Point written to save file  ui1720_Re200k.base.pol                          
 Dump file unspecified or not available
 Calculating wake trajectory ...
 Calculating source influence matrix ...

 Solving BL system ...

 Side 1  free  transition at x/c =  0.3097   40
 Side 2  free  transition at x/c =  0.1140   36

   1   rms: 0.8487E-01   max: -.2932E+00   T at   36  2
       a = -2.500      CL =  0.2079
      Cm = -0.0856     CD =  0.02142   =>   CDf =  0.00992    CDp =  0.01151

 Side 1  free  transition at x/c =  0.3080   41
 Side 2  free  transition at x/c =  0.1186   35

   2   rms: 0.1808E-01   max: -.1156E+00   D at   36  2
       a = -2.500      CL =  0.2082
      Cm = -0.0855     CD =  0.02162   =>   CDf =  0.01011    CDp =  0.01151

 Side 1  free  transition at x/c =  0.3079   41
 Side 2  free  transition at x/c =  0.1184   35

   3   rms: 0.5544E-03   max: 0.5256E-02   D at    4  1
       a = -2.500      CL =  0.2081
      Cm = -0.0855     CD =  0.02163   =>   CDf =  0.01013    CDp =  0.01150

 Side 1  free  transition at x/c =  0.3079   41
 Side 2  free  transition at x/c =  0.1184   35

   4   rms: 0.2104E-05   max: 0.8795E-05   D at   49  2
       a = -2.500      CL =  0.2081
      Cm = -0.0855     CD =  0.02163   =>   CDf =  0.01012    CDp =  0.01150
 plradd ia,ip,cpol            4           0  2.20850706E-02

 Point added to stored polar  1
 Point written to save file  ui1720_Re200k.base.pol                          
 Dump file unspecified or not available
 Calculating wake trajectory ...
 Calculating source influence matrix ...

 Solving BL system ...

 Side 1  free  transition at x/c =  0.3079   41
 Side 2  free  transition at x/c =  0.1184   35

   1   rms: 0.8233E-01   max: -.4040E+00   T at   35  2
       a = -2.000      CL =  0.2652
      Cm = -0.0849     CD =  0.02146   =>   CDf =  0.01014    CDp =  0.01132

 Side 1  free  transition at x/c =  0.3063   42
 Side 2  free  transition at x/c =  0.1249   35

   2   rms: 0.5339E-01   max: 0.6643E+00   D at   35  2
       a = -2.000      CL =  0.2642
      Cm = -0.0850     CD =  0.02102   =>   CDf =  0.01012    CDp =  0.01090

 Side 1  free  transition at x/c =  0.3063   42
 Side 2  free  transition at x/c =  0.1241   35

   3   rms: 0.5832E-02   max: 0.4516E-01   D at   35  2
       a = -2.000      CL =  0.2640
      Cm = -0.0850     CD =  0.02100   =>   CDf =  0.01011    CDp =  0.01089

 Side 1  free  transition at x/c =  0.3063   42
 Side 2  free  transition at x/c =  0.1239   35

   4   rms: 0.4347E-04   max: 0.4029E-03   D at   36  2
       a = -2.000      CL =  0.2640
      Cm = -0.0850     CD =  0.02100   =>   CDf =  0.01011    CDp =  0.01089
 plradd ia,ip,cpol            5           0  0.17968602    

 Point added to stored polar  1
 Point written to save file  ui1720_Re200k.base.pol                          
 Dump file unspecified or not available
 Calculating wake trajectory ...
 Calculating source influence matrix ...

 Solving BL system ...

 Side 1  free  transition at x/c =  0.3063   42
 Side 2  free  transition at x/c =  0.1239   35

   1   rms: 0.8363E-01   max: -.3715E+00   T at   35  2
       a = -1.500      CL =  0.3199
      Cm = -0.0844     CD =  0.02076   =>   CDf =  0.01011    CDp =  0.01064

 Side 1  free  transition at x/c =  0.3049   42
 Side 2  free  transition at x/c =  0.1310   35

   2   rms: 0.2186E-01   max: -.1578E+00   D at   36  2
       a = -1.500      CL =  0.3201
      Cm = -0.0843     CD =  0.02090   =>   CDf =  0.01016    CDp =  0.01074

 Side 1  free  transition at x/c =  0.3049   42
 Side 2  free  transition at x/c =  0.1313   35

   3   rms: 0.1261E-02   max: 0.1325E-01   D at   36  2
       a = -1.500      CL =  0.3201
      Cm = -0.0843     CD =  0.02091   =>   CDf =  0.01014    CDp =  0.01076

 Side 1  free  transition at x/c =  0.3049   42
 Side 2  free  transition at x/c =  0.1312   35

   4   rms: 0.7161E-05   max: 0.8106E-04   D at   36  2
       a = -1.500      CL =  0.3201
      Cm = -0.0843     CD =  0.02091   =>   CDf =  0.01014    CDp =  0.01076
 plradd ia,ip,cpol            6           0  0.17968602    

 Point added to stored polar  1
 Point written to save file  ui1720_Re200k.base.pol                          
 Dump file unspecified or not available
 Calculating wake trajectory ...
 Calculating source influence matrix ...

 Solving BL system ...

 Side 1  free  transition at x/c =  0.3049   42
 Side 2  free  transition at x/c =  0.1312   35

   1   rms: 0.8335E-01   max: -.4507E+00   T at   35  2
       a = -1.000      CL =  0.3764
      Cm = -0.0837     CD =  0.02103   =>   CDf =  0.01014    CDp =  0.01089

 Side 1  free  transition at x/c =  0.3036   43
 Side 2  free  transition at x/c =  0.1433   35

   2   rms: 0.3949E-01   max: 0.5902E+00   D at   35  2
       a = -1.000      CL =  0.3755
      Cm = -0.0837     CD =  0.02075   =>   CDf =  0.00997    CDp =  0.01077

 Side 1  free  transition at x/c =  0.3036   43
 Side 2  free  transition at x/c =  0.1427   35

   3   rms: 0.6452E-02   max: 0.6683E-01   D at   35  2
       a = -1.000      CL =  0.3756
      Cm = -0.0837     CD =  0.02080   =>   CDf =  0.01002    CDp =  0.01078

 Side 1  free  transition at x/c =  0.3036   43
 Side 2  free  transition at x/c =  0.1419   35

   4   rms: 0.6345E-04   max: 0.5346E-03   T at   35  2
       a = -1.000      CL =  0.3756
      Cm = -0.0837     CD =  0.02080   =>   CDf =  0.01003    CDp =  0.01077
 plradd ia,ip,cpol            7           0  0.16891429    

 Point added to stored polar  1
 Point written to save file  ui1720_Re200k.base.pol                          
 Dump file unspecified or not available
 Calculating wake trajectory ...
 Calculating source influence matrix ...

 Solving BL system ...

 Side 1  free  transition at x/c =  0.3036   43
 Side 2  free  transition at x/c =  0.1419   35

   1   rms: 0.8591E-01   max: -.4750E+00   T at   35  2
       a = -0.500      CL =  0.4312
      Cm = -0.0831     CD =  0.02096   =>   CDf =  0.01001    CDp =  0.01095

 Side 1  free  transition at x/c =  0.3026   44
 Side 2  free  transition at x/c =  0.1601   35

   2   rms: 0.1910E-01   max: 0.3193E+00   D at   35  2
       a = -0.500      CL =  0.4310
      Cm = -0.0831     CD =  0.02092   =>   CDf =  0.00988    CDp =  0.01104

 Side 1  free  transition at x/c =  0.3025   44
 Side 2  free  transition at x/c =  0.1606   35

   3   rms: 0.1792E-02   max: 0.1909E-01   D at   35  2
       a = -0.500      CL =  0.4310
      Cm = -0.0831     CD =  0.02093   =>   CDf =  0.00991    CDp =  0.01102

 Side 1  free  transition at x/c =  0.3025   44
 Side 2  free  transition at x/c =  0.1601   35

   4   rms: 0.9356E-05   max: -.1277E-03   D at   37  2
       a = -0.500      CL =  0.4310
      Cm = -0.0831     CD =  0.02093   =>   CDf =  0.00991    CDp =  0.01102
 plradd ia,ip,cpol            8           0  0.16891429    

 Point added to stored polar  1
 Point written to save file  ui1720_Re200k.base.pol                          
 Dump file unspecified or not available
 Calculating wake trajectory ...
 Calculating source influence matrix ...

 Solving BL system ...

 Side 1  free  transition at x/c =  0.3025   44
 Side 2  free  transition at x/c =  0.1601   35

   1   rms: 0.9179E-01   max: -.6981E+00   T at   35  2   RLX: 0.716
       a =  0.000      CL =  0.4708
      Cm = -0.0827     CD =  0.02121   =>   CDf =  0.00991    CDp =  0.01129

 Side 1  free  transition at x/c =  0.3019   44
 Side 2  free  transition at x/c =  0.1862   37

   2   rms: 0.4781E-01   max: 0.4056E+00   D at   37  2
       a =  0.000      CL =  0.4858
      Cm = -0.0827     CD =  0.02096   =>   CDf =  0.00979    CDp =  0.01117

 Side 1  free  transition at x/c =  0.3017   44
 Side 2  free  transition at x/c =  0.2050   38

   3   rms: 0.1395E-01   max: -.1511E+00   C at   38  2
       a =  0.000      CL =  0.4860
      Cm = -0.0827     CD =  0.02107   =>   CDf =  0.00965    CDp =  0.01143

 Side 1  free  transition at x/c =  0.3017   44
 Side 2  free  transition at x/c =  0.2098   38

   4   rms: 0.1532E-02   max: -.2245E-01   D at   38  2
       a =  0.000      CL =  0.4861
      Cm = -0.0827     CD =  0.02109   =>   CDf =  0.00960    CDp =  0.01150

 Side 1  free  transition at x/c =  0.3017   44
 Side 2  free  transition at x/c =  0.2100   38

   5   rms: 0.3316E-04   max: 0.4847E-03   C at   38  2
       a =  0.000      CL =  0.4861
      Cm = -0.0827     CD =  0.02109   =>   CDf =  0.00959    CDp =  0.01150
 plradd ia,ip,cpol            9           0  0.16891429    

 Point added to stored polar  1
 Point written to save file  ui1720_Re200k.base.pol                          
 Dump file unspecified or not available
 Calculating wake trajectory ...
 Calculating source influence matrix ...

 Solving BL system ...

 Side 1  free  transition at x/c =  0.3017   44
 Side 2  free  transition at x/c =  0.2100   38

   1   rms: 0.1503E+00   max: -.1321E+01   C at   38  2   RLX: 0.378
       a =  0.500      CL =  0.5067
      Cm = -0.0825     CD =  0.02117   =>   CDf =  0.00954    CDp =  0.01164

 Side 1  free  transition at x/c =  0.3014   45
 Side 2  free  transition at x/c =  0.2529   39

   2   rms: 0.1410E+00   max: -.2558E+01   C at   39  2   RLX: 0.195
       a =  0.500      CL =  0.5127
      Cm = -0.0825     CD =  0.02116   =>   CDf =  0.00940    CDp =  0.01176

 Side 1  free  transition at x/c =  0.3013   45
 Side 2  free  transition at x/c =  0.2615   40

   3   rms: 0.1065E+00   max: -.1082E+01   C at   40  2   RLX: 0.462
       a =  0.500      CL =  0.5261
      Cm = -0.0825     CD =  0.02116   =>   CDf =  0.00943    CDp =  0.01174

 Side 1  free  transition at x/c =  0.3011   45
 Side 2  free  transition at x/c =  0.2891   41

   4   rms: 0.7423E-01   max: -.1199E+01   C at   41  2   RLX: 0.417
       a =  0.500      CL =  0.5327
      Cm = -0.0825     CD =  0.02131   =>   CDf =  0.00928    CDp =  0.01203

 Side 1  free  transition at x/c =  0.3011   45
 Side 2  free  transition at x/c =  0.3071   42

   5   rms: 0.5947E-01   max: -.9527E+00   C at   42  2   RLX: 0.525
       a =  0.500      CL =  0.5371
      Cm = -0.0824     CD =  0.02131   =>   CDf =  0.00921    CDp =  0.01209

 Side 1  free  transition at x/c =  0.3010   45
 Side 2  free  transition at x/c =  0.3292   43

   6   rms: 0.4788E-01   max: -.8668E+00   C at   43  2   RLX: 0.577
       a =  0.500      CL =  0.5391
      Cm = -0.0824     CD =  0.02129   =>   CDf =  0.00911    CDp =  0.01218

 Side 1  free  transition at x/c =  0.3010   45
 Side 2  free  transition at x/c =  0.3474   44

   7   rms: 0.3426E-01   max: -.6254E+00   C at   44  2   RLX: 0.800
       a =  0.500      CL =  0.5399
      Cm = -0.0823     CD =  0.02125   =>   CDf =  0.00903    CDp =  0.01222

 Side 1  free  transition at x/c =  0.3010   45
 Side 2  free  transition at x/c =  0.3681   45

   8   rms: 0.1536E-01   max: -.2870E+00   C at   45  2
       a =  0.500      CL =  0.5399
      Cm = -0.0823     CD =  0.02124   =>   CDf =  0.00894    CDp =  0.01230

 Side 1  free  transition at x/c =  0.3010   45
 Side 2  free  transition at x/c =  0.3793   46

   9   rms: 0.5541E-02   max: -.9930E-01   C at   46  2
       a =  0.500      CL =  0.5399
      Cm = -0.0823     CD =  0.02124   =>   CDf =  0.00890    CDp =  0.01234

 Side 1  free  transition at x/c =  0.3010   45
 Side 2  free  transition at x/c =  0.3814   46

  10   rms: 0.1112E-03   max: 0.1731E-02   C at   46  2
       a =  0.500      CL =  0.5399
      Cm = -0.0823     CD =  0.02124   =>   CDf =  0.00888    CDp =  0.01237

 Side 1  free  transition at x/c =  0.3010   45
 Side 2  free  transition at x/c =  0.3814   46

  11   rms: 0.9486E-06   max: -.1581E-04   C at   46  2
       a =  0.500      CL =  0.5399
      Cm = -0.0823     CD =  0.02124   =>   CDf =  0.00888    CDp =  0.01237
 plradd ia,ip,cpol           10           0  0.16891429    

 Point added to stored polar  1
 Point written to save file  ui1720_Re200k.base.pol                          
 Dump file unspecified or not available
 Calculating wake trajectory ...
 Calculating source influence matrix ...

 Solving BL system ...

 Side 1  free  transition at x/c =  0.3010   45
 Side 2  free  transition at x/c =  0.3814   46

   1   rms: 0.2234E+00   max: -.3741E+01   C at   46  2   RLX: 0.134
       a =  1.000      CL =  0.5467
      Cm = -0.0822     CD =  0.02126   =>   CDf =  0.00888    CDp =  0.01238

 Side 1  free  transition at x/c =  0.3009   45
 Side 2  free  transition at x/c =  0.4049   47

   2   rms: 0.1606E+00   max: -.2568E+01   C at   47  2   RLX: 0.195
       a =  1.000      CL =  0.5563
      Cm = -0.0822     CD =  0.02137   =>   CDf =  0.00881    CDp =  0.01256

 Side 1  free  transition at x/c =  0.3008   45
 Side 2  free  transition at x/c =  0.4337   48

   3   rms: 0.1051E+00   max: -.1585E+01   C at   48  2   RLX: 0.315
       a =  1.000      CL =  0.5682
      Cm = -0.0821     CD =  0.02152   =>   CDf =  0.00864    CDp =  0.01288

 Side 1  free  transition at x/c =  0.3007   46
 Side 2  free  transition at x/c =  0.4739   49

   4   rms: 0.5816E-01   max: -.6188E+00   C at   49  2   RLX: 0.808
       a =  1.000      CL =  0.5882
      Cm = -0.0816     CD =  0.02182   =>   CDf =  0.00860    CDp =  0.01322

 Side 1  free  transition at x/c =  0.3005   46
 Side 2  free  transition at x/c =  0.6202   57

   5   rms: 0.8688E-01   max: -.1495E+01   C at   57  2   RLX: 0.335
       a =  1.000      CL =  0.5840
      Cm = -0.0799     CD =  0.02142   =>   CDf =  0.00814    CDp =  0.01328

 Side 1  free  transition at x/c =  0.3005   46
 Side 2  free  transition at x/c =  0.6251   57

   6   rms: 0.5084E-01   max: -.8647E+00   C at   57  2   RLX: 0.578
       a =  1.000      CL =  0.5869
      Cm = -0.0804     CD =  0.02141   =>   CDf =  0.00805    CDp =  0.01336

 Side 1  free  transition at x/c =  0.3005   46
 Side 2  free  transition at x/c =  0.6351   58

   7   rms: 0.1092E-01   max: -.1470E+00   C at   58  2
       a =  1.000      CL =  0.5891
      Cm = -0.0807     CD =  0.02146   =>   CDf =  0.00797    CDp =  0.01349

 Side 1  free  transition at x/c =  0.3005   46
 Side 2  free  transition at x/c =  0.6389   58

   8   rms: 0.1585E-02   max: 0.2598E-01   C at   58  2
       a =  1.000      CL =  0.5893
      Cm = -0.0808     CD =  0.02148   =>   CDf =  0.00794    CDp =  0.01354

 Side 1  free  transition at x/c =  0.3005   46
 Side 2  free  transition at x/c =  0.6365   58

   9   rms: 0.5644E-04   max: -.9671E-03   C at   58  2
       a =  1.000      CL =  0.5893
      Cm = -0.0808     CD =  0.02148   =>   CDf =  0.00795    CDp =  0.01353
 plradd ia,ip,cpol           11           0  0.16891429    

 Point added to stored polar  1
 Point written to save file  ui1720_Re200k.base.pol                          
 Dump file unspecified or not available
 Calculating wake trajectory ...
 Calculating source influence matrix ...

 Solving BL system ...

 Side 1  free  transition at x/c =  0.3005   46
 Side 2  free  transition at x/c =  0.6366   58

   1   rms: 0.2952E+00   max: -.5044E+01   C at   58  2   RLX: 0.099
       a =  1.500      CL =  0.5932
      Cm = -0.0804     CD =  0.02147   =>   CDf =  0.00795    CDp =  0.01352

 Side 1  free  transition at x/c =  0.3005   46
 Side 2  free  transition at x/c =  0.6648   59

   2   rms: 0.2516E+00   max: -.4234E+01   C at   59  2   RLX: 0.118
       a =  1.500      CL =  0.5981
      Cm = -0.0802     CD =  0.02151   =>   CDf =  0.00785    CDp =  0.01365

 Side 1  free  transition at x/c =  0.3004   46
 Side 2  free  transition at x/c =  0.7038   61

   3   rms: 0.2529E+00   max: -.4233E+01   C at   61  2   RLX: 0.118
       a =  1.500      CL =  0.6015
      Cm = -0.0797     CD =  0.02147   =>   CDf =  0.00772    CDp =  0.01376

 Side 1  free  transition at x/c =  0.3004   46
 Side 2  free  transition at x/c =  0.7459   63

   4   rms: 0.2772E+00   max: -.4562E+01   C at   63  2   RLX: 0.110
       a =  1.500      CL =  0.6041
      Cm = -0.0791     CD =  0.02143   =>   CDf =  0.00758    CDp =  0.01385

 Side 1  free  transition at x/c =  0.3004   46
 Side 2  free  transition at x/c =  0.7936   66

   5   rms: 0.3746E+00   max: -.6134E+01   C at   66  2   RLX: 0.082
       a =  1.500      CL =  0.6052
      Cm = -0.0785     CD =  0.02132   =>   CDf =  0.00744    CDp =  0.01388

 Side 1  free  transition at x/c =  0.3004   46
 Side 2  free  transition at x/c =  0.8283   68

   6   rms: 0.4848E+00   max: -.7809E+01   C at   68  2   RLX: 0.064
       a =  1.500      CL =  0.6065
      Cm = -0.0783     CD =  0.02127   =>   CDf =  0.00736    CDp =  0.01390

 Side 1  free  transition at x/c =  0.3004   46
 Side 2  free  transition at x/c =  0.8611   69

   7   rms: 0.1191E+01   max: -.1745E+02   C at   69  2   RLX: 0.029
       a =  1.500      CL =  0.6081
      Cm = -0.0784     CD =  0.02123   =>   CDf =  0.00730    CDp =  0.01393

 Side 1  free  transition at x/c =  0.3004   46
 Side 2  free  transition at x/c =  0.8840   71

   8   rms: 0.1674E+02   max: -.2448E+03   C at   71  2   RLX: 0.002
       a =  1.500      CL =  0.6101
      Cm = -0.0788     CD =  0.02121   =>   CDf =  0.00727    CDp =  0.01395

 Side 1  free  transition at x/c =  0.3004   46
 Side 2  free  transition at x/c =  0.9115   72

   9   rms: 0.4416E+01   max: 0.5932E+02   C at   72  2   RLX: 0.025
       a =  1.500      CL =  0.6042
      Cm = -0.0776     CD =  0.02129   =>   CDf =  0.00724    CDp =  0.01405

 Side 1  free  transition at x/c =  0.3004   46
 Side 2  free  transition at x/c =  0.8659   70

  10   rms: 0.1077E+01   max: -.1636E+02   C at   70  2   RLX: 0.031
       a =  1.500      CL =  0.6063
      Cm = -0.0778     CD =  0.02122   =>   CDf =  0.00729    CDp =  0.01393

 Side 1  free  transition at x/c =  0.3004   46
 Side 2  free  transition at x/c =  0.9335   73

  11   rms: 0.5915E+01   max: 0.7618E+02   C at   73  2   RLX: 0.020
       a =  1.500      CL =  0.6026
      Cm = -0.0769     CD =  0.02118   =>   CDf =  0.00723    CDp =  0.01395

 Side 1  free  transition at x/c =  0.3004   46
 Side 2  free  transition at x/c =  0.8804   70

  12   rms: 0.2434E+01   max: -.3438E+02   C at   70  2   RLX: 0.015
       a =  1.500      CL =  0.6051
      Cm = -0.0773     CD =  0.02119   =>   CDf =  0.00727    CDp =  0.01392

 Side 1  free  transition at x/c =  0.3004   46
 Side 2  free  transition at x/c =  0.9523   75

  13   rms: 0.1351E+02   max: -.1957E+03   C at   75  2   RLX: 0.003
       a =  1.500      CL =  0.6055
      Cm = -0.0774     CD =  0.02114   =>   CDf =  0.00723    CDp =  0.01391

 Side 1  free  transition at x/c =  0.3004   46
 Side 2  free  transition at x/c =  0.9710   76

  14   rms: 0.8976E+01   max: -.1445E+03   C at   76  2   RLX: 0.003
       a =  1.500      CL =  0.6058
      Cm = -0.0775     CD =  0.02114   =>   CDf =  0.00722    CDp =  0.01391

 Side 1  free  transition at x/c =  0.3004   46
 Side 2  free  transition at x/c =  0.9934   78

  15   rms: 0.1316E+01   max: 0.3558E+02   C at   78  2   RLX: 0.042
       a =  1.500      CL =  0.6033
      Cm = -0.0767     CD =  0.02115   =>   CDf =  0.00722    CDp =  0.01393

 Side 1  free  transition at x/c =  0.3004   46
 Side 2 forced transition at x/c =  0.9996   78

  16   rms: 0.5730E-01   max: -.2766E+00   n at   77  2
       a =  1.500      CL =  0.6410
      Cm = -0.0789     CD =  0.02192   =>   CDf =  0.00720    CDp =  0.01472

 Side 1  free  transition at x/c =  0.3000   47
 Side 2 forced transition at x/c =  0.9996   77

  17   rms: 0.3458E-02   max: 0.2702E-01   D at    3  1
       a =  1.500      CL =  0.6411
      Cm = -0.0789     CD =  0.02189   =>   CDf =  0.00729    CDp =  0.01461

 Side 1  free  transition at x/c =  0.3000   47
 Side 2 forced transition at x/c =  0.9996   77

  18   rms: 0.5480E-03   max: 0.6834E-02   D at    4  1
       a =  1.500      CL =  0.6411
      Cm = -0.0789     CD =  0.02190   =>   CDf =  0.00730    CDp =  0.01460

 Side 1  free  transition at x/c =  0.3000   47
 Side 2 forced transition at x/c =  0.9996   77

  19   rms: 0.7522E-06   max: -.3388E-05   D at   47  1
       a =  1.500      CL =  0.6411
      Cm = -0.0789     CD =  0.02190   =>   CDf =  0.00730    CDp =  0.01460
 plradd ia,ip,cpol           12           0  0.16891429    

 Point added to stored polar  1
 Point written to save file  ui1720_Re200k.base.pol                          
 Dump file unspecified or not available
 Calculating wake trajectory ...
 Calculating source influence matrix ...

 Solving BL system ...

 Side 1  free  transition at x/c =  0.3000   47
 Side 2 forced transition at x/c =  0.9996   77

   1   rms: 0.8966E-01   max: -.2267E+00   n at   72  2
       a =  2.000      CL =  0.6952
      Cm = -0.0785     CD =  0.02315   =>   CDf =  0.00730    CDp =  0.01585

 Side 1  free  transition at x/c =  0.2989   47
 Side 2 forced transition at x/c =  0.9996   77

   2   rms: 0.4657E-02   max: -.1861E-01   D at   51  1
       a =  2.000      CL =  0.6948
      Cm = -0.0784     CD =  0.02312   =>   CDf =  0.00740    CDp =  0.01573

 Side 1  free  transition at x/c =  0.2988   47
 Side 2 forced transition at x/c =  0.9996   77

   3   rms: 0.2379E-04   max: 0.1771E-03   D at   49  1
       a =  2.000      CL =  0.6948
      Cm = -0.0784     CD =  0.02313   =>   CDf =  0.00742    CDp =  0.01571
 plradd ia,ip,cpol           13           0  0.16891429    

 Point added to stored polar  1
 Point written to save file  ui1720_Re200k.base.pol                          
 Dump file unspecified or not available
 Calculating wake trajectory ...
 Calculating source influence matrix ...

 Solving BL system ...

 Side 1  free  transition at x/c =  0.2988   47
 Side 2 forced transition at x/c =  0.9996   77

   1   rms: 0.8503E-01   max: -.1837E+00   n at   68  2
       a =  2.500      CL =  0.7479
      Cm = -0.0778     CD =  0.02452   =>   CDf =  0.00739    CDp =  0.01713

 Side 1  free  transition at x/c =  0.2985   48
 Side 2 forced transition at x/c =  0.9996   76

   2   rms: 0.1248E-01   max: 0.5493E-01   D at   48  1
       a =  2.500      CL =  0.7466
      Cm = -0.0777     CD =  0.02476   =>   CDf =  0.00749    CDp =  0.01727

 Side 1  free  transition at x/c =  0.2985   48
 Side 2 forced transition at x/c =  0.9996   76

   3   rms: 0.4713E-03   max: 0.3657E-02   D at    4  1
       a =  2.500      CL =  0.7465
      Cm = -0.0777     CD =  0.02475   =>   CDf =  0.00742    CDp =  0.01733

 Side 1  free  transition at x/c =  0.2985   48
 Side 2 forced transition at x/c =  0.9996   76

   4   rms: 0.1341E-05   max: 0.5664E-05   D at   86  1
       a =  2.500      CL =  0.7465
      Cm = -0.0777     CD =  0.02475   =>   CDf =  0.00742    CDp =  0.01733
 plradd ia,ip,cpol           14           0  0.16891429    

 Point added to stored polar  1
 Point written to save file  ui1720_Re200k.base.pol                          
 Dump file unspecified or not available
 Calculating wake trajectory ...
 Calculating source influence matrix ...

 Solving BL system ...

 Side 1  free  transition at x/c =  0.2985   48
 Side 2 forced transition at x/c =  0.9996   76

   1   rms: 0.8114E-01   max: -.1279E+00   n at   65  2
       a =  3.000      CL =  0.7972
      Cm = -0.0770     CD =  0.02658   =>   CDf =  0.00737    CDp =  0.01922

 Side 1  free  transition at x/c =  0.2986   49
 Side 2 forced transition at x/c =  0.9996   75

   2   rms: 0.5795E-02   max: 0.2731E-01   D at   51  1
       a =  3.000      CL =  0.7961
      Cm = -0.0769     CD =  0.02675   =>   CDf =  0.00736    CDp =  0.01939

 Side 1  free  transition at x/c =  0.2986   49
 Side 2 forced transition at x/c =  0.9996   75

   3   rms: 0.6198E-03   max: 0.7652E-02   D at    4  1
       a =  3.000      CL =  0.7961
      Cm = -0.0769     CD =  0.02675   =>   CDf =  0.00733    CDp =  0.01942

 Side 1  free  transition at x/c =  0.2986   49
 Side 2 forced transition at x/c =  0.9996   75

   4   rms: 0.1046E-05   max: 0.4915E-05   D at   49  1
       a =  3.000      CL =  0.7961
      Cm = -0.0769     CD =  0.02675   =>   CDf =  0.00733    CDp =  0.01942
 plradd ia,ip,cpol           15           0  0.16891429    

 Point added to stored polar  1
 Point written to save file  ui1720_Re200k.base.pol                          
 Dump file unspecified or not available
 Calculating wake trajectory ...
 Calculating source influence matrix ...

 Solving BL system ...

 Side 1  free  transition at x/c =  0.2986   49
 Side 2 forced transition at x/c =  0.9996   75

   1   rms: 0.8045E-01   max: 0.9887E-01   D at   85  2
       a =  3.500      CL =  0.8442
      Cm = -0.0761     CD =  0.02907   =>   CDf =  0.00734    CDp =  0.02173

 Side 1  free  transition at x/c =  0.2991   49
 Side 2 forced transition at x/c =  0.9996   75

   2   rms: 0.9479E-02   max: 0.4486E-01   D at   52  1
       a =  3.500      CL =  0.8418
      Cm = -0.0760     CD =  0.02945   =>   CDf =  0.00718    CDp =  0.02227

 Side 1  free  transition at x/c =  0.2993   49
 Side 2 forced transition at x/c =  0.9996   75

   3   rms: 0.3698E-03   max: 0.2252E-02   D at   52  1
       a =  3.500      CL =  0.8417
      Cm = -0.0760     CD =  0.02944   =>   CDf =  0.00712    CDp =  0.02232

 Side 1  free  transition at x/c =  0.2993   49
 Side 2 forced transition at x/c =  0.9996   75

   4   rms: 0.4641E-05   max: 0.1861E-04   D at   62  1
       a =  3.500      CL =  0.8417
      Cm = -0.0760     CD =  0.02944   =>   CDf =  0.00712    CDp =  0.02232
 plradd ia,ip,cpol           16           0  0.15815033    

 Point added to stored polar  1
 Point written to save file  ui1720_Re200k.base.pol                          
 Dump file unspecified or not available
 Calculating wake trajectory ...
 Calculating source influence matrix ...

 Solving BL system ...

 Side 1  free  transition at x/c =  0.2993   49
 Side 2 forced transition at x/c =  0.9996   75

   1   rms: 0.8575E-01   max: 0.1409E+00   D at   85  2
       a =  4.000      CL =  0.8839
      Cm = -0.0751     CD =  0.03287   =>   CDf =  0.00704    CDp =  0.02583

 Side 1  free  transition at x/c =  0.3012   50
 Side 2 forced transition at x/c =  0.9996   74

   2   rms: 0.1909E-01   max: 0.7915E-01   D at   53  1
       a =  4.000      CL =  0.8792
      Cm = -0.0751     CD =  0.03384   =>   CDf =  0.00684    CDp =  0.02701

 Side 1  free  transition at x/c =  0.3016   50
 Side 2 forced transition at x/c =  0.9996   74

   3   rms: 0.3345E-02   max: -.1144E-01   D at   58  1
       a =  4.000      CL =  0.8797
      Cm = -0.0751     CD =  0.03368   =>   CDf =  0.00672    CDp =  0.02696

 Side 1  free  transition at x/c =  0.3016   50
 Side 2 forced transition at x/c =  0.9996   74

   4   rms: 0.6851E-04   max: -.2701E-03   D at   53  1
       a =  4.000      CL =  0.8797
      Cm = -0.0751     CD =  0.03368   =>   CDf =  0.00674    CDp =  0.02695
 plradd ia,ip,cpol           17           0  0.13667046    

 Point added to stored polar  1
 Point written to save file  ui1720_Re200k.base.pol                          
 Dump file unspecified or not available
 Calculating wake trajectory ...
 Calculating source influence matrix ...

 Solving BL system ...

 Side 1  free  transition at x/c =  0.3016   50
 Side 2 forced transition at x/c =  0.9996   74

   1   rms: 0.8185E-01   max: 0.1464E+00   D at   84  2
       a =  4.500      CL =  0.9184
      Cm = -0.0743     CD =  0.03757   =>   CDf =  0.00675    CDp =  0.03083

 Side 1  free  transition at x/c =  0.3028   50
 Side 2 forced transition at x/c =  0.9996   74

   2   rms: 0.2926E-01   max: 0.9545E-01   D at   56  1
       a =  4.500      CL =  0.9109
      Cm = -0.0745     CD =  0.03920   =>   CDf =  0.00652    CDp =  0.03268

 Side 1  free  transition at x/c =  0.3043   50
 Side 2 forced transition at x/c =  0.9996   74

   3   rms: 0.1642E-02   max: 0.1202E-01   D at   55  1
       a =  4.500      CL =  0.9102
      Cm = -0.0746     CD =  0.03924   =>   CDf =  0.00636    CDp =  0.03288

 Side 1  free  transition at x/c =  0.3044   50
 Side 2 forced transition at x/c =  0.9996   74

   4   rms: 0.4553E-04   max: 0.3333E-03   D at   55  1
       a =  4.500      CL =  0.9102
      Cm = -0.0746     CD =  0.03924   =>   CDf =  0.00635    CDp =  0.03288
 plradd ia,ip,cpol           18           0  0.12628180    

 Point added to stored polar  1
 Point written to save file  ui1720_Re200k.base.pol                          
 Dump file unspecified or not available
 Calculating wake trajectory ...
 Calculating source influence matrix ...

 Solving BL system ...

 Side 1  free  transition at x/c =  0.3044   50
 Side 2 forced transition at x/c =  0.9996   74

   1   rms: 0.1137E+00   max: -.3830E+00   T at   50  1
       a =  5.000      CL =  0.9286
      Cm = -0.0742     CD =  0.04752   =>   CDf =  0.00637    CDp =  0.04115

 Side 1  free  transition at x/c =  0.3143   51
 Side 2 forced transition at x/c =  0.9996   74

   2   rms: 0.7739E-02   max: 0.4765E-01   D at   51  1
       a =  5.000      CL =  0.9335
      Cm = -0.0752     CD =  0.04701   =>   CDf =  0.00603    CDp =  0.04098

 Side 1  free  transition at x/c =  0.3148   51
 Side 2 forced transition at x/c =  0.9996   74

   3   rms: 0.6931E-03   max: 0.2662E-02   D at   86  1
       a =  5.000      CL =  0.9334
      Cm = -0.0752     CD =  0.04697   =>   CDf =  0.00599    CDp =  0.04098

 Side 1  free  transition at x/c =  0.3148   51
 Side 2 forced transition at x/c =  0.9996   74

   4   rms: 0.1055E-04   max: 0.1782E-04   C at   74  2
       a =  5.000      CL =  0.9334
      Cm = -0.0752     CD =  0.04697   =>   CDf =  0.00599    CDp =  0.04098
 plradd ia,ip,cpol           19           0  0.12628180    

 Point added to stored polar  1
 Point written to save file  ui1720_Re200k.base.pol                          
 Dump file unspecified or not available
 Calculating wake trajectory ...
 Calculating source influence matrix ...

 Solving BL system ...

 Side 1  free  transition at x/c =  0.3148   51
 Side 2 forced transition at x/c =  0.9996   74

   1   rms: 0.7004E-01   max: -.7125E-01   n at   73  2
       a =  5.500      CL =  0.9780
      Cm = -0.0741     CD =  0.04947   =>   CDf =  0.00586    CDp =  0.04360

 Side 1  free  transition at x/c =  0.3126   52
 Side 2 forced transition at x/c =  0.9996   73

   2   rms: 0.4797E-01   max: -.1731E+00   D at   89  1
       a =  5.500      CL =  0.9798
      Cm = -0.0747     CD =  0.04955   =>   CDf =  0.00594    CDp =  0.04360

 Side 1  free  transition at x/c =  0.3133   52
 Side 2 forced transition at x/c =  0.9996   73

   3   rms: 0.9381E-02   max: -.4468E-01   D at   89  1
       a =  5.500      CL =  0.9765
      Cm = -0.0744     CD =  0.04999   =>   CDf =  0.00603    CDp =  0.04396

 Side 1  free  transition at x/c =  0.3134   52
 Side 2 forced transition at x/c =  0.9996   73

   4   rms: 0.4040E-03   max: -.2245E-02   D at   89  1
       a =  5.500      CL =  0.9760
      Cm = -0.0743     CD =  0.05005   =>   CDf =  0.00605    CDp =  0.04400

 Side 1  free  transition at x/c =  0.3134   52
 Side 2 forced transition at x/c =  0.9996   73

   5   rms: 0.3407E-05   max: 0.1278E-04   D at   72  1
       a =  5.500      CL =  0.9760
      Cm = -0.0743     CD =  0.05005   =>   CDf =  0.00605    CDp =  0.04400
 plradd ia,ip,cpol           20           0  0.12628180    

 Point added to stored polar  1
 Point written to save file  ui1720_Re200k.base.pol                          
 Dump file unspecified or not available
 Calculating wake trajectory ...
 Calculating source influence matrix ...

 Solving BL system ...

 Side 1  free  transition at x/c =  0.3134   52
 Side 2 forced transition at x/c =  0.9996   73

   1   rms: 0.6881E-01   max: 0.7986E-01   D at   90  2
       a =  6.000      CL =  1.0183
      Cm = -0.0735     CD =  0.05364   =>   CDf =  0.00591    CDp =  0.04773

 Side 1  free  transition at x/c =  0.3131   53
 Side 2 forced transition at x/c =  0.9996   72

   2   rms: 0.5633E-01   max: 0.2290E+00   T at   53  1
       a =  6.000      CL =  1.0226
      Cm = -0.0735     CD =  0.05396   =>   CDf =  0.00625    CDp =  0.04771

 Side 1  free  transition at x/c =  0.3116   52
 Side 2 forced transition at x/c =  0.9996   72

   3   rms: 0.4927E-01   max: -.2022E+00   T at   52  1
       a =  6.000      CL =  1.0412
      Cm = -0.0747     CD =  0.05459   =>   CDf =  0.00608    CDp =  0.04851

 Side 1  free  transition at x/c =  0.3093   52
 Side 2 forced transition at x/c =  0.9996   72
 idif Ue xi dudx           1  0.13732238      2.55727768E-03   53.698658    
 Uenew xinew           2  5.68442466E-03  1.05857849E-04

   4   rms: 0.1964E+00   max: 0.1126E+01   T at   52  1   RLX: 0.902
       a =  6.000      CL =  0.9958
      Cm = -0.0714     CD =  0.05245   =>   CDf =  0.00667    CDp =  0.04578

 Side 1  free  transition at x/c =  0.3128   52
 Side 2 forced transition at x/c =  0.9996   73

   5   rms: 0.8455E-01   max: 0.3798E+00   D at    2  2
       a =  6.000      CL =  1.0321
      Cm = -0.0727     CD =  0.05151   =>   CDf =  0.00559    CDp =  0.04592

 Side 1  free  transition at x/c =  0.3124   53
 Side 2 forced transition at x/c =  0.9996   72

   6   rms: 0.2594E-01   max: -.1345E+00   D at   88  1
       a =  6.000      CL =  1.0257
      Cm = -0.0739     CD =  0.05372   =>   CDf =  0.00604    CDp =  0.04768

 Side 1  free  transition at x/c =  0.3119   53
 Side 2 forced transition at x/c =  0.9996   72

   7   rms: 0.3209E-01   max: -.2670E+00   T at   53  1
       a =  6.000      CL =  1.0255
      Cm = -0.0736     CD =  0.05074   =>   CDf =  0.00615    CDp =  0.04458

 Side 1  free  transition at x/c =  0.3134   53
 Side 2 forced transition at x/c =  0.9996   72

   8   rms: 0.5276E-01   max: -.2364E+00   D at   89  1
       a =  6.000      CL =  1.0321
      Cm = -0.0738     CD =  0.05200   =>   CDf =  0.00582    CDp =  0.04618

 Side 1  free  transition at x/c =  0.3124   53
 Side 2 forced transition at x/c =  0.9996   72

   9   rms: 0.2683E-01   max: -.1615E+00   D at   90  1
       a =  6.000      CL =  1.0271
      Cm = -0.0741     CD =  0.05366   =>   CDf =  0.00602    CDp =  0.04765

 Side 1  free  transition at x/c =  0.3120   53
 Side 2 forced transition at x/c =  0.9996   72

  10   rms: 0.3604E-01   max: -.3143E+00   T at   53  1
       a =  6.000      CL =  1.0261
      Cm = -0.0736     CD =  0.05017   =>   CDf =  0.00615    CDp =  0.04402

 Side 1  free  transition at x/c =  0.3138   53
 Side 2 forced transition at x/c =  0.9996   72

  11   rms: 0.6304E-01   max: -.2813E+00   D at   86  1
       a =  6.000      CL =  1.0327
      Cm = -0.0729     CD =  0.05139   =>   CDf =  0.00576    CDp =  0.04563

 Side 1  free  transition at x/c =  0.3126   53
 Side 2 forced transition at x/c =  0.9996   72

  12   rms: 0.3524E-01   max: -.2071E+00   D at   89  1
       a =  6.000      CL =  1.0284
      Cm = -0.0740     CD =  0.05335   =>   CDf =  0.00596    CDp =  0.04740

 Side 1  free  transition at x/c =  0.3121   53
 Side 2 forced transition at x/c =  0.9996   72

  13   rms: 0.7317E-01   max: -.7050E+00   T at   53  1   RLX: 0.709
       a =  6.000      CL =  1.0303
      Cm = -0.0737     CD =  0.04828   =>   CDf =  0.00613    CDp =  0.04215

 MRCHDU: Convergence failed at  90  side 1    Res =  0.8357E+00
 Side 1  free  transition at x/c =  0.3153   53
 Side 2 forced transition at x/c =  0.9996   72

  14   rms: 0.9654E-01   max: -.4251E+00   D at   79  1
       a =  6.000      CL =  1.0264
      Cm = -0.0673     CD =  0.04921   =>   CDf =  0.00560    CDp =  0.04361

 Side 1  free  transition at x/c =  0.3129   53
 Side 2 forced transition at x/c =  0.9996   72

  15   rms: 0.6382E-01   max: -.3556E+00   D at   84  1
       a =  6.000      CL =  1.0252
      Cm = -0.0708     CD =  0.05200   =>   CDf =  0.00578    CDp =  0.04622

 Side 1  free  transition at x/c =  0.3125   53
 Side 2 forced transition at x/c =  0.9996   72

  16   rms: 0.2643E-01   max: -.1797E+00   D at   88  1
       a =  6.000      CL =  1.0244
      Cm = -0.0735     CD =  0.05379   =>   CDf =  0.00603    CDp =  0.04776

 Side 1  free  transition at x/c =  0.3119   53
 Side 2 forced transition at x/c =  0.9996   72

  17   rms: 0.3329E-01   max: -.2637E+00   T at   53  1
       a =  6.000      CL =  1.0254
      Cm = -0.0736     CD =  0.05079   =>   CDf =  0.00614    CDp =  0.04465

 Side 1  free  transition at x/c =  0.3134   53
 Side 2 forced transition at x/c =  0.9996   72

  18   rms: 0.5217E-01   max: -.2350E+00   D at   89  1
       a =  6.000      CL =  1.0319
      Cm = -0.0738     CD =  0.05206   =>   CDf =  0.00583    CDp =  0.04624

 Side 1  free  transition at x/c =  0.3124   53
 Side 2 forced transition at x/c =  0.9996   72

  19   rms: 0.2534E-01   max: -.1543E+00   D at   90  1
       a =  6.000      CL =  1.0268
      Cm = -0.0741     CD =  0.05370   =>   CDf =  0.00602    CDp =  0.04768

 Side 1  free  transition at x/c =  0.3120   53
 Side 2 forced transition at x/c =  0.9996   72

  20   rms: 0.3426E-01   max: -.2941E+00   T at   53  1
       a =  6.000      CL =  1.0258
      Cm = -0.0736     CD =  0.05041   =>   CDf =  0.00615    CDp =  0.04426

 Side 1  free  transition at x/c =  0.3137   53
 Side 2 forced transition at x/c =  0.9996   72

  21   rms: 0.5863E-01   max: -.2622E+00   D at   88  1
       a =  6.000      CL =  1.0324
      Cm = -0.0733     CD =  0.05165   =>   CDf =  0.00579    CDp =  0.04586

 Side 1  free  transition at x/c =  0.3125   53
 Side 2 forced transition at x/c =  0.9996   72

  22   rms: 0.3166E-01   max: -.1876E+00   D at   90  1
       a =  6.000      CL =  1.0279
      Cm = -0.0741     CD =  0.05349   =>   CDf =  0.00598    CDp =  0.04750

 Side 1  free  transition at x/c =  0.3120   53
 Side 2 forced transition at x/c =  0.9996   72

  23   rms: 0.4981E-01   max: -.4583E+00   T at   53  1
       a =  6.000      CL =  1.0278
      Cm = -0.0735     CD =  0.04853   =>   CDf =  0.00614    CDp =  0.04239

 Side 1  free  transition at x/c =  0.3149   53
 Side 2 forced transition at x/c =  0.9996   72

  24   rms: 0.9123E-01   max: -.4058E+00   D at   80  1
       a =  6.000      CL =  1.0320
      Cm = -0.0692     CD =  0.04960   =>   CDf =  0.00563    CDp =  0.04397

 Side 1  free  transition at x/c =  0.3130   53
 Side 2 forced transition at x/c =  0.9996   72

  25   rms: 0.5562E-01   max: -.3163E+00   D at   85  1
       a =  6.000      CL =  1.0269
      Cm = -0.0719     CD =  0.05228   =>   CDf =  0.00581    CDp =  0.04647

 Side 1  free  transition at x/c =  0.3124   53
 Side 2 forced transition at x/c =  0.9996   72

  26   rms: 0.2447E-01   max: -.1682E+00   D at   88  1
       a =  6.000      CL =  1.0250
      Cm = -0.0738     CD =  0.05389   =>   CDf =  0.00605    CDp =  0.04785

 Side 1  free  transition at x/c =  0.3119   53
 Side 2 forced transition at x/c =  0.9996   72

  27   rms: 0.2866E-01   max: -.2291E+00   T at   53  1
       a =  6.000      CL =  1.0249
      Cm = -0.0736     CD =  0.05122   =>   CDf =  0.00615    CDp =  0.04506

 Side 1  free  transition at x/c =  0.3132   53
 Side 2 forced transition at x/c =  0.9996   72

  28   rms: 0.4395E-01   max: -.1998E+00   D at   90  1
       a =  6.000      CL =  1.0304
      Cm = -0.0740     CD =  0.05246   =>   CDf =  0.00588    CDp =  0.04658

 Side 1  free  transition at x/c =  0.3123   53
 Side 2 forced transition at x/c =  0.9996   72

  29   rms: 0.2080E-01   max: -.1241E+00   D at   90  1
       a =  6.000      CL =  1.0258
      Cm = -0.0741     CD =  0.05389   =>   CDf =  0.00606    CDp =  0.04783

 Side 1  free  transition at x/c =  0.3119   53
 Side 2 forced transition at x/c =  0.9996   72

  30   rms: 0.2709E-01   max: -.2238E+00   T at   53  1
       a =  6.000      CL =  1.0248
      Cm = -0.0736     CD =  0.05127   =>   CDf =  0.00616    CDp =  0.04511

 Side 1  free  transition at x/c =  0.3132   53
 Side 2 forced transition at x/c =  0.9996   72

  31   rms: 0.4253E-01   max: -.1933E+00   D at   90  1
       a =  6.000      CL =  1.0301
      Cm = -0.0740     CD =  0.05251   =>   CDf =  0.00589    CDp =  0.04662

 Side 1  free  transition at x/c =  0.3123   53
 Side 2 forced transition at x/c =  0.9996   72

  32   rms: 0.2046E-01   max: -.1206E+00   D at   90  1
       a =  6.000      CL =  1.0257
      Cm = -0.0741     CD =  0.05391   =>   CDf =  0.00606    CDp =  0.04785

 Side 1  free  transition at x/c =  0.3119   53
 Side 2 forced transition at x/c =  0.9996   72

  33   rms: 0.2639E-01   max: -.2177E+00   T at   53  1
       a =  6.000      CL =  1.0247
      Cm = -0.0736     CD =  0.05135   =>   CDf =  0.00616    CDp =  0.04519

 Side 1  free  transition at x/c =  0.3131   53
 Side 2 forced transition at x/c =  0.9996   72

  34   rms: 0.4102E-01   max: -.1869E+00   D at   90  1
       a =  6.000      CL =  1.0296
      Cm = -0.0740     CD =  0.05258   =>   CDf =  0.00590    CDp =  0.04669

 Side 1  free  transition at x/c =  0.3123   53
 Side 2 forced transition at x/c =  0.9996   72

  35   rms: 0.1955E-01   max: -.1145E+00   D at   90  1
       a =  6.000      CL =  1.0255
      Cm = -0.0741     CD =  0.05395   =>   CDf =  0.00607    CDp =  0.04788

 Side 1  free  transition at x/c =  0.3119   53
 Side 2 forced transition at x/c =  0.9996   72

  36   rms: 0.2549E-01   max: -.2085E+00   T at   53  1
       a =  6.000      CL =  1.0246
      Cm = -0.0736     CD =  0.05147   =>   CDf =  0.00616    CDp =  0.04531

 Side 1  free  transition at x/c =  0.3131   53
 Side 2 forced transition at x/c =  0.9996   72

  37   rms: 0.3877E-01   max: -.1773E+00   D at   90  1
       a =  6.000      CL =  1.0290
      Cm = -0.0740     CD =  0.05269   =>   CDf =  0.00591    CDp =  0.04678

 Side 1  free  transition at x/c =  0.3123   53
 Side 2 forced transition at x/c =  0.9996   72

  38   rms: 0.1805E-01   max: -.1046E+00   D at   90  1
       a =  6.000      CL =  1.0252
      Cm = -0.0740     CD =  0.05400   =>   CDf =  0.00608    CDp =  0.04792

 Side 1  free  transition at x/c =  0.3119   53
 Side 2 forced transition at x/c =  0.9996   72

  39   rms: 0.2421E-01   max: -.1959E+00   T at   53  1
       a =  6.000      CL =  1.0244
      Cm = -0.0736     CD =  0.05164   =>   CDf =  0.00617    CDp =  0.04547

 Side 1  free  transition at x/c =  0.3130   53
 Side 2 forced transition at x/c =  0.9996   72

  40   rms: 0.3585E-01   max: -.1644E+00   D at   90  1
       a =  6.000      CL =  1.0285
      Cm = -0.0741     CD =  0.05285   =>   CDf =  0.00593    CDp =  0.04692

 Side 1  free  transition at x/c =  0.3122   53
 Side 2 forced transition at x/c =  0.9996   72

  41   rms: 0.1617E-01   max: -.9277E-01   D at   90  1
       a =  6.000      CL =  1.0248
      Cm = -0.0740     CD =  0.05409   =>   CDf =  0.00610    CDp =  0.04800

 Side 1  free  transition at x/c =  0.3118   53
 Side 2 forced transition at x/c =  0.9996   72

  42   rms: 0.2272E-01   max: -.1800E+00   T at   53  1
       a =  6.000      CL =  1.0241
      Cm = -0.0736     CD =  0.05186   =>   CDf =  0.00617    CDp =  0.04569

 Side 1  free  transition at x/c =  0.3128   53
 Side 2 forced transition at x/c =  0.9996   72

  43   rms: 0.3218E-01   max: -.1478E+00   D at   90  1
       a =  6.000      CL =  1.0276
      Cm = -0.0740     CD =  0.05304   =>   CDf =  0.00596    CDp =  0.04708

 Side 1  free  transition at x/c =  0.3122   53
 Side 2 forced transition at x/c =  0.9996   72

  44   rms: 0.9678E-01   max: 0.1069E+01   T at   53  1
       a =  6.000      CL =  1.0104
      Cm = -0.0740     CD =  0.06488   =>   CDf =  0.00611    CDp =  0.05877

 Side 1  free  transition at x/c =  0.3079   52
 Side 2 forced transition at x/c =  0.9996   72

  45   rms: 0.6590E+00   max: 0.5162E+01   T at   52  1   RLX: 0.217
       a =  6.000      CL =  1.0124
      Cm = -0.0741     CD =  0.03325   =>   CDf =  0.00754    CDp =  0.02572

 Side 1  free  transition at x/c =  0.3030   52
 Side 2 forced transition at x/c =  0.9996   72

  46   rms: 0.3049E+00   max: 0.1350E+01   D at   53  1
       a =  6.000      CL =  1.0932
      Cm = -0.0754     CD =  0.04178   =>   CDf =  0.00769    CDp =  0.03409

 Side 1  free  transition at x/c =  0.2985   52
 Side 2 forced transition at x/c =  0.9996   72
 idif Ue xi dudx           1  0.16878624      3.12042236E-03   54.090832    
 Uenew xinew           2  3.61869037E-02  6.69002533E-04

  47   rms: 0.3954E+00   max: 0.1390E+01   D at   55  1   RLX: 0.808
       a =  6.000      CL =  0.9631
      Cm = -0.0667     CD =  0.05687   =>   CDf =  0.00699    CDp =  0.04988

 Side 1  free  transition at x/c =  0.3348   53
 Side 2 forced transition at x/c =  0.9996   73

  48   rms: 0.1557E+00   max: 0.1084E+01   T at   53  1
       a =  6.000      CL =  1.0504
      Cm = -0.0771     CD =  0.05352   =>   CDf =  0.00598    CDp =  0.04754

 MRCHDU: Convergence failed at  59  side 1    Res =  0.1995E+01
 MRCHDU: Convergence failed at  60  side 1    Res =  0.4416E+01
 MRCHDU: Convergence failed at  61  side 1    Res =  0.2484E+02
 MRCHDU: Convergence failed at  62  side 1    Res =  0.9904E+01
 MRCHDU: Convergence failed at  63  side 1    Res =  0.4952E+01
 MRCHDU: Convergence failed at  64  side 1    Res =  0.3641E+01
 MRCHDU: Convergence failed at  65  side 1    Res =  0.3049E+01
 MRCHDU: Convergence failed at  66  side 1    Res =  0.2732E+01
 MRCHDU: Convergence failed at  67  side 1    Res =  0.2555E+01
 MRCHDU: Convergence failed at  68  side 1    Res =  0.2465E+01
 MRCHDU: Convergence failed at  69  side 1    Res =  0.2374E+01
 MRCHDU: Convergence failed at  70  side 1    Res =  0.2397E+01
 MRCHDU: Convergence failed at  71  side 1    Res =  0.2449E+01
 MRCHDU: Convergence failed at  72  side 1    Res =  0.2526E+01
 MRCHDU: Convergence failed at  73  side 1    Res =  0.2621E+01
 MRCHDU: Convergence failed at  74  side 1    Res =  0.2731E+01
 MRCHDU: Convergence failed at  75  side 1    Res =  0.2874E+01
 MRCHDU: Convergence failed at  76  side 1    Res =  0.3019E+01
 MRCHDU: Convergence failed at  77  side 1    Res =  0.3167E+01
 MRCHDU: Convergence failed at  78  side 1    Res =  0.3337E+01
 MRCHDU: Convergence failed at  79  side 1    Res =  0.3522E+01
 MRCHDU: Convergence failed at  80  side 1    Res =  0.3726E+01
 MRCHDU: Convergence failed at  81  side 1    Res =  0.3955E+01
 MRCHDU: Convergence failed at  82  side 1    Res =  0.4216E+01
 MRCHDU: Convergence failed at  83  side 1    Res =  0.4579E+01
 MRCHDU: Convergence failed at  84  side 1    Res =  0.4953E+01
 MRCHDU: Convergence failed at  85  side 1    Res =  0.5505E+01
 MRCHDU: Convergence failed at  86  side 1    Res =  0.6050E+01
 MRCHDU: Convergence failed at  87  side 1    Res =  0.6823E+01
 MRCHDU: Convergence failed at  88  side 1    Res =  0.7517E+01
 MRCHDU: Convergence failed at  89  side 1    Res =  0.9500E+01
 MRCHDU: Convergence failed at  90  side 1    Res =  0.1516E+02
 Side 1  free  transition at x/c =  0.3170   53
 Side 2 forced transition at x/c =  0.9996   72

  49   rms: 0.5182E+00   max: 0.3419E+01   T at   53  1   RLX: 0.244
       a =  6.000      CL =  1.2898
      Cm = -0.2085     CD =  0.02539   =>   CDf =  0.00563    CDp =  0.01976

 Side 1  free  transition at x/c =  0.3127   53
 Side 2 forced transition at x/c =  0.9996   72

  50   rms: 0.3456E+00   max: 0.9990E+00   C at   72  2   RLX: 0.889
       a =  6.000      CL =  1.2029
      Cm = -0.1061     CD =  0.03388   =>   CDf =  0.00859    CDp =  0.02528

 Side 1  free  transition at x/c =  0.3142   54
 Side 2 forced transition at x/c =  0.9996   71
 idif Ue xi dudx           1  0.15394603      3.21125984E-03   47.939449    
 Uenew xinew           2  3.28774042E-02  6.85811043E-04

  51   rms: 0.1503E+00   max: -.1177E+01   T at    2  1   RLX: 0.425
       a =  6.000      CL =  1.1379
      Cm = -0.0960     CD =  0.04594   =>   CDf =  0.00604    CDp =  0.03990

 Side 1  free  transition at x/c =  0.3133   53
 Side 2 forced transition at x/c =  0.9996   72

  52   rms: 0.8150E-01   max: -.3845E+00   C at   72  2
       a =  6.000      CL =  1.0260
      Cm = -0.0743     CD =  0.05296   =>   CDf =  0.00598    CDp =  0.04697

 Side 1  free  transition at x/c =  0.3123   53
 Side 2 forced transition at x/c =  0.9996   72

  53   rms: 0.1081E-01   max: 0.8168E-01   T at   53  1
       a =  6.000      CL =  1.0237
      Cm = -0.0738     CD =  0.05411   =>   CDf =  0.00612    CDp =  0.04799

 Side 1  free  transition at x/c =  0.3118   53
 Side 2 forced transition at x/c =  0.9996   72

  54   rms: 0.2601E-01   max: -.1906E+00   T at   53  1
       a =  6.000      CL =  1.0244
      Cm = -0.0736     CD =  0.05174   =>   CDf =  0.00616    CDp =  0.04558

 Side 1  free  transition at x/c =  0.3128   53
 Side 2 forced transition at x/c =  0.9996   72

  55   rms: 0.3501E-01   max: -.1607E+00   D at   90  1
       a =  6.000      CL =  1.0282
      Cm = -0.0741     CD =  0.05297   =>   CDf =  0.00594    CDp =  0.04702

 Side 1  free  transition at x/c =  0.3122   53
 Side 2 forced transition at x/c =  0.9996   72

  56   rms: 0.6879E-01   max: 0.7712E+00   T at   53  1
       a =  6.000      CL =  1.0140
      Cm = -0.0739     CD =  0.06153   =>   CDf =  0.00611    CDp =  0.05542

 Side 1  free  transition at x/c =  0.3090   52
 Side 2 forced transition at x/c =  0.9996   72

  57   rms: 0.4698E+00   max: 0.1828E+01   D at   53  1   RLX: 0.821
       a =  6.000      CL =  1.0369
      Cm = -0.0754     CD =  0.05117   =>   CDf =  0.00734    CDp =  0.04384

 Side 1  free  transition at x/c =  0.3084   52
 Side 2 forced transition at x/c =  0.9996   72

  58   rms: 0.1841E+00   max: 0.8258E+00   D at   57  1
       a =  6.000      CL =  1.0159
      Cm = -0.0726     CD =  0.05395   =>   CDf =  0.00662    CDp =  0.04732

 Side 1  free  transition at x/c =  0.3110   52
 Side 2 forced transition at x/c =  0.9996   72

  59   rms: 0.4878E-01   max: -.2154E+00   D at   87  1
       a =  6.000      CL =  1.0243
      Cm = -0.0739     CD =  0.05411   =>   CDf =  0.00588    CDp =  0.04823

 Side 1  free  transition at x/c =  0.3118   53
 Side 2 forced transition at x/c =  0.9996   72

  60   rms: 0.3506E-01   max: -.2783E+00   T at   53  1
       a =  6.000      CL =  1.0261
      Cm = -0.0736     CD =  0.05068   =>   CDf =  0.00613    CDp =  0.04455

 Side 1  free  transition at x/c =  0.3135   53
 Side 2 forced transition at x/c =  0.9996   72

  61   rms: 0.5350E-01   max: -.2410E+00   D at   88  1
       a =  6.000      CL =  1.0321
      Cm = -0.0737     CD =  0.05194   =>   CDf =  0.00582    CDp =  0.04613

 Side 1  free  transition at x/c =  0.3124   53
 Side 2 forced transition at x/c =  0.9996   72

  62   rms: 0.2774E-01   max: -.1669E+00   D at   90  1
       a =  6.000      CL =  1.0273
      Cm = -0.0741     CD =  0.05363   =>   CDf =  0.00601    CDp =  0.04762

 Side 1  free  transition at x/c =  0.3120   53
 Side 2 forced transition at x/c =  0.9996   72

  63   rms: 0.3759E-01   max: -.3309E+00   T at   53  1
       a =  6.000      CL =  1.0263
      Cm = -0.0736     CD =  0.04998   =>   CDf =  0.00615    CDp =  0.04383

 Side 1  free  transition at x/c =  0.3139   53
 Side 2 forced transition at x/c =  0.9996   72

  64   rms: 0.6659E-01   max: -.2972E+00   D at   85  1
       a =  6.000      CL =  1.0327
      Cm = -0.0726     CD =  0.05118   =>   CDf =  0.00574    CDp =  0.04544

 Side 1  free  transition at x/c =  0.3126   53
 Side 2 forced transition at x/c =  0.9996   72

  65   rms: 0.3818E-01   max: -.2235E+00   D at   89  1
       a =  6.000      CL =  1.0287
      Cm = -0.0739     CD =  0.05324   =>   CDf =  0.00594    CDp =  0.04730

 Side 1  free  transition at x/c =  0.3121   53
 Side 2 forced transition at x/c =  0.9996   72

  66   rms: 0.1293E+00   max: -.1297E+01   T at   53  1   RLX: 0.385
       a =  6.000      CL =  1.0328
      Cm = -0.0739     CD =  0.04850   =>   CDf =  0.00612    CDp =  0.04238

 MRCHDU: Convergence failed at  90  side 1    Res =  0.9029E+00
 Side 1  free  transition at x/c =  0.3154   53
 Side 2 forced transition at x/c =  0.9996   72

  67   rms: 0.9686E-01   max: -.4285E+00   D at   79  1
       a =  6.000      CL =  1.0254
      Cm = -0.0670     CD =  0.04915   =>   CDf =  0.00560    CDp =  0.04356

 Side 1  free  transition at x/c =  0.3129   53
 Side 2 forced transition at x/c =  0.9996   72

  68   rms: 0.6485E-01   max: -.3629E+00   D at   83  1
       a =  6.000      CL =  1.0243
      Cm = -0.0705     CD =  0.05194   =>   CDf =  0.00578    CDp =  0.04616

 Side 1  free  transition at x/c =  0.3125   53
 Side 2 forced transition at x/c =  0.9996   72

  69   rms: 0.2731E-01   max: -.1848E+00   D at   88  1
       a =  6.000      CL =  1.0243
      Cm = -0.0735     CD =  0.05376   =>   CDf =  0.00603    CDp =  0.04773

 Side 1  free  transition at x/c =  0.3119   53
 Side 2 forced transition at x/c =  0.9996   72

  70   rms: 0.3448E-01   max: -.2736E+00   T at   53  1
       a =  6.000      CL =  1.0256
      Cm = -0.0736     CD =  0.05067   =>   CDf =  0.00614    CDp =  0.04453

 Side 1  free  transition at x/c =  0.3134   53
 Side 2 forced transition at x/c =  0.9996   72

  71   rms: 0.5444E-01   max: -.2449E+00   D at   88  1
       a =  6.000      CL =  1.0322
      Cm = -0.0737     CD =  0.05195   =>   CDf =  0.00582    CDp =  0.04613

 Side 1  free  transition at x/c =  0.3124   53
 Side 2 forced transition at x/c =  0.9996   72

  72   rms: 0.2693E-01   max: -.1638E+00   D at   90  1
       a =  6.000      CL =  1.0271
      Cm = -0.0741     CD =  0.05365   =>   CDf =  0.00601    CDp =  0.04763

 Side 1  free  transition at x/c =  0.3120   53
 Side 2 forced transition at x/c =  0.9996   72

  73   rms: 0.3723E-01   max: -.3244E+00   T at   53  1
       a =  6.000      CL =  1.0262
      Cm = -0.0736     CD =  0.05005   =>   CDf =  0.00615    CDp =  0.04391

 Side 1  free  transition at x/c =  0.3139   53
 Side 2 forced transition at x/c =  0.9996   72

  74   rms: 0.6525E-01   max: -.2912E+00   D at   86  1
       a =  6.000      CL =  1.0327
      Cm = -0.0727     CD =  0.05127   =>   CDf =  0.00575    CDp =  0.04552

 Side 1  free  transition at x/c =  0.3126   53
 Side 2 forced transition at x/c =  0.9996   72

  75   rms: 0.3680E-01   max: -.2164E+00   D at   89  1
       a =  6.000      CL =  1.0286
      Cm = -0.0740     CD =  0.05329   =>   CDf =  0.00595    CDp =  0.04735

 Side 1  free  transition at x/c =  0.3121   53
 Side 2 forced transition at x/c =  0.9996   72

  76   rms: 0.9652E-01   max: -.9503E+00   T at   53  1   RLX: 0.526
       a =  6.000      CL =  1.0318
      Cm = -0.0738     CD =  0.04841   =>   CDf =  0.00612    CDp =  0.04229

 MRCHDU: Convergence failed at  90  side 1    Res =  0.8732E+00
 Side 1  free  transition at x/c =  0.3154   53
 Side 2 forced transition at x/c =  0.9996   72

  77   rms: 0.9667E-01   max: -.4268E+00   D at   79  1
       a =  6.000      CL =  1.0257
      Cm = -0.0671     CD =  0.04917   =>   CDf =  0.00560    CDp =  0.04357

 Side 1  free  transition at x/c =  0.3129   53
 Side 2 forced transition at x/c =  0.9996   72

  78   rms: 0.6435E-01   max: -.3594E+00   D at   84  1
       a =  6.000      CL =  1.0247
      Cm = -0.0706     CD =  0.05196   =>   CDf =  0.00578    CDp =  0.04618

 Side 1  free  transition at x/c =  0.3125   53
 Side 2 forced transition at x/c =  0.9996   72

  79   rms: 0.2687E-01   max: -.1823E+00   D at   88  1
       a =  6.000      CL =  1.0243
      Cm = -0.0735     CD =  0.05378   =>   CDf =  0.00603    CDp =  0.04775

 Side 1  free  transition at x/c =  0.3119   53
 Side 2 forced transition at x/c =  0.9996   72

  80   rms: 0.3392E-01   max: -.2689E+00   T at   53  1
       a =  6.000      CL =  1.0255
      Cm = -0.0736     CD =  0.05073   =>   CDf =  0.00614    CDp =  0.04459

 Side 1  free  transition at x/c =  0.3134   53
 Side 2 forced transition at x/c =  0.9996   72

  81   rms: 0.5337E-01   max: -.2401E+00   D at   89  1
       a =  6.000      CL =  1.0321
      Cm = -0.0737     CD =  0.05200   =>   CDf =  0.00582    CDp =  0.04618

 Side 1  free  transition at x/c =  0.3124   53
 Side 2 forced transition at x/c =  0.9996   72

  82   rms: 0.2610E-01   max: -.1589E+00   D at   90  1
       a =  6.000      CL =  1.0269
      Cm = -0.0741     CD =  0.05368   =>   CDf =  0.00602    CDp =  0.04766

 Side 1  free  transition at x/c =  0.3120   53
 Side 2 forced transition at x/c =  0.9996   72

  83   rms: 0.3580E-01   max: -.3097E+00   T at   53  1
       a =  6.000      CL =  1.0260
      Cm = -0.0736     CD =  0.05023   =>   CDf =  0.00615    CDp =  0.04408

 Side 1  free  transition at x/c =  0.3138   53
 Side 2 forced transition at x/c =  0.9996   72

  84   rms: 0.6206E-01   max: -.2769E+00   D at   87  1
       a =  6.000      CL =  1.0326
      Cm = -0.0730     CD =  0.05145   =>   CDf =  0.00577    CDp =  0.04568

 Side 1  free  transition at x/c =  0.3125   53
 Side 2 forced transition at x/c =  0.9996   72

  85   rms: 0.3426E-01   max: -.2015E+00   D at   89  1
       a =  6.000      CL =  1.0283
      Cm = -0.0740     CD =  0.05339   =>   CDf =  0.00597    CDp =  0.04742

 Side 1  free  transition at x/c =  0.3121   53
 Side 2 forced transition at x/c =  0.9996   72

  86   rms: 0.6516E-01   max: -.6197E+00   T at   53  1   RLX: 0.807
       a =  6.000      CL =  1.0296
      Cm = -0.0736     CD =  0.04821   =>   CDf =  0.00613    CDp =  0.04208

 MRCHDU: Convergence failed at  90  side 1    Res =  0.8257E+00
 Side 1  free  transition at x/c =  0.3153   53
 Side 2 forced transition at x/c =  0.9996   72

  87   rms: 0.9656E-01   max: -.4245E+00   D at   79  1
       a =  6.000      CL =  1.0266
      Cm = -0.0674     CD =  0.04922   =>   CDf =  0.00561    CDp =  0.04361

 Side 1  free  transition at x/c =  0.3129   53
 Side 2 forced transition at x/c =  0.9996   72

  88   rms: 0.6343E-01   max: -.3534E+00   D at   84  1
       a =  6.000      CL =  1.0254
      Cm = -0.0709     CD =  0.05201   =>   CDf =  0.00579    CDp =  0.04623

 Side 1  free  transition at x/c =  0.3125   53
 Side 2 forced transition at x/c =  0.9996   72

  89   rms: 0.2626E-01   max: -.1785E+00   D at   88  1
       a =  6.000      CL =  1.0245
      Cm = -0.0736     CD =  0.05380   =>   CDf =  0.00604    CDp =  0.04777

 Side 1  free  transition at x/c =  0.3119   53
 Side 2 forced transition at x/c =  0.9996   72

  90   rms: 0.3300E-01   max: -.2615E+00   T at   53  1
       a =  6.000      CL =  1.0254
      Cm = -0.0736     CD =  0.05082   =>   CDf =  0.00614    CDp =  0.04467

 Side 1  free  transition at x/c =  0.3134   53
 Side 2 forced transition at x/c =  0.9996   72

  91   rms: 0.5166E-01   max: -.2329E+00   D at   89  1
       a =  6.000      CL =  1.0318
      Cm = -0.0738     CD =  0.05209   =>   CDf =  0.00583    CDp =  0.04626

 Side 1  free  transition at x/c =  0.3124   53
 Side 2 forced transition at x/c =  0.9996   72

  92   rms: 0.2505E-01   max: -.1524E+00   D at   90  1
       a =  6.000      CL =  1.0267
      Cm = -0.0741     CD =  0.05372   =>   CDf =  0.00603    CDp =  0.04769

 Side 1  free  transition at x/c =  0.3120   53
 Side 2 forced transition at x/c =  0.9996   72

  93   rms: 0.3368E-01   max: -.2884E+00   T at   53  1
       a =  6.000      CL =  1.0258
      Cm = -0.0736     CD =  0.05048   =>   CDf =  0.00615    CDp =  0.04433

 Side 1  free  transition at x/c =  0.3136   53
 Side 2 forced transition at x/c =  0.9996   72

  94   rms: 0.5738E-01   max: -.2568E+00   D at   88  1
       a =  6.000      CL =  1.0324
      Cm = -0.0734     CD =  0.05172   =>   CDf =  0.00579    CDp =  0.04592

 Side 1  free  transition at x/c =  0.3125   53
 Side 2 forced transition at x/c =  0.9996   72

  95   rms: 0.3072E-01   max: -.1827E+00   D at   90  1
       a =  6.000      CL =  1.0278
      Cm = -0.0741     CD =  0.05352   =>   CDf =  0.00599    CDp =  0.04753

 Side 1  free  transition at x/c =  0.3120   53
 Side 2 forced transition at x/c =  0.9996   72

  96   rms: 0.4597E-01   max: -.4180E+00   T at   53  1
       a =  6.000      CL =  1.0274
      Cm = -0.0735     CD =  0.04898   =>   CDf =  0.00614    CDp =  0.04284

 Side 1  free  transition at x/c =  0.3146   53
 Side 2 forced transition at x/c =  0.9996   72

  97   rms: 0.8474E-01   max: -.3806E+00   D at   81  1
       a =  6.000      CL =  1.0338
      Cm = -0.0703     CD =  0.05000   =>   CDf =  0.00566    CDp =  0.04434

 Side 1  free  transition at x/c =  0.3130   53
 Side 2 forced transition at x/c =  0.9996   72

  98   rms: 0.4934E-01   max: -.2852E+00   D at   86  1
       a =  6.000      CL =  1.0273
      Cm = -0.0726     CD =  0.05250   =>   CDf =  0.00585    CDp =  0.04666

 Side 1  free  transition at x/c =  0.3123   53
 Side 2 forced transition at x/c =  0.9996   72

  99   rms: 0.2282E-01   max: -.1588E+00   D at   89  1
       a =  6.000      CL =  1.0252
      Cm = -0.0739     CD =  0.05398   =>   CDf =  0.00606    CDp =  0.04793

 Side 1  free  transition at x/c =  0.3119   53
 Side 2 forced transition at x/c =  0.9996   72

 100   rms: 0.2533E-01   max: -.2032E+00   T at   53  1
       a =  6.000      CL =  1.0245
      Cm = -0.0736     CD =  0.05155   =>   CDf =  0.00616    CDp =  0.04539

 Side 1  free  transition at x/c =  0.3130   53
 Side 2 forced transition at x/c =  0.9996   72

 101   rms: 0.3755E-01   max: -.1725E+00   D at   90  1
       a =  6.000      CL =  1.0288
      Cm = -0.0740     CD =  0.05276   =>   CDf =  0.00592    CDp =  0.04684

 Side 1  free  transition at x/c =  0.3122   53
 Side 2 forced transition at x/c =  0.9996   72

 102   rms: 0.1722E-01   max: -.9978E-01   D at   90  1
       a =  6.000      CL =  1.0250
      Cm = -0.0740     CD =  0.05404   =>   CDf =  0.00609    CDp =  0.04795

 Side 1  free  transition at x/c =  0.3119   53
 Side 2 forced transition at x/c =  0.9996   72

 103   rms: 0.2359E-01   max: -.1893E+00   T at   53  1
       a =  6.000      CL =  1.0243
      Cm = -0.0736     CD =  0.05173   =>   CDf =  0.00617    CDp =  0.04556

 Side 1  free  transition at x/c =  0.3129   53
 Side 2 forced transition at x/c =  0.9996   72

 104   rms: 0.3432E-01   max: -.1576E+00   D at   90  1
       a =  6.000      CL =  1.0281
      Cm = -0.0740     CD =  0.05293   =>   CDf =  0.00594    CDp =  0.04699

 Side 1  free  transition at x/c =  0.3122   53
 Side 2 forced transition at x/c =  0.9996   72

 105   rms: 0.5537E-01   max: 0.6285E+00   T at   53  1
       a =  6.000      CL =  1.0159
      Cm = -0.0739     CD =  0.06000   =>   CDf =  0.00610    CDp =  0.05390

 Side 1  free  transition at x/c =  0.3096   52
 Side 2 forced transition at x/c =  0.9996   72

 106   rms: 0.4106E+00   max: 0.1506E+01   D at   53  1   RLX: 0.996
       a =  6.000      CL =  1.0330
      Cm = -0.0752     CD =  0.05649   =>   CDf =  0.00717    CDp =  0.04932

 Side 1  free  transition at x/c =  0.3087   52
 Side 2 forced transition at x/c =  0.9996   72

 107   rms: 0.1631E+00   max: 0.5544E+00   D at   58  1
       a =  6.000      CL =  1.0104
      Cm = -0.0731     CD =  0.05517   =>   CDf =  0.00647    CDp =  0.04870

 Side 1  free  transition at x/c =  0.3156   53
 Side 2 forced transition at x/c =  0.9996   72

 108   rms: 0.1065E+00   max: 0.5235E+00   T at   53  1
       a =  6.000      CL =  1.0313
      Cm = -0.0740     CD =  0.05201   =>   CDf =  0.00629    CDp =  0.04572

 Side 1  free  transition at x/c =  0.3104   52
 Side 2 forced transition at x/c =  0.9996   72

 109   rms: 0.6207E-01   max: -.4984E+00   T at   52  1
       a =  6.000      CL =  1.0471
      Cm = -0.0748     CD =  0.05422   =>   CDf =  0.00596    CDp =  0.04826

 Side 1  free  transition at x/c =  0.3088   52
 Side 2 forced transition at x/c =  0.9996   72
 idif Ue xi dudx           1  0.19125549      3.52871418E-03   54.199768    
 Uenew xinew           2  5.83891049E-02  1.07729435E-03

 110   rms: 0.4308E+00   max: 0.1325E+01   D at   56  1   RLX: 0.530
       a =  6.000      CL =  0.9503
      Cm = -0.0748     CD =  0.06401   =>   CDf =  0.00630    CDp =  0.05771

 Side 1  free  transition at x/c =  0.3083   51
 Side 2 forced transition at x/c =  0.9996   73
 idif Ue xi dudx           1  0.20904560      3.46291065E-03   60.367023    
 Uenew xinew           2  6.51697814E-02  1.07955933E-03

 111   rms: 0.3467E+00   max: 0.1063E+01   D at   89  1
       a =  6.000      CL =  0.8291
      Cm = -0.0883     CD =  0.09331   =>   CDf =  0.00586    CDp =  0.08745

 Side 1  free  transition at x/c =  0.3096   50
 Side 2 forced transition at x/c =  0.9996   74

 112   rms: 0.3574E+00   max: -.5680E+00   D at   77  2   RLX: 0.612
       a =  6.000      CL =  0.9574
      Cm = -0.0660     CD =  0.05920   =>   CDf =  0.00504    CDp =  0.05416

 Side 1  free  transition at x/c =  0.3075   51
 Side 2 forced transition at x/c =  0.9996   73

 113   rms: 0.4281E+00   max: 0.1615E+01   D at   59  1   RLX: 0.755
       a =  6.000      CL =  0.8906
      Cm = -0.0763     CD =  0.07401   =>   CDf =  0.00599    CDp =  0.06801

 MRCHDU: Convergence failed at  62  side 1    Res =  0.4190E+01
 MRCHDU: Convergence failed at  63  side 1    Res =  0.1463E+02
 MRCHDU: Convergence failed at  64  side 1    Res =  0.6533E+02
 MRCHDU: Convergence failed at  65  side 1    Res =  0.2062E+03
 MRCHDU: Convergence failed at  66  side 1    Res =  0.5654E+02
 MRCHDU: Convergence failed at  67  side 1    Res =  0.3953E+02
 MRCHDU: Convergence failed at  68  side 1    Res =  0.3451E+02
 MRCHDU: Convergence failed at  69  side 1    Res =  0.3273E+02
 MRCHDU: Convergence failed at  70  side 1    Res =  0.3235E+02
 MRCHDU: Convergence failed at  71  side 1    Res =  0.3775E+02
 MRCHDU: Convergence failed at  72  side 1    Res =  0.1219E+03
 MRCHDU: Convergence failed at  73  side 1    Res =  0.1727E+03
 MRCHDU: Convergence failed at  74  side 1    Res =  0.2675E+03
 MRCHDU: Convergence failed at  75  side 1    Res =  0.4468E+03
 MRCHDU: Convergence failed at  76  side 1    Res =  0.1085E+04
 MRCHDU: Convergence failed at  77  side 1    Res =  0.3052E+05
 MRCHDU: Convergence failed at  78  side 1    Res =  0.1177E+04
 MRCHDU: Convergence failed at  79  side 1    Res =  0.5981E+03
 MRCHDU: Convergence failed at  80  side 1    Res =  0.4583E+03
 MRCHDU: Convergence failed at  81  side 1    Res =  0.3814E+03
 MRCHDU: Convergence failed at  82  side 1    Res =  0.3835E+03
 MRCHDU: Convergence failed at  83  side 1    Res =  0.4167E+03
 MRCHDU: Convergence failed at  84  side 1    Res =  0.5034E+03
 MRCHDU: Convergence failed at  85  side 1    Res =  0.5964E+03
 MRCHDU: Convergence failed at  86  side 1    Res =  0.9890E+03
 MRCHDU: Convergence failed at  87  side 1    Res =  0.1973E+04
 MRCHDU: Convergence failed at  88  side 1    Res =  0.6781E+03
 MRCHDU: Convergence failed at  89  side 1    Res =  0.2685E+04
 Side 1 forced transition at x/c =  1.0004   89
 Side 2 forced transition at x/c =  0.9996   73

 114   rms: 0.2667E+01   max: 0.2067E+02   D at   76  2   RLX: 0.073
       a =  6.000      CL =  1.5190
      Cm = -0.3755     CD =  0.00702   =>   CDf =  0.00488    CDp =  0.00214

 Side 1  free  transition at x/c =  0.3695   55
 Side 2 forced transition at x/c =  0.9996   73

 115   rms: 0.7111E+00   max: 0.5634E+01   T at   55  1   RLX: 0.199
       a =  6.000      CL =  1.3885
      Cm = -0.2898     CD =  0.09026   =>   CDf =  0.00520    CDp =  0.08506

 Side 1  free  transition at x/c =  0.3681   54
 Side 2 forced transition at x/c =  0.9996   73

 116   rms: 0.1046E+01   max: 0.8448E+01   T at   55  1   RLX: 0.105
       a =  6.000      CL =  1.3594
      Cm = -0.2680     CD =  0.11095   =>   CDf =  0.00550    CDp =  0.10544

 Side 1  free  transition at x/c =  0.3619   54
 Side 2 forced transition at x/c =  0.9996   73
 idif Ue xi dudx           1  0.25902256      4.19640541E-03   61.724865    
 Uenew xinew           2  0.11191052      1.81305408E-03

 117   rms: 0.4742E+00   max: 0.1603E+01   T at   54  1   RLX: 0.472
       a =  6.000      CL =  1.0209
      Cm = -0.1899     CD =  0.09614   =>   CDf =  0.00576    CDp =  0.09038

 Side 1  free  transition at x/c =  0.3222   51
 Side 2 forced transition at x/c =  0.9996   74
 idif Ue xi dudx           1  0.29299918      4.20200825E-03   69.728371    
 Uenew xinew           2  0.13306281      1.90830231E-03

 118   rms: 0.2976E+00   max: 0.1638E+01   T at   51  1   RLX: 0.756
       a =  6.000      CL =  0.7139
      Cm = -0.1208     CD =  0.08627   =>   CDf =  0.00558    CDp =  0.08069

 Side 1  free  transition at x/c =  0.3046   49
 Side 2 forced transition at x/c =  0.9996   75

 119   rms: 0.1563E+00   max: -.6589E+00   D at   95  2   RLX: 0.759
       a =  6.000      CL =  0.6771
      Cm = -0.1025     CD =  0.09842   =>   CDf =  0.00515    CDp =  0.09327

 Side 1  free  transition at x/c =  0.3037   49
 Side 2 forced transition at x/c =  0.9996   75

 120   rms: 0.1462E+00   max: -.6387E+00   D at   94  2   RLX: 0.783
       a =  6.000      CL =  0.7341
      Cm = -0.0961     CD =  0.08866   =>   CDf =  0.00506    CDp =  0.08360

 Side 1  free  transition at x/c =  0.3087   49
 Side 2 forced transition at x/c =  0.9996   75

 121   rms: 0.1957E+01   max: -.1270E+02   T at   49  1   RLX: 0.039
       a =  6.000      CL =  0.7811
      Cm = -0.0925     CD =  0.10116   =>   CDf =  0.00495    CDp =  0.09620

 Side 1  free  transition at x/c =  0.3047   50
 Side 2 forced transition at x/c =  0.9996   74

 122   rms: 0.4796E-01   max: -.6052E+00   D at   50  1   RLX: 0.826
       a =  6.000      CL =  0.7820
      Cm = -0.0942     CD =  0.08905   =>   CDf =  0.00518    CDp =  0.08387

 Side 1  free  transition at x/c =  0.3150   51
 Side 2 forced transition at x/c =  0.9996   74

 123   rms: 0.4028E-01   max: 0.1740E+00   D at   51  1
       a =  6.000      CL =  0.8076
      Cm = -0.0931     CD =  0.08280   =>   CDf =  0.00510    CDp =  0.07771

 Side 1  free  transition at x/c =  0.3144   51
 Side 2 forced transition at x/c =  0.9996   74

 124   rms: 0.2293E-01   max: -.1568E+00   D at   51  1
       a =  6.000      CL =  0.8028
      Cm = -0.0924     CD =  0.08218   =>   CDf =  0.00513    CDp =  0.07706

 Side 1  free  transition at x/c =  0.3154   51
 Side 2 forced transition at x/c =  0.9996   74

 125   rms: 0.9412E-02   max: -.3951E-01   T at   51  1
       a =  6.000      CL =  0.8084
      Cm = -0.0925     CD =  0.08228   =>   CDf =  0.00513    CDp =  0.07716

 Side 1  free  transition at x/c =  0.3158   51
 Side 2 forced transition at x/c =  0.9996   74

[...]
 Side 1  free  transition at x/c =  0.2005   48
 Side 2 forced transition at x/c =  0.9996   69

 114   rms: 0.3752E-01   max: 0.3726E+00   T at   48  1
       a = 15.000      CL =  0.7146
      Cm = -0.0842     CD =  0.17215   =>   CDf =  0.00430    CDp =  0.16785

 Side 1  free  transition at x/c =  0.1963   48
 Side 2 forced transition at x/c =  0.9996   69

 115   rms: 0.2270E-01   max: -.1618E+00   T at   48  1
       a = 15.000      CL =  0.7140
      Cm = -0.0830     CD =  0.16719   =>   CDf =  0.00428    CDp =  0.16291

 Side 1  free  transition at x/c =  0.1982   48
 Side 2 forced transition at x/c =  0.9996   69

 116   rms: 0.1291E-01   max: -.1074E+00   T at   48  1
       a = 15.000      CL =  0.7217
      Cm = -0.0830     CD =  0.16979   =>   CDf =  0.00429    CDp =  0.16550

 Side 1  free  transition at x/c =  0.1993   48
 Side 2 forced transition at x/c =  0.9996   69

 117   rms: 0.6293E-02   max: -.7465E-01   T at   48  1
       a = 15.000      CL =  0.7245
      Cm = -0.0828     CD =  0.17033   =>   CDf =  0.00429    CDp =  0.16603

 Side 1  free  transition at x/c =  0.1999   48
 Side 2 forced transition at x/c =  0.9996   69

 118   rms: 0.1114E-01   max: -.1338E+00   T at   48  1
       a = 15.000      CL =  0.7289
      Cm = -0.0825     CD =  0.17034   =>   CDf =  0.00430    CDp =  0.16605

 Side 1  free  transition at x/c =  0.2005   48
 Side 2 forced transition at x/c =  0.9996   69

 119   rms: 0.2334E-01   max: -.2112E+00   T at   48  1
       a = 15.000      CL =  0.7380
      Cm = -0.0816     CD =  0.16999   =>   CDf =  0.00430    CDp =  0.16569

 Side 1  free  transition at x/c =  0.2006   48
 Side 2 forced transition at x/c =  0.9996   69

 120   rms: 0.1500E-01   max: -.1473E+00   D at   48  1
       a = 15.000      CL =  0.7374
      Cm = -0.0823     CD =  0.17300   =>   CDf =  0.00431    CDp =  0.16869

 Side 1  free  transition at x/c =  0.2013   48
 Side 2 forced transition at x/c =  0.9996   69

 121   rms: 0.2469E-01   max: 0.1377E+00   T at   48  1
       a = 15.000      CL =  0.7256
      Cm = -0.0830     CD =  0.17162   =>   CDf =  0.00431    CDp =  0.16731

 Side 1  free  transition at x/c =  0.1995   48
 Side 2 forced transition at x/c =  0.9996   69

 122   rms: 0.4348E-02   max: -.9232E-01   D at   48  1
       a = 15.000      CL =  0.7258
      Cm = -0.0829     CD =  0.17077   =>   CDf =  0.00430    CDp =  0.16647

 Side 1  free  transition at x/c =  0.2001   48
 Side 2 forced transition at x/c =  0.9996   69

 123   rms: 0.9014E-01   max: -.1095E+01   T at   48  1   RLX: 0.457
       a = 15.000      CL =  0.7396
      Cm = -0.0812     CD =  0.16955   =>   CDf =  0.00430    CDp =  0.16525

 Side 1  free  transition at x/c =  0.1971   48
 Side 2 forced transition at x/c =  0.9996   69

 124   rms: 0.5142E-01   max: -.4638E+00   D at   48  1
       a = 15.000      CL =  0.7242
      Cm = -0.0843     CD =  0.17780   =>   CDf =  0.00432    CDp =  0.17349

 Side 1  free  transition at x/c =  0.1976   48
 Side 2 forced transition at x/c =  0.9996   69

 125   rms: 0.1113E-01   max: -.1530E+00   D at   48  1
       a = 15.000      CL =  0.7236
      Cm = -0.0833     CD =  0.17215   =>   CDf =  0.00429    CDp =  0.16786

 Side 1  free  transition at x/c =  0.1991   48
 Side 2 forced transition at x/c =  0.9996   69

 126   rms: 0.4717E-02   max: -.7506E-01   T at   48  1
       a = 15.000      CL =  0.7243
      Cm = -0.0830     CD =  0.17060   =>   CDf =  0.00429    CDp =  0.16631

 Side 1  free  transition at x/c =  0.1997   48
 Side 2 forced transition at x/c =  0.9996   69

 127   rms: 0.6205E-02   max: -.7863E-01   T at   48  1
       a = 15.000      CL =  0.7266
      Cm = -0.0827     CD =  0.17057   =>   CDf =  0.00430    CDp =  0.16627

 Side 1  free  transition at x/c =  0.2003   48
 Side 2 forced transition at x/c =  0.9996   69

 128   rms: 0.1959E-01   max: 0.2197E+00   T at   48  1
       a = 15.000      CL =  0.7202
      Cm = -0.0836     CD =  0.17148   =>   CDf =  0.00430    CDp =  0.16718

 Side 1  free  transition at x/c =  0.1981   48
 Side 2 forced transition at x/c =  0.9996   69

 129   rms: 0.9163E-02   max: -.9832E-01   T at   48  1
       a = 15.000      CL =  0.7211
      Cm = -0.0830     CD =  0.16961   =>   CDf =  0.00429    CDp =  0.16532

 Side 1  free  transition at x/c =  0.1992   48
 Side 2 forced transition at x/c =  0.9996   69

 130   rms: 0.6690E-02   max: -.7285E-01   T at   48  1
       a = 15.000      CL =  0.7245
      Cm = -0.0829     CD =  0.17042   =>   CDf =  0.00429    CDp =  0.16612

 Side 1  free  transition at x/c =  0.1998   48
 Side 2 forced transition at x/c =  0.9996   69

 131   rms: 0.7819E-02   max: -.9621E-01   T at   48  1
       a = 15.000      CL =  0.7275
      Cm = -0.0826     CD =  0.17051   =>   CDf =  0.00430    CDp =  0.16622

 Side 1  free  transition at x/c =  0.2004   48
 Side 2 forced transition at x/c =  0.9996   69

 132   rms: 0.2474E-01   max: 0.2535E+00   T at   48  1
       a = 15.000      CL =  0.7190
      Cm = -0.0837     CD =  0.17168   =>   CDf =  0.00430    CDp =  0.16738

 Side 1  free  transition at x/c =  0.1977   48
 Side 2 forced transition at x/c =  0.9996   69

 133   rms: 0.1187E-01   max: -.1087E+00   T at   48  1
       a = 15.000      CL =  0.7196
      Cm = -0.0830     CD =  0.16914   =>   CDf =  0.00429    CDp =  0.16485

 Side 1  free  transition at x/c =  0.1990   48
 Side 2 forced transition at x/c =  0.9996   69

 134   rms: 0.7711E-02   max: -.7845E-01   T at   48  1
       a = 15.000      CL =  0.7238
      Cm = -0.0829     CD =  0.17028   =>   CDf =  0.00429    CDp =  0.16598

 Side 1  free  transition at x/c =  0.1997   48
 Side 2 forced transition at x/c =  0.9996   69

 135   rms: 0.6169E-02   max: -.7529E-01   T at   48  1
       a = 15.000      CL =  0.7264
      Cm = -0.0828     CD =  0.17055   =>   CDf =  0.00430    CDp =  0.16626

 Side 1  free  transition at x/c =  0.2002   48
 Side 2 forced transition at x/c =  0.9996   69

 136   rms: 0.2166E-01   max: 0.2475E+00   T at   48  1
       a = 15.000      CL =  0.7193
      Cm = -0.0837     CD =  0.17155   =>   CDf =  0.00430    CDp =  0.16725

 Side 1  free  transition at x/c =  0.1978   48
 Side 2 forced transition at x/c =  0.9996   69

 137   rms: 0.1081E-01   max: -.1115E+00   T at   48  1
       a = 15.000      CL =  0.7202
      Cm = -0.0830     CD =  0.16932   =>   CDf =  0.00429    CDp =  0.16503

 Side 1  free  transition at x/c =  0.1991   48
 Side 2 forced transition at x/c =  0.9996   69

 138   rms: 0.7266E-02   max: -.7599E-01   T at   48  1
       a = 15.000      CL =  0.7240
      Cm = -0.0829     CD =  0.17030   =>   CDf =  0.00429    CDp =  0.16601

 Side 1  free  transition at x/c =  0.1997   48
 Side 2 forced transition at x/c =  0.9996   69

 139   rms: 0.6593E-02   max: -.8062E-01   T at   48  1
       a = 15.000      CL =  0.7267
      Cm = -0.0827     CD =  0.17053   =>   CDf =  0.00430    CDp =  0.16624

 Side 1  free  transition at x/c =  0.2003   48
 Side 2 forced transition at x/c =  0.9996   69

 140   rms: 0.1835E-01   max: 0.2036E+00   T at   48  1
       a = 15.000      CL =  0.7207
      Cm = -0.0835     CD =  0.17146   =>   CDf =  0.00430    CDp =  0.16716

 Side 1  free  transition at x/c =  0.1983   48
 Side 2 forced transition at x/c =  0.9996   69

 141   rms: 0.8227E-02   max: -.9075E-01   T at   48  1
       a = 15.000      CL =  0.7216
      Cm = -0.0830     CD =  0.16980   =>   CDf =  0.00429    CDp =  0.16551

 Side 1  free  transition at x/c =  0.1993   48
 Side 2 forced transition at x/c =  0.9996   69

 142   rms: 0.6354E-02   max: -.7119E-01   T at   48  1
       a = 15.000      CL =  0.7248
      Cm = -0.0829     CD =  0.17045   =>   CDf =  0.00429    CDp =  0.16616

 Side 1  free  transition at x/c =  0.1999   48
 Side 2 forced transition at x/c =  0.9996   69

 143   rms: 0.9414E-02   max: -.1157E+00   T at   48  1
       a = 15.000      CL =  0.7283
      Cm = -0.0826     CD =  0.17044   =>   CDf =  0.00430    CDp =  0.16614

 Side 1  free  transition at x/c =  0.2005   48
 Side 2 forced transition at x/c =  0.9996   69

 144   rms: 0.2378E+01   max: -.2252E+02   T at   48  1   RLX: 0.022
       a = 15.000      CL =  0.7489
      Cm = -0.0807     CD =  0.16921   =>   CDf =  0.00430    CDp =  0.16491

 Side 1  free  transition at x/c =  0.1972   48
 Side 2 forced transition at x/c =  0.9996   69

 145   rms: 0.7851E-01   max: -.4692E+00   D at   48  1
       a = 15.000      CL =  0.7218
      Cm = -0.0850     CD =  0.18213   =>   CDf =  0.00433    CDp =  0.17780

 Side 1  free  transition at x/c =  0.1966   48
 Side 2 forced transition at x/c =  0.9996   69

 146   rms: 0.1743E-01   max: -.2332E+00   D at   48  1
       a = 15.000      CL =  0.7224
      Cm = -0.0835     CD =  0.17269   =>   CDf =  0.00428    CDp =  0.16841

 Side 1  free  transition at x/c =  0.1986   48
 Side 2 forced transition at x/c =  0.9996   69

 147   rms: 0.5531E-02   max: -.8703E-01   T at   48  1
       a = 15.000      CL =  0.7233
      Cm = -0.0830     CD =  0.17045   =>   CDf =  0.00429    CDp =  0.16616

 Side 1  free  transition at x/c =  0.1995   48
 Side 2 forced transition at x/c =  0.9996   69

 148   rms: 0.5492E-02   max: -.6929E-01   T at   48  1
       a = 15.000      CL =  0.7255
      Cm = -0.0828     CD =  0.17052   =>   CDf =  0.00429    CDp =  0.16623

 Side 1  free  transition at x/c =  0.2000   48
 Side 2 forced transition at x/c =  0.9996   69

 149   rms: 0.3280E-01   max: -.3968E+00   T at   48  1
       a = 15.000      CL =  0.7368
      Cm = -0.0816     CD =  0.16967   =>   CDf =  0.00430    CDp =  0.16538

 Side 1  free  transition at x/c =  0.1983   48
 Side 2 forced transition at x/c =  0.9996   69

 150   rms: 0.3614E-01   max: -.3553E+00   D at   48  1
       a = 15.000      CL =  0.7273
      Cm = -0.0837     CD =  0.17587   =>   CDf =  0.00431    CDp =  0.17156

 Side 1  free  transition at x/c =  0.1988   48
 Side 2 forced transition at x/c =  0.9996   69

 151   rms: 0.9156E-02   max: -.1171E+00   D at   48  1
       a = 15.000      CL =  0.7255
      Cm = -0.0832     CD =  0.17220   =>   CDf =  0.00429    CDp =  0.16791

 Side 1  free  transition at x/c =  0.1995   48
 Side 2 forced transition at x/c =  0.9996   69

 152   rms: 0.4370E-02   max: -.6712E-01   T at   48  1
       a = 15.000      CL =  0.7260
      Cm = -0.0829     CD =  0.17079   =>   CDf =  0.00429    CDp =  0.16649

 Side 1  free  transition at x/c =  0.2001   48
 Side 2 forced transition at x/c =  0.9996   69

 153   rms: 0.1144E+00   max: -.1378E+01   T at   48  1   RLX: 0.363
       a = 15.000      CL =  0.7400
      Cm = -0.0812     CD =  0.16956   =>   CDf =  0.00430    CDp =  0.16526

 Side 1  free  transition at x/c =  0.1971   48
 Side 2 forced transition at x/c =  0.9996   69

 154   rms: 0.5198E-01   max: -.4648E+00   D at   48  1
       a = 15.000      CL =  0.7242
      Cm = -0.0843     CD =  0.17788   =>   CDf =  0.00432    CDp =  0.17356

 Side 1  free  transition at x/c =  0.1976   48
 Side 2 forced transition at x/c =  0.9996   69

 155   rms: 0.1125E-01   max: -.1544E+00   D at   48  1
       a = 15.000      CL =  0.7236
      Cm = -0.0833     CD =  0.17216   =>   CDf =  0.00429    CDp =  0.16787
 VISCAL:  Convergence failed
 Calculating wake trajectory ...
 Calculating source influence matrix ...

 Solving BL system ...

 Side 1  free  transition at x/c =  0.1990   48
 Side 2 forced transition at x/c =  0.9996   69

   1   rms: 0.8078E-01   max: 0.1505E+01   T at   48  1   RLX: 0.292
       a = 15.250      CL =  0.7188
      Cm = -0.0842     CD =  0.17234   =>   CDf =  0.00429    CDp =  0.16804

 Side 1  free  transition at x/c =  0.1954   48
 Side 2 forced transition at x/c =  0.9996   69

   2   rms: 0.2444E-01   max: 0.1710E+00   T at   48  1
       a = 15.250      CL =  0.7259
      Cm = -0.0831     CD =  0.16999   =>   CDf =  0.00428    CDp =  0.16572

 Side 1  free  transition at x/c =  0.1938   48
 Side 2 forced transition at x/c =  0.9996   69

   3   rms: 0.6695E-02   max: -.2733E-01   T at   48  1
       a = 15.250      CL =  0.7294
      Cm = -0.0832     CD =  0.17141   =>   CDf =  0.00427    CDp =  0.16714

 Side 1  free  transition at x/c =  0.1941   48
 Side 2 forced transition at x/c =  0.9996   69

   4   rms: 0.1438E-02   max: -.7087E-02   D at   88  2
       a = 15.250      CL =  0.7305
      Cm = -0.0833     CD =  0.17214   =>   CDf =  0.00427    CDp =  0.16787

 Side 1  free  transition at x/c =  0.1941   48
 Side 2 forced transition at x/c =  0.9996   69

   5   rms: 0.1387E-03   max: -.8539E-03   D at   88  2
       a = 15.250      CL =  0.7306
      Cm = -0.0833     CD =  0.17223   =>   CDf =  0.00427    CDp =  0.16796

 Side 1  free  transition at x/c =  0.1941   48
 Side 2 forced transition at x/c =  0.9996   69

   6   rms: 0.6142E-05   max: -.4375E-04   D at   88  2
       a = 15.250      CL =  0.7306
      Cm = -0.0833     CD =  0.17223   =>   CDf =  0.00427    CDp =  0.16796
 plradd ia,ip,cpol           50           0  3.63774262E-02

 Point added to stored polar  1
 Point written to save file  ui1720_Re200k.base.pol                          
 Dump file unspecified or not available
 Calculating wake trajectory ...
 Calculating source influence matrix ...

 Solving BL system ...

 Side 1  free  transition at x/c =  0.1941   48
 Side 2 forced transition at x/c =  0.9996   69

   1   rms: 0.3497E-01   max: 0.3704E+00   T at   48  1   RLX: 0.293
       a = 15.500      CL =  0.7342
      Cm = -0.0832     CD =  0.17259   =>   CDf =  0.00427    CDp =  0.16832

 Side 1  free  transition at x/c =  0.1932   48
 Side 2 forced transition at x/c =  0.9996   69

   2   rms: 0.2702E-01   max: 0.2385E+00   T at   48  1
       a = 15.500      CL =  0.7459
      Cm = -0.0826     CD =  0.17301   =>   CDf =  0.00426    CDp =  0.16875

 Side 1  free  transition at x/c =  0.1917   48
 Side 2 forced transition at x/c =  0.9996   69

   3   rms: 0.1189E-01   max: -.7401E-01   D at   48  1
       a = 15.500      CL =  0.7454
      Cm = -0.0823     CD =  0.17139   =>   CDf =  0.00425    CDp =  0.16714

 Side 1  free  transition at x/c =  0.1919   48
 Side 2 forced transition at x/c =  0.9996   69

   4   rms: 0.3525E-02   max: -.1450E-01   D at   88  2
       a = 15.500      CL =  0.7477
      Cm = -0.0824     CD =  0.17301   =>   CDf =  0.00425    CDp =  0.16875

 Side 1  free  transition at x/c =  0.1920   48
 Side 2 forced transition at x/c =  0.9996   69

   5   rms: 0.4735E-03   max: -.2593E-02   D at   88  2
       a = 15.500      CL =  0.7481
      Cm = -0.0825     CD =  0.17330   =>   CDf =  0.00425    CDp =  0.16905

 Side 1  free  transition at x/c =  0.1920   48
 Side 2 forced transition at x/c =  0.9996   69

   6   rms: 0.3371E-04   max: -.2041E-03   D at   88  2
       a = 15.500      CL =  0.7481
      Cm = -0.0825     CD =  0.17333   =>   CDf =  0.00425    CDp =  0.16907
 plradd ia,ip,cpol           51           0  3.63774262E-02

 Point added to stored polar  1
 Point written to save file  ui1720_Re200k.base.pol                          
 Dump file unspecified or not available
 Calculating wake trajectory ...
 Calculating source influence matrix ...

 Solving BL system ...

 Side 1  free  transition at x/c =  0.1920   48
 Side 2 forced transition at x/c =  0.9996   69

   1   rms: 0.4767E-01   max: 0.3204E+00   T at   48  1   RLX: 0.293
       a = 15.750      CL =  0.7538
      Cm = -0.0821     CD =  0.17358   =>   CDf =  0.00426    CDp =  0.16932

 Side 1  free  transition at x/c =  0.1915   48
 Side 2 forced transition at x/c =  0.9996   69

   2   rms: 0.3747E-01   max: 0.2160E+00   T at   48  1
       a = 15.750      CL =  0.7716
      Cm = -0.0811     CD =  0.17401   =>   CDf =  0.00405    CDp =  0.16996

 Side 1  free  transition at x/c =  0.1907   48
 Side 2 forced transition at x/c =  0.9996   68

   3   rms: 0.2289E-01   max: -.8618E-01   D at   49  1
       a = 15.750      CL =  0.7823
      Cm = -0.0800     CD =  0.17237   =>   CDf =  0.00424    CDp =  0.16813

 Side 1  free  transition at x/c =  0.1909   49
 Side 2 forced transition at x/c =  0.9996   68

   4   rms: 0.1497E-01   max: 0.9529E-01   D at   49  1
       a = 15.750      CL =  0.7803
      Cm = -0.0811     CD =  0.17773   =>   CDf =  0.00425    CDp =  0.17348

 Side 1  free  transition at x/c =  0.1909   49
 Side 2 forced transition at x/c =  0.9996   68

   5   rms: 0.4031E-02   max: -.1669E-01   T at   49  1
       a = 15.750      CL =  0.7776
      Cm = -0.0809     CD =  0.17534   =>   CDf =  0.00424    CDp =  0.17110

 Side 1  free  transition at x/c =  0.1909   49
 Side 2 forced transition at x/c =  0.9996   68

   6   rms: 0.2086E-03   max: -.7346E-03   D at   75  2
       a = 15.750      CL =  0.7777
      Cm = -0.0809     CD =  0.17532   =>   CDf =  0.00424    CDp =  0.17108

 Side 1  free  transition at x/c =  0.1909   49
 Side 2 forced transition at x/c =  0.9996   68

   7   rms: 0.3690E-04   max: -.1775E-03   D at   87  2
       a = 15.750      CL =  0.7777
      Cm = -0.0809     CD =  0.17534   =>   CDf =  0.00424    CDp =  0.17111
 plradd ia,ip,cpol           52           0  3.63774262E-02

 Point added to stored polar  1
 Point written to save file  ui1720_Re200k.base.pol                          
 Dump file unspecified or not available
 Calculating wake trajectory ...
 Calculating source influence matrix ...

 Solving BL system ...

 Side 1  free  transition at x/c =  0.1909   49
 Side 2 forced transition at x/c =  0.9996   68

   1   rms: 0.7920E-01   max: 0.3537E+00   T at   49  1   RLX: 0.296
       a = 16.000      CL =  0.7892
      Cm = -0.0802     CD =  0.17576   =>   CDf =  0.00424    CDp =  0.17152

 Side 1  free  transition at x/c =  0.1907   48
 Side 2 forced transition at x/c =  0.9996   68

   2   rms: 0.7257E-01   max: 0.2726E+00   D at   49  1
       a = 16.000      CL =  0.7551
      Cm = -0.0849     CD =  0.18847   =>   CDf =  0.00424    CDp =  0.18422

 Side 1  free  transition at x/c =  0.1867   48
 Side 2 forced transition at x/c =  0.9996   68
 idif Ue xi dudx           1  9.10791829E-02  3.06999683E-03   29.667517    
 Uenew xinew           2  6.39778841E-03  2.15649605E-04

   3   rms: 0.5888E-01   max: 0.2907E+00   D at   49  1
       a = 16.000      CL =  0.7367
      Cm = -0.0869     CD =  0.18905   =>   CDf =  0.00436    CDp =  0.18469

 Side 1  free  transition at x/c =  0.1818   47
 Side 2 forced transition at x/c =  0.9996   69

   4   rms: 0.2763E-01   max: -.3374E+00   D at   47  1
       a = 16.000      CL =  0.7309
      Cm = -0.0852     CD =  0.17632   =>   CDf =  0.00416    CDp =  0.17216

 Side 1  free  transition at x/c =  0.1834   47
 Side 2 forced transition at x/c =  0.9996   69

   5   rms: 0.1150E-01   max: -.7472E-01   D at   47  1
       a = 16.000      CL =  0.7355
      Cm = -0.0850     CD =  0.17708   =>   CDf =  0.00417    CDp =  0.17291

 Side 1  free  transition at x/c =  0.1841   47
 Side 2 forced transition at x/c =  0.9996   69

   6   rms: 0.3069E-02   max: -.1347E-01   D at   89  2
       a = 16.000      CL =  0.7376
      Cm = -0.0852     CD =  0.17836   =>   CDf =  0.00417    CDp =  0.17419

 Side 1  free  transition at x/c =  0.1841   47
 Side 2 forced transition at x/c =  0.9996   69

   7   rms: 0.4419E-03   max: -.2569E-02   D at   89  2
       a = 16.000      CL =  0.7379
      Cm = -0.0852     CD =  0.17865   =>   CDf =  0.00417    CDp =  0.17449

 Side 1  free  transition at x/c =  0.1841   47
 Side 2 forced transition at x/c =  0.9996   69

   8   rms: 0.3348E-04   max: -.2301E-03   D at   89  2
       a = 16.000      CL =  0.7379
      Cm = -0.0852     CD =  0.17868   =>   CDf =  0.00417    CDp =  0.17452
 plradd ia,ip,cpol           53           0  3.21375951E-02

 Point added to stored polar  1
 Point written to save file  ui1720_Re200k.base.pol                          
 Dump file unspecified or not available

.OPERva   c>  
 Polar accumulation disabled

.OPERv   c>  
 XFOIL   c>  
 XFOIL   c>  