
 ===================================================
  XFOIL Version 6.99
  Copyright (C) 2000   Mark Drela, Harold Youngren

  This software comes with ABSOLUTELY NO WARRANTY,
    subject to the GNU General Public License.

  Caveat computor
 ===================================================

 File  xfoil.def  not found

   QUIT    Exit program

  .OPER    Direct operating point(s)
  .MDES    Complex mapping design routine
  .QDES    Surface speed design routine
  .GDES    Geometry design routine

   SAVE f  Write airfoil to labeled coordinate file
   PSAV f  Write airfoil to plain coordinate file
   ISAV f  Write airfoil to ISES coordinate file
   MSAV f  Write airfoil to MSES coordinate file
   REVE    Reverse written-airfoil node ordering

   LOAD f  Read buffer airfoil from coordinate file
   NACA i  Set NACA 4,5-digit airfoil and buffer airfoil
   INTE    Set buffer airfoil by interpolating two airfoils
   NORM    Buffer airfoil normalization toggle
   XYCM rr Change CM reference location, currently  0.25000 0.00000

   BEND    Display structural properties of current airfoil

   PCOP    Set current-airfoil panel nodes directly from buffer airfoil points
   PANE    Set current-airfoil panel nodes ( 160 ) based on curvature
  .PPAR    Show/change paneling

  .PLOP    Plotting options

   WDEF f  Write  current-settings file
   RDEF f  Reread current-settings file
   NAME s  Specify new airfoil name
   NINC    Increment name version number

   Z       Zoom    | (available in all menus)
   U       Unzoom  | 

 XFOIL   c>  
 Labeled airfoil file.  Name:  USA 29 AIRFOIL                                  

 Number of input coordinate points:  33
 Counterclockwise ordering
 Max thickness =     0.132087  at x =   0.297
 Max camber    =     0.055325  at x =   0.400

  LE  x,y  =  -0.00000   0.00026  |   Chord =   1.00000
  TE  x,y  =   1.00000   0.00000  |

 Current airfoil nodes set from buffer airfoil nodes (  33 )

 WARNING: Poor input coordinate distribution
          Excessive panel angle   71.9  at i =  17
          Repaneling with PANE and/or PPAR suggested
           (doing GDES,CADD before repaneling _may_
            improve excessively coarse LE spacing

 XFOIL   c>  
 XFOIL   c>  
 Sharp trailing edge

 Paneling parameters used...
   Number of panel nodes       160
   Panel bunching parameter    1.000
   TE/LE panel density ratio   0.150
   Refined-area/LE panel density ratio    0.200
   Top    side refined area x/c limits  1.000 1.000
   Bottom side refined area x/c limits  1.000 1.000

 XFOIL   c>  
.OPERi   c>  
 Xtr/c     =  1.0000    top    side
 Xtr/c     =  1.0000    bottom side
 Ncrit     =    9.00   ( 0.070 % turb. level )
 Vacc      =  0.0100

 Klag  =  5.6000     Uxwt  =    1.00
 A     =  6.7000     B     =  0.7500       KCt = 0.01485
 CtiniK=  1.8000     CtiniX=  3.3000

..VPAR   c>  
..VPAR   c>  
.OPERi   c>  
 M  =    0.0000
 Re =    300000

.OPERv   c>  
.OPERv   c>  
.OPERv   c>  
 Polar  1 newly created for accumulation
 Airfoil archived with polar: USA 29 AIRFOIL                                  

Enter  polar save filename  OR  <return> for no file   s>  
 New polar save file available

Enter  polar dump filename  OR  <return> for no file   s>  
 Polar dump file will NOT be written

 Polar accumulation enabled

.OPERva   c>   Calculating unit vorticity distributions ...
 Calculating wake trajectory ...
 Calculating source influence matrix ...

 Solving BL system ...

 Initializing BL ...
    side            1  ...
 MRCHUE: Inverse mode at  43     Hk =   4.135
 MRCHUE: Inverse mode at  44     Hk =   4.726
 MRCHUE: Inverse mode at  45     Hk =   5.305
 MRCHUE: Inverse mode at  46     Hk =   5.874
 MRCHUE: Inverse mode at  47     Hk =   6.433
 MRCHUE: Inverse mode at  48     Hk =   6.981
 MRCHUE: Inverse mode at  49     Hk =   7.519
 MRCHUE: Inverse mode at  50     Hk =   8.046
 MRCHUE: Inverse mode at  51     Hk =   8.563
 MRCHUE: Inverse mode at  52     Hk =   9.072
 MRCHUE: Inverse mode at  53     Hk =   7.689
 MRCHUE: Inverse mode at  54     Hk =   5.849
 MRCHUE: Inverse mode at  55     Hk =   4.590
 MRCHUE: Inverse mode at  56     Hk =   3.629
 MRCHUE: Inverse mode at  57     Hk =   2.860
 MRCHUE: Inverse mode at  74     Hk =   2.500
    side            2  ...
 MRCHUE: Inverse mode at  22     Hk =   3.991
 MRCHUE: Inverse mode at  23     Hk =   5.049
 MRCHUE: Inverse mode at  24     Hk =   6.203
 MRCHUE: Inverse mode at  25     Hk =   7.484
 MRCHUE: Inverse mode at  26     Hk =   8.753
 MRCHUE: Inverse mode at  27     Hk =   9.930
 MRCHUE: Inverse mode at  28     Hk =   5.709
 MRCHUE: Inverse mode at  29     Hk =   2.500
 MRCHUE: Convergence failed at  88  side 2    Res =  0.3651E+02

 MRCHDU: Convergence failed at  88  side 2    Res =  0.1242E+01
 Side 1  free  transition at x/c =  0.6882   53
 Side 2  free  transition at x/c =  0.0830   28

   1   rms: 0.2578E+00   max: -.1436E+01   T at   53  1   RLX: 0.348
       a = -4.000      CL =  0.0153
      Cm = -0.0999     CD =  0.01159   =>   CDf =  0.00789    CDp =  0.00370

 Side 1  free  transition at x/c =  0.7080   54
 Side 2  free  transition at x/c =  0.0813   28

   2   rms: 0.1875E+00   max: -.1257E+01   T at   54  1   RLX: 0.398
       a = -4.000      CL =  0.0731
      Cm = -0.1105     CD =  0.01194   =>   CDf =  0.00808    CDp =  0.00386

 MRCHDU: Convergence failed at  57  side 1    Res =  0.5945E+01
 MRCHDU: Convergence failed at  58  side 1    Res =  0.1871E+02
 MRCHDU: Convergence failed at  75  side 1    Res =  0.2443E+01
 Side 1  free  transition at x/c =  0.7380   57
 Side 2  free  transition at x/c =  0.0809   27

   3   rms: 0.1228E+00   max: 0.5294E+00   C at   59  1
       a = -4.000      CL =  0.0738
      Cm = -0.1070     CD =  0.01287   =>   CDf =  0.00751    CDp =  0.00536

 MRCHDU: Convergence failed at  62  side 1    Res =  0.1610E+01
 MRCHDU: Convergence failed at  63  side 1    Res =  0.1372E+01
 MRCHDU: Convergence failed at  64  side 1    Res =  0.1072E+02
 MRCHDU: Convergence failed at  65  side 1    Res =  0.6556E+02
 MRCHDU: Convergence failed at  66  side 1    Res =  0.7531E+02
 MRCHDU: Convergence failed at  67  side 1    Res =  0.5860E+02
 MRCHDU: Convergence failed at  68  side 1    Res =  0.1256E+03
 MRCHDU: Convergence failed at  69  side 1    Res =  0.9979E+02
 MRCHDU: Convergence failed at  70  side 1    Res =  0.2760E+02
 MRCHDU: Convergence failed at  71  side 1    Res =  0.1391E+02
 MRCHDU: Convergence failed at  72  side 1    Res =  0.8832E+01
 MRCHDU: Convergence failed at  73  side 1    Res =  0.6611E+01
 MRCHDU: Convergence failed at  74  side 1    Res =  0.8376E+01
 MRCHDU: Convergence failed at  75  side 1    Res =  0.4538E+02
 MRCHDU: Convergence failed at  27  side 2    Res =  0.1926E+01
 MRCHDU: Convergence failed at  28  side 2    Res =  0.4536E+01
 MRCHDU: Convergence failed at  29  side 2    Res =  0.8036E+01
 MRCHDU: Convergence failed at  30  side 2    Res =  0.9502E+01
 MRCHDU: Convergence failed at  31  side 2    Res =  0.1716E+02
 MRCHDU: Convergence failed at  32  side 2    Res =  0.1870E+02
 MRCHDU: Convergence failed at  33  side 2    Res =  0.1622E+02
 MRCHDU: Convergence failed at  34  side 2    Res =  0.1301E+02
 MRCHDU: Convergence failed at  35  side 2    Res =  0.1215E+02
 MRCHDU: Convergence failed at  36  side 2    Res =  0.2018E+02
 MRCHDU: Convergence failed at  37  side 2    Res =  0.3148E+02
 MRCHDU: Convergence failed at  38  side 2    Res =  0.4874E+02
 MRCHDU: Convergence failed at  39  side 2    Res =  0.2835E+04
 MRCHDU: Convergence failed at  40  side 2    Res =  0.1778E+02
 MRCHDU: Convergence failed at  41  side 2    Res =  0.1617E+02
 MRCHDU: Convergence failed at  42  side 2    Res =  0.2217E+02
 MRCHDU: Convergence failed at  43  side 2    Res =  0.1111E+03
 MRCHDU: Convergence failed at  44  side 2    Res =  0.2381E+02
 MRCHDU: Convergence failed at  45  side 2    Res =  0.3917E+02
 MRCHDU: Convergence failed at  46  side 2    Res =  0.8436E+02
 MRCHDU: Convergence failed at  47  side 2    Res =  0.5958E+02
 MRCHDU: Convergence failed at  48  side 2    Res =  0.6511E+02
 MRCHDU: Convergence failed at  49  side 2    Res =  0.1149E+05
 MRCHDU: Convergence failed at  50  side 2    Res =  0.6402E+02
 MRCHDU: Convergence failed at  51  side 2    Res =  0.2175E+02
 MRCHDU: Convergence failed at  52  side 2    Res =  0.1628E+02
 MRCHDU: Convergence failed at  53  side 2    Res =  0.5072E+02
 MRCHDU: Convergence failed at  54  side 2    Res =  0.4915E+02
 MRCHDU: Convergence failed at  55  side 2    Res =  0.1737E+02
 MRCHDU: Convergence failed at  56  side 2    Res =  0.2396E+02
 MRCHDU: Convergence failed at  57  side 2    Res =  0.7655E+02
 MRCHDU: Convergence failed at  58  side 2    Res =  0.8258E+02
 MRCHDU: Convergence failed at  59  side 2    Res =  0.2205E+02
 MRCHDU: Convergence failed at  60  side 2    Res =  0.1597E+02
 MRCHDU: Convergence failed at  61  side 2    Res =  0.2824E+02
 MRCHDU: Convergence failed at  62  side 2    Res =  0.1575E+02
 MRCHDU: Convergence failed at  63  side 2    Res =  0.5358E+02
 MRCHDU: Convergence failed at  64  side 2    Res =  0.6290E+02
 MRCHDU: Convergence failed at  65  side 2    Res =  0.7009E+02
 MRCHDU: Convergence failed at  66  side 2    Res =  0.3470E+02
 MRCHDU: Convergence failed at  67  side 2    Res =  0.7839E+02
 MRCHDU: Convergence failed at  68  side 2    Res =  0.4236E+02
 MRCHDU: Convergence failed at  69  side 2    Res =  0.3458E+02
 MRCHDU: Convergence failed at  70  side 2    Res =  0.3294E+02
 MRCHDU: Convergence failed at  71  side 2    Res =  0.3619E+02
 MRCHDU: Convergence failed at  72  side 2    Res =  0.4745E+02
 MRCHDU: Convergence failed at  73  side 2    Res =  0.1098E+03
 MRCHDU: Convergence failed at  74  side 2    Res =  0.4040E+02
 MRCHDU: Convergence failed at  75  side 2    Res =  0.5819E+02
 MRCHDU: Convergence failed at  76  side 2    Res =  0.1735E+03
 MRCHDU: Convergence failed at  77  side 2    Res =  0.1189E+04
 MRCHDU: Convergence failed at  78  side 2    Res =  0.4076E+02
 MRCHDU: Convergence failed at  79  side 2    Res =  0.2546E+02
 MRCHDU: Convergence failed at  80  side 2    Res =  0.1720E+02
 MRCHDU: Convergence failed at  81  side 2    Res =  0.1580E+02
 MRCHDU: Convergence failed at  82  side 2    Res =  0.3342E+02
 MRCHDU: Convergence failed at  83  side 2    Res =  0.2061E+02
 MRCHDU: Convergence failed at  84  side 2    Res =  0.6046E+02
 MRCHDU: Convergence failed at  85  side 2    Res =  0.1432E+03
 MRCHDU: Convergence failed at  86  side 2    Res =  0.5311E+02
 MRCHDU: Convergence failed at  87  side 2    Res =  0.2212E+02
 Side 1  free  transition at x/c =  0.8355   63
 Side 2  free  transition at x/c =  0.0771   26

   4   rms: 0.1241E+01   max: 0.6679E+01   D at   89  2   RLX: 0.225
       a = -4.000      CL = -0.6022
      Cm =  0.1099     CD =  0.00417   =>   CDf =  0.00292    CDp =  0.00126

 MRCHDU: Convergence failed at  37  side 2    Res =  0.1163E+00
 MRCHDU: Convergence failed at  39  side 2    Res =  0.2049E+00
 MRCHDU: Convergence failed at  41  side 2    Res =  0.2226E+00
 MRCHDU: Convergence failed at  42  side 2    Res =  0.1765E+00
 MRCHDU: Convergence failed at  66  side 2    Res =  0.9800E-01
 MRCHDU: Convergence failed at  67  side 2    Res =  0.5473E+01
 MRCHDU: Convergence failed at  68  side 2    Res =  0.8287E+01
 MRCHDU: Convergence failed at  69  side 2    Res =  0.9705E+01
 MRCHDU: Convergence failed at  70  side 2    Res =  0.1163E+02
 MRCHDU: Convergence failed at  71  side 2    Res =  0.1273E+02
 MRCHDU: Convergence failed at  72  side 2    Res =  0.1332E+02
 MRCHDU: Convergence failed at  73  side 2    Res =  0.1307E+02
 MRCHDU: Convergence failed at  74  side 2    Res =  0.1215E+02
 MRCHDU: Convergence failed at  75  side 2    Res =  0.1099E+02
 MRCHDU: Convergence failed at  76  side 2    Res =  0.1041E+02
 MRCHDU: Convergence failed at  77  side 2    Res =  0.9395E+01
 MRCHDU: Convergence failed at  78  side 2    Res =  0.3170E+01
 MRCHDU: Convergence failed at  79  side 2    Res =  0.7137E+01
 MRCHDU: Convergence failed at  80  side 2    Res =  0.1222E+01
 MRCHDU: Convergence failed at  81  side 2    Res =  0.1043E+01
 MRCHDU: Convergence failed at  82  side 2    Res =  0.8462E+00
 MRCHDU: Convergence failed at  83  side 2    Res =  0.1726E+01
 MRCHDU: Convergence failed at  84  side 2    Res =  0.4381E+02
 MRCHDU: Convergence failed at  85  side 2    Res =  0.1536E+01
 MRCHDU: Convergence failed at  86  side 2    Res =  0.1419E+01
 MRCHDU: Convergence failed at  89  side 2    Res =  0.2547E+01
 MRCHDU: Convergence failed at  90  side 2    Res =  0.3216E+02
 Side 1  free  transition at x/c =  0.8205   62
 Side 2  free  transition at x/c =  0.0765   26

   5   rms: 0.4160E+00   max: -.6412E+00   D at   90  2   RLX: 0.432
       a = -4.000      CL = -0.1503
      Cm = -0.0246     CD =  0.01455   =>   CDf =  0.00789    CDp =  0.00665

 MRCHDU: Convergence failed at  66  side 2    Res =  0.1680E+00
 MRCHDU: Convergence failed at  67  side 2    Res =  0.1249E+00
 MRCHDU: Convergence failed at  68  side 2    Res =  0.1088E+00
 MRCHDU: Convergence failed at  69  side 2    Res =  0.1023E+00
 MRCHDU: Convergence failed at  70  side 2    Res =  0.9870E-01
 Side 1  free  transition at x/c =  0.8219   62
 Side 2  free  transition at x/c =  0.0777   26

   6   rms: 0.5961E+00   max: -.3636E+01   D at   43  2   RLX: 0.138
       a = -4.000      CL = -0.0671
      Cm = -0.0507     CD =  0.01445   =>   CDf =  0.00672    CDp =  0.00773

 MRCHDU: Convergence failed at  43  side 2    Res =  0.9430E-01
 MRCHDU: Convergence failed at  70  side 2    Res =  0.1841E+00
 MRCHDU: Convergence failed at  71  side 2    Res =  0.1602E+00
 MRCHDU: Convergence failed at  72  side 2    Res =  0.1479E+00
 MRCHDU: Convergence failed at  73  side 2    Res =  0.1393E+00
 MRCHDU: Convergence failed at  74  side 2    Res =  0.1307E+00
 MRCHDU: Convergence failed at  75  side 2    Res =  0.1214E+00
 MRCHDU: Convergence failed at  76  side 2    Res =  0.1126E+00
 MRCHDU: Convergence failed at  77  side 2    Res =  0.1027E+00
 MRCHDU: Convergence failed at  78  side 2    Res =  0.9283E-01
 Side 1  free  transition at x/c =  0.8197   62
 Side 2  free  transition at x/c =  0.0784   26

   7   rms: 0.1137E+01   max: -.8435E+01   D at   43  2   RLX: 0.059
       a = -4.000      CL = -0.0197
      Cm = -0.0795     CD =  0.01542   =>   CDf =  0.00577    CDp =  0.00965

 MRCHDU: Convergence failed at  43  side 2    Res =  0.2147E+00
 MRCHDU: Convergence failed at  44  side 2    Res =  0.3506E+00
 MRCHDU: Convergence failed at  45  side 2    Res =  0.1082E+00
 MRCHDU: Convergence failed at  46  side 2    Res =  0.9254E-01
 Side 1  free  transition at x/c =  0.8187   62
 Side 2  free  transition at x/c =  0.0788   26

   8   rms: 0.5802E+00   max: -.3617E+01   D at   37  2   RLX: 0.138
       a = -4.000      CL =  0.0431
      Cm = -0.0965     CD =  0.01390   =>   CDf =  0.00572    CDp =  0.00818

 MRCHDU: Convergence failed at  31  side 2    Res =  0.1815E+00
 MRCHDU: Convergence failed at  41  side 2    Res =  0.2244E+01
 MRCHDU: Convergence failed at  42  side 2    Res =  0.4505E-01
 MRCHDU: Convergence failed at  46  side 2    Res =  0.8778E-05
 Side 1  free  transition at x/c =  0.8158   62
 Side 2  free  transition at x/c =  0.0787   26
 idif Ue xi dudx           1  0.14524241      2.74717808E-03   52.869675    
 Uenew xinew           2  7.65130343E-03  1.44720078E-04

   9   rms: 0.3960E+00   max: -.1964E+01   D at   39  2   RLX: 0.255
       a = -4.000      CL =  0.0104
      Cm = -0.0956     CD =  0.01464   =>   CDf =  0.00589    CDp =  0.00875

 MRCHDU: Convergence failed at  45  side 2    Res =  0.2105E+01
 MRCHDU: Convergence failed at  46  side 2    Res =  0.7078E+01
 Side 1  free  transition at x/c =  0.8108   61
 Side 2  free  transition at x/c =  0.0779   27

  10   rms: 0.4445E+00   max: -.1967E+01   D at   40  2   RLX: 0.254
       a = -4.000      CL =  0.0028
      Cm = -0.0966     CD =  0.01498   =>   CDf =  0.00568    CDp =  0.00929

 Side 1  free  transition at x/c =  0.8076   61
 Side 2  free  transition at x/c =  0.0773   27

  11   rms: 0.4340E+00   max: -.1998E+01   D at   66  2   RLX: 0.250
       a = -4.000      CL = -0.0030
      Cm = -0.0963     CD =  0.01433   =>   CDf =  0.00594    CDp =  0.00840

 Side 1  free  transition at x/c =  0.8053   60
 Side 2  free  transition at x/c =  0.0764   27

  12   rms: 0.4347E+00   max: -.2173E+01   D at   66  2   RLX: 0.230
       a = -4.000      CL = -0.0057
      Cm = -0.0962     CD =  0.01383   =>   CDf =  0.00623    CDp =  0.00759

 Side 1  free  transition at x/c =  0.8020   60
 Side 2  free  transition at x/c =  0.0758   27

  13   rms: 0.3912E+00   max: -.1734E+01   D at   58  2   RLX: 0.288
       a = -4.000      CL = -0.0006
      Cm = -0.0968     CD =  0.01296   =>   CDf =  0.00650    CDp =  0.00646

 Side 1  free  transition at x/c =  0.7998   60
 Side 2  free  transition at x/c =  0.0755   27

  14   rms: 0.4041E+00   max: -.1810E+01   D at   54  2   RLX: 0.276
       a = -4.000      CL =  0.0205
      Cm = -0.1010     CD =  0.01234   =>   CDf =  0.00677    CDp =  0.00557

 MRCHDU: Convergence failed at  48  side 2    Res =  0.1861E+00
 MRCHDU: Convergence failed at  49  side 2    Res =  0.3266E+00
 MRCHDU: Convergence failed at  50  side 2    Res =  0.3577E+00
 MRCHDU: Convergence failed at  51  side 2    Res =  0.3713E+00
 MRCHDU: Convergence failed at  52  side 2    Res =  0.1316E+00
 Side 1  free  transition at x/c =  0.7996   60
 Side 2  free  transition at x/c =  0.0759   27

  15   rms: 0.2149E+00   max: -.9764E+00   D at   56  2   RLX: 0.512
       a = -4.000      CL = -0.0203
      Cm = -0.0907     CD =  0.01314   =>   CDf =  0.00753    CDp =  0.00560

 Side 1  free  transition at x/c =  0.7959   60
 Side 2  free  transition at x/c =  0.0748   27

  16   rms: 0.1142E+00   max: -.5791E+00   D at   56  2   RLX: 0.863
       a = -4.000      CL =  0.0252
      Cm = -0.0978     CD =  0.01332   =>   CDf =  0.00742    CDp =  0.00590

 Side 1  free  transition at x/c =  0.7958   60
 Side 2  free  transition at x/c =  0.0754   27

  17   rms: 0.3865E-01   max: -.2013E+00   D at   56  2
       a = -4.000      CL =  0.0612
      Cm = -0.1051     CD =  0.01335   =>   CDf =  0.00744    CDp =  0.00590

 Side 1  free  transition at x/c =  0.7970   61
 Side 2  free  transition at x/c =  0.0764   26

  18   rms: 0.1211E-01   max: -.1746E+00   T at    2  1
       a = -4.000      CL =  0.0669
      Cm = -0.1064     CD =  0.01332   =>   CDf =  0.00735    CDp =  0.00597

 Side 1  free  transition at x/c =  0.7972   61
 Side 2  free  transition at x/c =  0.0766   26

  19   rms: 0.2206E-03   max: 0.2069E-02   D at    4  1
       a = -4.000      CL =  0.0670
      Cm = -0.1064     CD =  0.01332   =>   CDf =  0.00735    CDp =  0.00598

 Side 1  free  transition at x/c =  0.7972   61
 Side 2  free  transition at x/c =  0.0766   26

  20   rms: 0.1072E-05   max: 0.8520E-05   D at    4  1
       a = -4.000      CL =  0.0670
      Cm = -0.1064     CD =  0.01332   =>   CDf =  0.00735    CDp =  0.00598
 plradd ia,ip,cpol            1           0  1.64511483E-02

 Point added to stored polar  1
 Point written to save file  usa29_Re300k.base.pol                           
 Dump file unspecified or not available
 Calculating wake trajectory ...
 Calculating source influence matrix ...

 Solving BL system ...

 Side 1  free  transition at x/c =  0.7972   61
 Side 2  free  transition at x/c =  0.0766   26

   1   rms: 0.8680E-01   max: -.2297E+00   T at   26  2
       a = -3.500      CL =  0.1181
      Cm = -0.1051     CD =  0.01264   =>   CDf =  0.00735    CDp =  0.00529

 Side 1  free  transition at x/c =  0.7747   59
 Side 2  free  transition at x/c =  0.0812   27

   2   rms: 0.2344E-01   max: -.2623E+00   D at   60  1
       a = -3.500      CL =  0.1178
      Cm = -0.1050     CD =  0.01263   =>   CDf =  0.00753    CDp =  0.00510

 Side 1  free  transition at x/c =  0.7745   59
 Side 2  free  transition at x/c =  0.0819   27

   3   rms: 0.3399E-02   max: 0.3481E-01   D at   60  1
       a = -3.500      CL =  0.1172
      Cm = -0.1049     CD =  0.01268   =>   CDf =  0.00750    CDp =  0.00517

 Side 1  free  transition at x/c =  0.7734   59
 Side 2  free  transition at x/c =  0.0816   27

   4   rms: 0.4096E-04   max: -.4288E-03   C at   59  1
       a = -3.500      CL =  0.1172
      Cm = -0.1049     CD =  0.01268   =>   CDf =  0.00751    CDp =  0.00517
 plradd ia,ip,cpol            2           0  2.07643174E-02

 Point added to stored polar  1
 Point written to save file  usa29_Re300k.base.pol                           
 Dump file unspecified or not available
 Calculating wake trajectory ...
 Calculating source influence matrix ...

 Solving BL system ...

 Side 1  free  transition at x/c =  0.7734   59
 Side 2  free  transition at x/c =  0.0816   27

   1   rms: 0.8404E-01   max: -.3553E+00   T at   27  2
       a = -3.000      CL =  0.1543
      Cm = -0.1010     CD =  0.01214   =>   CDf =  0.00758    CDp =  0.00456

 Side 1  free  transition at x/c =  0.7401   58
 Side 2  free  transition at x/c =  0.0891   26

   2   rms: 0.3319E-01   max: -.3491E+00   D at   59  1
       a = -3.000      CL =  0.1696
      Cm = -0.1039     CD =  0.01227   =>   CDf =  0.00771    CDp =  0.00456

 Side 1  free  transition at x/c =  0.7515   59
 Side 2  free  transition at x/c =  0.0909   26

   3   rms: 0.1234E-01   max: 0.1642E+00   C at   59  1
       a = -3.000      CL =  0.1666
      Cm = -0.1033     CD =  0.01227   =>   CDf =  0.00757    CDp =  0.00470

 Side 1  free  transition at x/c =  0.7476   59
 Side 2  free  transition at x/c =  0.0906   26

   4   rms: 0.1692E-02   max: -.2108E-01   D at   62  1
       a = -3.000      CL =  0.1658
      Cm = -0.1032     CD =  0.01229   =>   CDf =  0.00762    CDp =  0.00467

 Side 1  free  transition at x/c =  0.7470   59
 Side 2  free  transition at x/c =  0.0906   26

   5   rms: 0.2627E-04   max: -.3234E-03   D at   59  1
       a = -3.000      CL =  0.1658
      Cm = -0.1032     CD =  0.01229   =>   CDf =  0.00763    CDp =  0.00466
 plradd ia,ip,cpol            3           0  2.07643174E-02

 Point added to stored polar  1
 Point written to save file  usa29_Re300k.base.pol                           
 Dump file unspecified or not available
 Calculating wake trajectory ...
 Calculating source influence matrix ...

 Solving BL system ...

 Side 1  free  transition at x/c =  0.7470   59
 Side 2  free  transition at x/c =  0.0906   26

   1   rms: 0.8765E-01   max: -.3657E+00   T at   26  2
       a = -2.500      CL =  0.2194
      Cm = -0.1023     CD =  0.01198   =>   CDf =  0.00768    CDp =  0.00431

 MRCHDU: Convergence failed at  27  side 2    Res =  0.3125E+01
 Side 1  free  transition at x/c =  0.7247   58
 Side 2  free  transition at x/c =  0.1132   27

   2   rms: 0.2621E-01   max: 0.3296E+00   C at   27  2
       a = -2.500      CL =  0.2138
      Cm = -0.1013     CD =  0.01170   =>   CDf =  0.00758    CDp =  0.00412

 Side 1  free  transition at x/c =  0.7229   58
 Side 2  free  transition at x/c =  0.1149   27

   3   rms: 0.4441E-02   max: 0.5600E-01   C at   27  2
       a = -2.500      CL =  0.2144
      Cm = -0.1015     CD =  0.01177   =>   CDf =  0.00766    CDp =  0.00412

 Side 1  free  transition at x/c =  0.7220   58
 Side 2  free  transition at x/c =  0.1135   27

   4   rms: 0.1203E-03   max: -.1717E-02   D at   27  2
       a = -2.500      CL =  0.2144
      Cm = -0.1015     CD =  0.01177   =>   CDf =  0.00767    CDp =  0.00410

 Side 1  free  transition at x/c =  0.7220   58
 Side 2  free  transition at x/c =  0.1135   27

   5   rms: 0.1613E-05   max: 0.1456E-04   D at    4  1
       a = -2.500      CL =  0.2144
      Cm = -0.1015     CD =  0.01177   =>   CDf =  0.00767    CDp =  0.00410
 plradd ia,ip,cpol            4           0  2.07643174E-02

 Point added to stored polar  1
 Point written to save file  usa29_Re300k.base.pol                           
 Dump file unspecified or not available
 Calculating wake trajectory ...
 Calculating source influence matrix ...

 Solving BL system ...

 Side 1  free  transition at x/c =  0.7220   58
 Side 2  free  transition at x/c =  0.1135   27

   1   rms: 0.1285E+00   max: -.9523E+00   C at   27  2   RLX: 0.525
       a = -2.000      CL =  0.2392
      Cm = -0.1006     CD =  0.01141   =>   CDf =  0.00768    CDp =  0.00373

 Side 1  free  transition at x/c =  0.7088   57
 Side 2  free  transition at x/c =  0.1385   29

   2   rms: 0.8442E-01   max: -.7548E+00   C at   29  2   RLX: 0.662
       a = -2.000      CL =  0.2536
      Cm = -0.0998     CD =  0.01124   =>   CDf =  0.00776    CDp =  0.00348

 Side 1  free  transition at x/c =  0.7009   57
 Side 2  free  transition at x/c =  0.1649   30

   3   rms: 0.2768E-01   max: -.2740E+00   C at   30  2
       a = -2.000      CL =  0.2641
      Cm = -0.1002     CD =  0.01132   =>   CDf =  0.00766    CDp =  0.00366

 Side 1  free  transition at x/c =  0.6993   57
 Side 2  free  transition at x/c =  0.2155   34

   4   rms: 0.3026E-01   max: 0.4201E+00   C at   34  2
       a = -2.000      CL =  0.2638
      Cm = -0.1002     CD =  0.01123   =>   CDf =  0.00745    CDp =  0.00378

 Side 1  free  transition at x/c =  0.6993   57
 Side 2  free  transition at x/c =  0.1960   32

   5   rms: 0.6208E-02   max: -.6764E-01   D at   35  2
       a = -2.000      CL =  0.2635
      Cm = -0.1001     CD =  0.01126   =>   CDf =  0.00751    CDp =  0.00375

 Side 1  free  transition at x/c =  0.6993   57
 Side 2  free  transition at x/c =  0.1918   32

   6   rms: 0.4441E-03   max: -.7473E-02   C at   32  2
       a = -2.000      CL =  0.2636
      Cm = -0.1001     CD =  0.01127   =>   CDf =  0.00751    CDp =  0.00375

 Side 1  free  transition at x/c =  0.6993   57
 Side 2  free  transition at x/c =  0.1919   32

   7   rms: 0.2954E-05   max: -.3612E-04   D at   34  2
       a = -2.000      CL =  0.2636
      Cm = -0.1001     CD =  0.01127   =>   CDf =  0.00751    CDp =  0.00375
 plradd ia,ip,cpol            5           0  2.07643174E-02

 Point added to stored polar  1
 Point written to save file  usa29_Re300k.base.pol                           
 Dump file unspecified or not available
 Calculating wake trajectory ...
 Calculating source influence matrix ...

 Solving BL system ...

 Side 1  free  transition at x/c =  0.6993   57
 Side 2  free  transition at x/c =  0.1919   32

   1   rms: 0.1089E+00   max: -.1026E+01   C at   32  2   RLX: 0.488
       a = -1.500      CL =  0.2895
      Cm = -0.0998     CD =  0.01121   =>   CDf =  0.00755    CDp =  0.00367

 Side 1  free  transition at x/c =  0.6905   57
 Side 2  free  transition at x/c =  0.2287   33

   2   rms: 0.4620E-01   max: -.2611E+00   D at    2  1
       a = -1.500      CL =  0.3127
      Cm = -0.0986     CD =  0.01123   =>   CDf =  0.00750    CDp =  0.00373

 Side 1  free  transition at x/c =  0.6773   56
 Side 2  free  transition at x/c =  0.2536   35

   3   rms: 0.1277E-01   max: 0.1716E+00   C at   35  2
       a = -1.500      CL =  0.3123
      Cm = -0.0986     CD =  0.01117   =>   CDf =  0.00751    CDp =  0.00366

 Side 1  free  transition at x/c =  0.6791   56
 Side 2  free  transition at x/c =  0.2497   35

   4   rms: 0.1089E-02   max: 0.1322E-01   C at   35  2
       a = -1.500      CL =  0.3124
      Cm = -0.0986     CD =  0.01119   =>   CDf =  0.00748    CDp =  0.00370

 Side 1  free  transition at x/c =  0.6788   56
 Side 2  free  transition at x/c =  0.2493   35

   5   rms: 0.6090E-05   max: -.9880E-04   D at   37  2
       a = -1.500      CL =  0.3124
      Cm = -0.0986     CD =  0.01119   =>   CDf =  0.00749    CDp =  0.00369
 plradd ia,ip,cpol            6           0  2.07643174E-02

 Point added to stored polar  1
 Point written to save file  usa29_Re300k.base.pol                           
 Dump file unspecified or not available
 Calculating wake trajectory ...
 Calculating source influence matrix ...

 Solving BL system ...

 Side 1  free  transition at x/c =  0.6788   56
 Side 2  free  transition at x/c =  0.2493   35

   1   rms: 0.1067E+00   max: -.1006E+01   C at   35  2   RLX: 0.497
       a = -1.000      CL =  0.3349
      Cm = -0.0976     CD =  0.01117   =>   CDf =  0.00749    CDp =  0.00368

 Side 1  free  transition at x/c =  0.6679   56
 Side 2  free  transition at x/c =  0.2625   36

   2   rms: 0.7934E-01   max: -.7415E+00   T at   36  2   RLX: 0.674
       a = -1.000      CL =  0.3548
      Cm = -0.0977     CD =  0.01114   =>   CDf =  0.00773    CDp =  0.00340

 Side 1  free  transition at x/c =  0.6641   56
 Side 2  free  transition at x/c =  0.2752   35

   3   rms: 0.4177E-01   max: -.4937E+00   D at   35  2
       a = -1.000      CL =  0.3636
      Cm = -0.0975     CD =  0.01136   =>   CDf =  0.00782    CDp =  0.00355

 MRCHDU: Convergence failed at  38  side 2    Res =  0.2180E+01
 MRCHDU: Convergence failed at  39  side 2    Res =  0.4448E+01
 MRCHDU: Convergence failed at  40  side 2    Res =  0.7516E+01
 MRCHDU: Convergence failed at  41  side 2    Res =  0.1022E+02
 MRCHDU: Convergence failed at  42  side 2    Res =  0.1201E+02
 MRCHDU: Convergence failed at  43  side 2    Res =  0.1412E+02
 MRCHDU: Convergence failed at  44  side 2    Res =  0.1901E+02
 MRCHDU: Convergence failed at  45  side 2    Res =  0.4058E+02
 MRCHDU: Convergence failed at  46  side 2    Res =  0.3590E+03
 MRCHDU: Convergence failed at  47  side 2    Res =  0.3169E+02
 MRCHDU: Convergence failed at  48  side 2    Res =  0.1746E+02
 MRCHDU: Convergence failed at  49  side 2    Res =  0.1327E+02
 MRCHDU: Convergence failed at  50  side 2    Res =  0.1227E+02
 MRCHDU: Convergence failed at  51  side 2    Res =  0.1433E+02
 MRCHDU: Convergence failed at  52  side 2    Res =  0.2084E+02
 MRCHDU: Convergence failed at  53  side 2    Res =  0.4311E+02
 MRCHDU: Convergence failed at  54  side 2    Res =  0.2475E+03
 MRCHDU: Convergence failed at  55  side 2    Res =  0.3231E+02
 MRCHDU: Convergence failed at  56  side 2    Res =  0.1690E+02
 MRCHDU: Convergence failed at  57  side 2    Res =  0.1184E+02
 MRCHDU: Convergence failed at  58  side 2    Res =  0.8826E+01
 MRCHDU: Convergence failed at  59  side 2    Res =  0.6714E+01
 MRCHDU: Convergence failed at  60  side 2    Res =  0.5145E+01
 MRCHDU: Convergence failed at  61  side 2    Res =  0.3691E+01
 MRCHDU: Convergence failed at  62  side 2    Res =  0.2942E+01
 MRCHDU: Convergence failed at  63  side 2    Res =  0.2392E+01
 MRCHDU: Convergence failed at  64  side 2    Res =  0.2014E+01
 MRCHDU: Convergence failed at  65  side 2    Res =  0.1769E+01
 MRCHDU: Convergence failed at  66  side 2    Res =  0.1578E+01
 MRCHDU: Convergence failed at  67  side 2    Res =  0.1440E+01
 MRCHDU: Convergence failed at  68  side 2    Res =  0.1342E+01
 MRCHDU: Convergence failed at  69  side 2    Res =  0.1288E+01
 MRCHDU: Convergence failed at  70  side 2    Res =  0.1255E+01
 MRCHDU: Convergence failed at  71  side 2    Res =  0.1078E+01
 MRCHDU: Convergence failed at  72  side 2    Res =  0.1129E+01
 MRCHDU: Convergence failed at  73  side 2    Res =  0.1196E+01
 MRCHDU: Convergence failed at  74  side 2    Res =  0.1273E+01
 MRCHDU: Convergence failed at  75  side 2    Res =  0.1356E+01
 MRCHDU: Convergence failed at  76  side 2    Res =  0.1434E+01
 MRCHDU: Convergence failed at  77  side 2    Res =  0.1569E+01
 MRCHDU: Convergence failed at  78  side 2    Res =  0.1852E+01
 MRCHDU: Convergence failed at  79  side 2    Res =  0.2449E+01
 MRCHDU: Convergence failed at  80  side 2    Res =  0.3570E+01
 MRCHDU: Convergence failed at  81  side 2    Res =  0.6422E+01
 MRCHDU: Convergence failed at  82  side 2    Res =  0.2489E+02
 MRCHDU: Convergence failed at  83  side 2    Res =  0.9224E+01
 Side 1  free  transition at x/c =  0.6604   56
 Side 2  free  transition at x/c =  0.3052   37

   4   rms: 0.2534E+00   max: 0.1237E+01   D at   83  2   RLX: 0.546
       a = -1.000      CL =  0.3674
      Cm = -0.0902     CD =  0.00851   =>   CDf =  0.00478    CDp =  0.00373

 Side 1  free  transition at x/c =  0.6591   56
 Side 2  free  transition at x/c =  0.3148   38
 idif Ue xi dudx           1  0.16052069      1.93297863E-03   83.043175    
 Uenew xinew           2  2.19274312E-02  2.64048576E-04

   5   rms: 0.1222E+00   max: -.5523E+00   D at   83  2   RLX: 0.905
       a = -1.000      CL =  0.3069
      Cm = -0.0839     CD =  0.01088   =>   CDf =  0.00783    CDp =  0.00305

 Side 1  free  transition at x/c =  0.6620   55
 Side 2  free  transition at x/c =  0.2759   36

   6   rms: 0.4119E-01   max: -.3644E+00   D at   37  2
       a = -1.000      CL =  0.3470
      Cm = -0.0938     CD =  0.01138   =>   CDf =  0.00764    CDp =  0.00374

 Side 1  free  transition at x/c =  0.6611   56
 Side 2  free  transition at x/c =  0.2912   36

   7   rms: 0.2396E-01   max: 0.2796E+00   C at   36  2
       a = -1.000      CL =  0.3607
      Cm = -0.0970     CD =  0.01132   =>   CDf =  0.00748    CDp =  0.00384

 Side 1  free  transition at x/c =  0.6608   56
 Side 2  free  transition at x/c =  0.2912   36

   8   rms: 0.2889E-02   max: 0.3033E-01   C at   36  2
       a = -1.000      CL =  0.3613
      Cm = -0.0971     CD =  0.01135   =>   CDf =  0.00752    CDp =  0.00383

 Side 1  free  transition at x/c =  0.6607   56
 Side 2  free  transition at x/c =  0.2903   36

   9   rms: 0.4921E-04   max: -.6186E-03   D at   41  2
       a = -1.000      CL =  0.3612
      Cm = -0.0971     CD =  0.01136   =>   CDf =  0.00753    CDp =  0.00383
 plradd ia,ip,cpol            7           0  0.29304954    

 Point added to stored polar  1
 Point written to save file  usa29_Re300k.base.pol                           
 Dump file unspecified or not available
 Calculating wake trajectory ...
 Calculating source influence matrix ...

 Solving BL system ...

 Side 1  free  transition at x/c =  0.6607   56
 Side 2  free  transition at x/c =  0.2903   36

   1   rms: 0.8017E-01   max: -.2973E+00   T at   36  2
       a = -0.500      CL =  0.4108
      Cm = -0.0957     CD =  0.01157   =>   CDf =  0.00755    CDp =  0.00402

 Side 1  free  transition at x/c =  0.6437   56
 Side 2  free  transition at x/c =  0.3216   37

   2   rms: 0.1808E-01   max: 0.2231E+00   D at   38  2
       a = -0.500      CL =  0.4108
      Cm = -0.0956     CD =  0.01166   =>   CDf =  0.00771    CDp =  0.00396

 Side 1  free  transition at x/c =  0.6451   56
 Side 2  free  transition at x/c =  0.3170   37

   3   rms: 0.1633E-02   max: 0.1238E-01   C at   56  1
       a = -0.500      CL =  0.4108
      Cm = -0.0956     CD =  0.01167   =>   CDf =  0.00765    CDp =  0.00403

 Side 1  free  transition at x/c =  0.6447   56
 Side 2  free  transition at x/c =  0.3172   37

   4   rms: 0.1974E-04   max: -.1557E-03   D at   58  1
       a = -0.500      CL =  0.4108
      Cm = -0.0956     CD =  0.01167   =>   CDf =  0.00765    CDp =  0.00402
 plradd ia,ip,cpol            8           0  0.27818921    

 Point added to stored polar  1
 Point written to save file  usa29_Re300k.base.pol                           
 Dump file unspecified or not available
 Calculating wake trajectory ...
 Calculating source influence matrix ...

 Solving BL system ...

 Side 1  free  transition at x/c =  0.6447   56
 Side 2  free  transition at x/c =  0.3172   37

   1   rms: 0.8064E-01   max: -.3743E+00   T at   37  2
       a =  0.000      CL =  0.4592
      Cm = -0.0940     CD =  0.01199   =>   CDf =  0.00765    CDp =  0.00434

 Side 1  free  transition at x/c =  0.6293   55
 Side 2  free  transition at x/c =  0.3437   39

   2   rms: 0.3263E-01   max: 0.3411E+00   D at   39  2
       a =  0.000      CL =  0.4608
      Cm = -0.0943     CD =  0.01198   =>   CDf =  0.00778    CDp =  0.00420

 Side 1  free  transition at x/c =  0.6301   55
 Side 2  free  transition at x/c =  0.3412   39

   3   rms: 0.7154E-02   max: -.7957E-01   D at   43  2
       a =  0.000      CL =  0.4601
      Cm = -0.0942     CD =  0.01205   =>   CDf =  0.00778    CDp =  0.00427

 Side 1  free  transition at x/c =  0.6298   55
 Side 2  free  transition at x/c =  0.3395   39

   4   rms: 0.7467E-03   max: -.8910E-02   D at   43  2
       a =  0.000      CL =  0.4601
      Cm = -0.0941     CD =  0.01206   =>   CDf =  0.00781    CDp =  0.00425

 Side 1  free  transition at x/c =  0.6298   55
 Side 2  free  transition at x/c =  0.3395   39

   5   rms: 0.6846E-05   max: -.6529E-04   D at   42  2
       a =  0.000      CL =  0.4601
      Cm = -0.0941     CD =  0.01206   =>   CDf =  0.00781    CDp =  0.00425
 plradd ia,ip,cpol            9           0  0.27818921    

 Point added to stored polar  1
 Point written to save file  usa29_Re300k.base.pol                           
 Dump file unspecified or not available
 Calculating wake trajectory ...
 Calculating source influence matrix ...

 Solving BL system ...

 Side 1  free  transition at x/c =  0.6298   55
 Side 2  free  transition at x/c =  0.3395   39

   1   rms: 0.8539E-01   max: -.4698E+00   T at   39  2
       a =  0.500      CL =  0.5065
      Cm = -0.0921     CD =  0.01236   =>   CDf =  0.00781    CDp =  0.00455

 Side 1  free  transition at x/c =  0.6155   55
 Side 2  free  transition at x/c =  0.3522   39

   2   rms: 0.7751E-01   max: -.4861E+00   T at   39  2
       a =  0.500      CL =  0.5114
      Cm = -0.0933     CD =  0.01216   =>   CDf =  0.00812    CDp =  0.00404

 Side 1  free  transition at x/c =  0.6166   55
 Side 2  free  transition at x/c =  0.3588   39

   3   rms: 0.3212E-01   max: -.2482E+00   D at   39  2
       a =  0.500      CL =  0.5095
      Cm = -0.0927     CD =  0.01244   =>   CDf =  0.00795    CDp =  0.00449

 Side 1  free  transition at x/c =  0.6164   55
 Side 2  free  transition at x/c =  0.3575   39

   4   rms: 0.1389E-02   max: -.1606E-01   D at   40  2
       a =  0.500      CL =  0.5093
      Cm = -0.0927     CD =  0.01244   =>   CDf =  0.00793    CDp =  0.00451

 Side 1  free  transition at x/c =  0.6164   55
 Side 2  free  transition at x/c =  0.3576   39

   5   rms: 0.1187E-04   max: 0.9297E-04   D at   40  2
       a =  0.500      CL =  0.5093
      Cm = -0.0927     CD =  0.01244   =>   CDf =  0.00793    CDp =  0.00451
 plradd ia,ip,cpol           10           0  0.26340687    

 Point added to stored polar  1
 Point written to save file  usa29_Re300k.base.pol                           
 Dump file unspecified or not available
 Calculating wake trajectory ...
 Calculating source influence matrix ...

 Solving BL system ...

 Side 1  free  transition at x/c =  0.6164   55
 Side 2  free  transition at x/c =  0.3576   39

   1   rms: 0.8036E-01   max: -.4647E+00   T at   39  2
       a =  1.000      CL =  0.5541
      Cm = -0.0904     CD =  0.01269   =>   CDf =  0.00790    CDp =  0.00479

 Side 1  free  transition at x/c =  0.6014   55
 Side 2  free  transition at x/c =  0.3675   39

   2   rms: 0.7257E-01   max: -.4150E+00   T at   39  2
       a =  1.000      CL =  0.5613
      Cm = -0.0920     CD =  0.01254   =>   CDf =  0.00819    CDp =  0.00435

 Side 1  free  transition at x/c =  0.6032   55
 Side 2  free  transition at x/c =  0.3738   39

   3   rms: 0.2306E-01   max: -.1727E+00   D at   39  2
       a =  1.000      CL =  0.5601
      Cm = -0.0917     CD =  0.01272   =>   CDf =  0.00812    CDp =  0.00460

 Side 1  free  transition at x/c =  0.6032   55
 Side 2  free  transition at x/c =  0.3730   39

   4   rms: 0.6487E-02   max: -.7837E-01   C at   55  1
       a =  1.000      CL =  0.5600
      Cm = -0.0916     CD =  0.01272   =>   CDf =  0.00810    CDp =  0.00462

 Side 1  free  transition at x/c =  0.6032   55
 Side 2  free  transition at x/c =  0.3730   39

   5   rms: 0.6438E-02   max: -.7843E-01   C at   55  1
       a =  1.000      CL =  0.5600
      Cm = -0.0916     CD =  0.01272   =>   CDf =  0.00810    CDp =  0.00462

 Side 1  free  transition at x/c =  0.6032   55
 Side 2  free  transition at x/c =  0.3730   39

   6   rms: 0.6439E-02   max: -.7843E-01   C at   55  1
       a =  1.000      CL =  0.5600
      Cm = -0.0916     CD =  0.01272   =>   CDf =  0.00810    CDp =  0.00462

 Side 1  free  transition at x/c =  0.6032   55
 Side 2  free  transition at x/c =  0.3730   39

   7   rms: 0.6439E-02   max: -.7843E-01   C at   55  1
       a =  1.000      CL =  0.5600
      Cm = -0.0916     CD =  0.01272   =>   CDf =  0.00810    CDp =  0.00462

 Side 1  free  transition at x/c =  0.6032   55
 Side 2  free  transition at x/c =  0.3730   39

   8   rms: 0.6439E-02   max: -.7843E-01   C at   55  1
       a =  1.000      CL =  0.5600
      Cm = -0.0916     CD =  0.01272   =>   CDf =  0.00810    CDp =  0.00462

 Side 1  free  transition at x/c =  0.6032   55
 Side 2  free  transition at x/c =  0.3730   39

   9   rms: 0.6439E-02   max: -.7843E-01   C at   55  1
       a =  1.000      CL =  0.5600
      Cm = -0.0916     CD =  0.01272   =>   CDf =  0.00810    CDp =  0.00462

 Side 1  free  transition at x/c =  0.6032   55
 Side 2  free  transition at x/c =  0.3730   39

  10   rms: 0.6439E-02   max: -.7844E-01   C at   55  1
       a =  1.000      CL =  0.5600
      Cm = -0.0916     CD =  0.01272   =>   CDf =  0.00810    CDp =  0.00462

 Side 1  free  transition at x/c =  0.6032   55
 Side 2  free  transition at x/c =  0.3730   39

  11   rms: 0.6439E-02   max: -.7843E-01   C at   55  1
       a =  1.000      CL =  0.5600
      Cm = -0.0916     CD =  0.01272   =>   CDf =  0.00810    CDp =  0.00462

 Side 1  free  transition at x/c =  0.6032   55
 Side 2  free  transition at x/c =  0.3730   39

  12   rms: 0.6439E-02   max: -.7843E-01   C at   55  1
       a =  1.000      CL =  0.5600
      Cm = -0.0916     CD =  0.01272   =>   CDf =  0.00810    CDp =  0.00462

 Side 1  free  transition at x/c =  0.6032   55
 Side 2  free  transition at x/c =  0.3730   39

  13   rms: 0.6439E-02   max: -.7844E-01   C at   55  1
       a =  1.000      CL =  0.5600
      Cm = -0.0916     CD =  0.01272   =>   CDf =  0.00810    CDp =  0.00462

 Side 1  free  transition at x/c =  0.6032   55
 Side 2  free  transition at x/c =  0.3730   39

  14   rms: 0.6439E-02   max: -.7843E-01   C at   55  1
       a =  1.000      CL =  0.5600
      Cm = -0.0916     CD =  0.01272   =>   CDf =  0.00810    CDp =  0.00462

 Side 1  free  transition at x/c =  0.6032   55
 Side 2  free  transition at x/c =  0.3730   39

  15   rms: 0.6439E-02   max: -.7843E-01   C at   55  1
       a =  1.000      CL =  0.5600
      Cm = -0.0916     CD =  0.01272   =>   CDf =  0.00810    CDp =  0.00462

 Side 1  free  transition at x/c =  0.6032   55
 Side 2  free  transition at x/c =  0.3730   39

  16   rms: 0.6439E-02   max: -.7843E-01   C at   55  1
       a =  1.000      CL =  0.5600
      Cm = -0.0916     CD =  0.01272   =>   CDf =  0.00810    CDp =  0.00462

 Side 1  free  transition at x/c =  0.6032   55
 Side 2  free  transition at x/c =  0.3730   39

  17   rms: 0.6439E-02   max: -.7842E-01   C at   55  1
       a =  1.000      CL =  0.5600
      Cm = -0.0916     CD =  0.01272   =>   CDf =  0.00810    CDp =  0.00462

 Side 1  free  transition at x/c =  0.6032   55
 Side 2  free  transition at x/c =  0.3730   39

  18   rms: 0.6439E-02   max: -.7843E-01   C at   55  1
       a =  1.000      CL =  0.5600
      Cm = -0.0916     CD =  0.01272   =>   CDf =  0.00810    CDp =  0.00462

 Side 1  free  transition at x/c =  0.6032   55
 Side 2  free  transition at x/c =  0.3730   39

  19   rms: 0.6439E-02   max: -.7844E-01   C at   55  1
       a =  1.000      CL =  0.5600
      Cm = -0.0916     CD =  0.01272   =>   CDf =  0.00810    CDp =  0.00462

 Side 1  free  transition at x/c =  0.6032   55
 Side 2  free  transition at x/c =  0.3730   39

  20   rms: 0.6439E-02   max: -.7843E-01   C at   55  1
       a =  1.000      CL =  0.5600
      Cm = -0.0916     CD =  0.01272   =>   CDf =  0.00810    CDp =  0.00462

 Side 1  free  transition at x/c =  0.6032   55
 Side 2  free  transition at x/c =  0.3730   39

  21   rms: 0.6439E-02   max: -.7843E-01   C at   55  1
       a =  1.000      CL =  0.5600
      Cm = -0.0916     CD =  0.01272   =>   CDf =  0.00810    CDp =  0.00462

 Side 1  free  transition at x/c =  0.6032   55
 Side 2  free  transition at x/c =  0.3730   39

  22   rms: 0.6439E-02   max: -.7843E-01   C at   55  1
       a =  1.000      CL =  0.5600
      Cm = -0.0916     CD =  0.01272   =>   CDf =  0.00810    CDp =  0.00462

 Side 1  free  transition at x/c =  0.6032   55
 Side 2  free  transition at x/c =  0.3730   39

  23   rms: 0.6439E-02   max: -.7843E-01   C at   55  1
       a =  1.000      CL =  0.5600
      Cm = -0.0916     CD =  0.01272   =>   CDf =  0.00810    CDp =  0.00462

 Side 1  free  transition at x/c =  0.6032   55
 Side 2  free  transition at x/c =  0.3730   39

  24   rms: 0.6439E-02   max: -.7843E-01   C at   55  1
       a =  1.000      CL =  0.5600
      Cm = -0.0916     CD =  0.01272   =>   CDf =  0.00810    CDp =  0.00462

 Side 1  free  transition at x/c =  0.6032   55
 Side 2  free  transition at x/c =  0.3730   39

  25   rms: 0.6439E-02   max: -.7843E-01   C at   55  1
       a =  1.000      CL =  0.5600
      Cm = -0.0916     CD =  0.01272   =>   CDf =  0.00810    CDp =  0.00462

 Side 1  free  transition at x/c =  0.6032   55
 Side 2  free  transition at x/c =  0.3730   39

  26   rms: 0.6439E-02   max: -.7843E-01   C at   55  1
       a =  1.000      CL =  0.5600
      Cm = -0.0916     CD =  0.01272   =>   CDf =  0.00810    CDp =  0.00462

 Side 1  free  transition at x/c =  0.6032   55
 Side 2  free  transition at x/c =  0.3730   39

  27   rms: 0.6439E-02   max: -.7843E-01   C at   55  1
       a =  1.000      CL =  0.5600
      Cm = -0.0916     CD =  0.01272   =>   CDf =  0.00810    CDp =  0.00462

 Side 1  free  transition at x/c =  0.6032   55
 Side 2  free  transition at x/c =  0.3730   39

  28   rms: 0.6439E-02   max: -.7843E-01   C at   55  1
       a =  1.000      CL =  0.5600
      Cm = -0.0916     CD =  0.01272   =>   CDf =  0.00810    CDp =  0.00462

 Side 1  free  transition at x/c =  0.6032   55
 Side 2  free  transition at x/c =  0.3730   39

  29   rms: 0.6439E-02   max: -.7843E-01   C at   55  1
       a =  1.000      CL =  0.5600
      Cm = -0.0916     CD =  0.01272   =>   CDf =  0.00810    CDp =  0.00462

 Side 1  free  transition at x/c =  0.6032   55
 Side 2  free  transition at x/c =  0.3730   39

  30   rms: 0.6439E-02   max: -.7843E-01   C at   55  1
       a =  1.000      CL =  0.5600
      Cm = -0.0916     CD =  0.01272   =>   CDf =  0.00810    CDp =  0.00462

 Side 1  free  transition at x/c =  0.6032   55
 Side 2  free  transition at x/c =  0.3730   39

  31   rms: 0.6439E-02   max: -.7843E-01   C at   55  1
       a =  1.000      CL =  0.5600
      Cm = -0.0916     CD =  0.01272   =>   CDf =  0.00810    CDp =  0.00462

 Side 1  free  transition at x/c =  0.6032   55
 Side 2  free  transition at x/c =  0.3730   39

  32   rms: 0.6439E-02   max: -.7843E-01   C at   55  1
       a =  1.000      CL =  0.5600
      Cm = -0.0916     CD =  0.01272   =>   CDf =  0.00810    CDp =  0.00462

 Side 1  free  transition at x/c =  0.6032   55
 Side 2  free  transition at x/c =  0.3730   39

  33   rms: 0.6439E-02   max: -.7844E-01   C at   55  1
       a =  1.000      CL =  0.5600
      Cm = -0.0916     CD =  0.01272   =>   CDf =  0.00810    CDp =  0.00462

 Side 1  free  transition at x/c =  0.6032   55
 Side 2  free  transition at x/c =  0.3730   39

  34   rms: 0.6440E-02   max: -.7843E-01   C at   55  1
       a =  1.000      CL =  0.5600
      Cm = -0.0916     CD =  0.01272   =>   CDf =  0.00810    CDp =  0.00462

 Side 1  free  transition at x/c =  0.6032   55
 Side 2  free  transition at x/c =  0.3730   39

  35   rms: 0.6439E-02   max: -.7844E-01   C at   55  1
       a =  1.000      CL =  0.5600
      Cm = -0.0916     CD =  0.01272   =>   CDf =  0.00810    CDp =  0.00462

 Side 1  free  transition at x/c =  0.6032   55
 Side 2  free  transition at x/c =  0.3730   39

  36   rms: 0.6439E-02   max: -.7843E-01   C at   55  1
       a =  1.000      CL =  0.5600
      Cm = -0.0916     CD =  0.01272   =>   CDf =  0.00810    CDp =  0.00462

 Side 1  free  transition at x/c =  0.6032   55
 Side 2  free  transition at x/c =  0.3730   39

  37   rms: 0.6439E-02   max: -.7843E-01   C at   55  1
       a =  1.000      CL =  0.5600
      Cm = -0.0916     CD =  0.01272   =>   CDf =  0.00810    CDp =  0.00462

 Side 1  free  transition at x/c =  0.6032   55
 Side 2  free  transition at x/c =  0.3730   39

  38   rms: 0.6439E-02   max: -.7843E-01   C at   55  1
       a =  1.000      CL =  0.5600
      Cm = -0.0916     CD =  0.01272   =>   CDf =  0.00810    CDp =  0.00462

 Side 1  free  transition at x/c =  0.6032   55
 Side 2  free  transition at x/c =  0.3730   39

  39   rms: 0.6439E-02   max: -.7843E-01   C at   55  1
       a =  1.000      CL =  0.5600
      Cm = -0.0916     CD =  0.01272   =>   CDf =  0.00810    CDp =  0.00462

 Side 1  free  transition at x/c =  0.6032   55
 Side 2  free  transition at x/c =  0.3730   39

  40   rms: 0.6439E-02   max: -.7843E-01   C at   55  1
       a =  1.000      CL =  0.5600
      Cm = -0.0916     CD =  0.01272   =>   CDf =  0.00810    CDp =  0.00462

 Side 1  free  transition at x/c =  0.6032   55
 Side 2  free  transition at x/c =  0.3730   39

  41   rms: 0.6439E-02   max: -.7843E-01   C at   55  1
       a =  1.000      CL =  0.5600
      Cm = -0.0916     CD =  0.01272   =>   CDf =  0.00810    CDp =  0.00462

 Side 1  free  transition at x/c =  0.6032   55
 Side 2  free  transition at x/c =  0.3730   39

  42   rms: 0.6439E-02   max: -.7843E-01   C at   55  1
       a =  1.000      CL =  0.5600
      Cm = -0.0916     CD =  0.01272   =>   CDf =  0.00810    CDp =  0.00462

 Side 1  free  transition at x/c =  0.6032   55
 Side 2  free  transition at x/c =  0.3730   39

  43   rms: 0.6439E-02   max: -.7843E-01   C at   55  1
       a =  1.000      CL =  0.5600
      Cm = -0.0916     CD =  0.01272   =>   CDf =  0.00810    CDp =  0.00462

 Side 1  free  transition at x/c =  0.6032   55
 Side 2  free  transition at x/c =  0.3730   39

  44   rms: 0.6439E-02   max: -.7843E-01   C at   55  1
       a =  1.000      CL =  0.5600
      Cm = -0.0916     CD =  0.01272   =>   CDf =  0.00810    CDp =  0.00462

 Side 1  free  transition at x/c =  0.6032   55
 Side 2  free  transition at x/c =  0.3730   39

  45   rms: 0.6439E-02   max: -.7843E-01   C at   55  1
       a =  1.000      CL =  0.5600
      Cm = -0.0916     CD =  0.01272   =>   CDf =  0.00810    CDp =  0.00462

 Side 1  free  transition at x/c =  0.6032   55
 Side 2  free  transition at x/c =  0.3730   39

  46   rms: 0.6439E-02   max: -.7843E-01   C at   55  1
       a =  1.000      CL =  0.5600
      Cm = -0.0916     CD =  0.01272   =>   CDf =  0.00810    CDp =  0.00462

 Side 1  free  transition at x/c =  0.6032   55
 Side 2  free  transition at x/c =  0.3730   39

  47   rms: 0.6439E-02   max: -.7843E-01   C at   55  1
       a =  1.000      CL =  0.5600
      Cm = -0.0916     CD =  0.01272   =>   CDf =  0.00810    CDp =  0.00462

 Side 1  free  transition at x/c =  0.6032   55
 Side 2  free  transition at x/c =  0.3730   39

  48   rms: 0.6439E-02   max: -.7843E-01   C at   55  1
       a =  1.000      CL =  0.5600
      Cm = -0.0916     CD =  0.01272   =>   CDf =  0.00810    CDp =  0.00462

 Side 1  free  transition at x/c =  0.6032   55
 Side 2  free  transition at x/c =  0.3730   39

  49   rms: 0.6439E-02   max: -.7844E-01   C at   55  1
       a =  1.000      CL =  0.5600
      Cm = -0.0916     CD =  0.01272   =>   CDf =  0.00810    CDp =  0.00462

 Side 1  free  transition at x/c =  0.6032   55
 Side 2  free  transition at x/c =  0.3730   39

  50   rms: 0.6439E-02   max: -.7843E-01   C at   55  1
       a =  1.000      CL =  0.5600
      Cm = -0.0916     CD =  0.01272   =>   CDf =  0.00810    CDp =  0.00462

 Side 1  free  transition at x/c =  0.6032   55
 Side 2  free  transition at x/c =  0.3730   39

  51   rms: 0.6439E-02   max: -.7843E-01   C at   55  1
       a =  1.000      CL =  0.5600
      Cm = -0.0916     CD =  0.01272   =>   CDf =  0.00810    CDp =  0.00462

 Side 1  free  transition at x/c =  0.6032   55
 Side 2  free  transition at x/c =  0.3730   39

  52   rms: 0.6439E-02   max: -.7843E-01   C at   55  1
       a =  1.000      CL =  0.5600
      Cm = -0.0916     CD =  0.01272   =>   CDf =  0.00810    CDp =  0.00462

 Side 1  free  transition at x/c =  0.6032   55
 Side 2  free  transition at x/c =  0.3730   39

  53   rms: 0.6439E-02   max: -.7843E-01   C at   55  1
       a =  1.000      CL =  0.5600
      Cm = -0.0916     CD =  0.01272   =>   CDf =  0.00810    CDp =  0.00462

 Side 1  free  transition at x/c =  0.6032   55
 Side 2  free  transition at x/c =  0.3730   39

  54   rms: 0.6439E-02   max: -.7843E-01   C at   55  1
       a =  1.000      CL =  0.5600
      Cm = -0.0916     CD =  0.01272   =>   CDf =  0.00810    CDp =  0.00462

 Side 1  free  transition at x/c =  0.6032   55
 Side 2  free  transition at x/c =  0.3730   39

  55   rms: 0.6439E-02   max: -.7843E-01   C at   55  1
       a =  1.000      CL =  0.5600
      Cm = -0.0916     CD =  0.01272   =>   CDf =  0.00810    CDp =  0.00462

 Side 1  free  transition at x/c =  0.6032   55
 Side 2  free  transition at x/c =  0.3730   39

  56   rms: 0.6439E-02   max: -.7843E-01   C at   55  1
       a =  1.000      CL =  0.5600
      Cm = -0.0916     CD =  0.01272   =>   CDf =  0.00810    CDp =  0.00462

 Side 1  free  transition at x/c =  0.6032   55
 Side 2  free  transition at x/c =  0.3730   39

  57   rms: 0.6439E-02   max: -.7843E-01   C at   55  1
       a =  1.000      CL =  0.5600
      Cm = -0.0916     CD =  0.01272   =>   CDf =  0.00810    CDp =  0.00462

 Side 1  free  transition at x/c =  0.6032   55
 Side 2  free  transition at x/c =  0.3730   39

  58   rms: 0.6439E-02   max: -.7843E-01   C at   55  1
       a =  1.000      CL =  0.5600
      Cm = -0.0916     CD =  0.01272   =>   CDf =  0.00810    CDp =  0.00462

 Side 1  free  transition at x/c =  0.6032   55
 Side 2  free  transition at x/c =  0.3730   39

  59   rms: 0.6439E-02   max: -.7843E-01   C at   55  1
       a =  1.000      CL =  0.5600
      Cm = -0.0916     CD =  0.01272   =>   CDf =  0.00810    CDp =  0.00462

 Side 1  free  transition at x/c =  0.6032   55
 Side 2  free  transition at x/c =  0.3730   39

  60   rms: 0.6439E-02   max: -.7843E-01   C at   55  1
       a =  1.000      CL =  0.5600
      Cm = -0.0916     CD =  0.01272   =>   CDf =  0.00810    CDp =  0.00462

 Side 1  free  transition at x/c =  0.6032   55
 Side 2  free  transition at x/c =  0.3730   39

  61   rms: 0.6439E-02   max: -.7843E-01   C at   55  1
       a =  1.000      CL =  0.5600
      Cm = -0.0916     CD =  0.01272   =>   CDf =  0.00810    CDp =  0.00462

 Side 1  free  transition at x/c =  0.6032   55
 Side 2  free  transition at x/c =  0.3730   39

  62   rms: 0.6439E-02   max: -.7844E-01   C at   55  1
       a =  1.000      CL =  0.5600
      Cm = -0.0916     CD =  0.01272   =>   CDf =  0.00810    CDp =  0.00462

 Side 1  free  transition at x/c =  0.6032   55
 Side 2  free  transition at x/c =  0.3730   39

  63   rms: 0.6439E-02   max: -.7843E-01   C at   55  1
       a =  1.000      CL =  0.5600
      Cm = -0.0916     CD =  0.01272   =>   CDf =  0.00810    CDp =  0.00462

 Side 1  free  transition at x/c =  0.6032   55
 Side 2  free  transition at x/c =  0.3730   39

  64   rms: 0.6439E-02   max: -.7843E-01   C at   55  1
       a =  1.000      CL =  0.5600
      Cm = -0.0916     CD =  0.01272   =>   CDf =  0.00810    CDp =  0.00462

 Side 1  free  transition at x/c =  0.6032   55
 Side 2  free  transition at x/c =  0.3730   39

  65   rms: 0.6439E-02   max: -.7843E-01   C at   55  1
       a =  1.000      CL =  0.5600
      Cm = -0.0916     CD =  0.01272   =>   CDf =  0.00810    CDp =  0.00462

 Side 1  free  transition at x/c =  0.6032   55
 Side 2  free  transition at x/c =  0.3730   39

  66   rms: 0.6439E-02   max: -.7843E-01   C at   55  1
       a =  1.000      CL =  0.5600
      Cm = -0.0916     CD =  0.01272   =>   CDf =  0.00810    CDp =  0.00462

 Side 1  free  transition at x/c =  0.6032   55
 Side 2  free  transition at x/c =  0.3730   39

  67   rms: 0.6439E-02   max: -.7843E-01   C at   55  1
       a =  1.000      CL =  0.5600
      Cm = -0.0916     CD =  0.01272   =>   CDf =  0.00810    CDp =  0.00462

 Side 1  free  transition at x/c =  0.6032   55
 Side 2  free  transition at x/c =  0.3730   39

  68   rms: 0.6439E-02   max: -.7843E-01   C at   55  1
       a =  1.000      CL =  0.5600
      Cm = -0.0916     CD =  0.01272   =>   CDf =  0.00810    CDp =  0.00462

 Side 1  free  transition at x/c =  0.6032   55
 Side 2  free  transition at x/c =  0.3730   39

  69   rms: 0.6439E-02   max: -.7843E-01   C at   55  1
       a =  1.000      CL =  0.5600
      Cm = -0.0916     CD =  0.01272   =>   CDf =  0.00810    CDp =  0.00462

 Side 1  free  transition at x/c =  0.6032   55
 Side 2  free  transition at x/c =  0.3730   39

  70   rms: 0.6439E-02   max: -.7843E-01   C at   55  1
       a =  1.000      CL =  0.5600
      Cm = -0.0916     CD =  0.01272   =>   CDf =  0.00810    CDp =  0.00462

 Side 1  free  transition at x/c =  0.6032   55
 Side 2  free  transition at x/c =  0.3730   39

  71   rms: 0.6439E-02   max: -.7843E-01   C at   55  1
       a =  1.000      CL =  0.5600
      Cm = -0.0916     CD =  0.01272   =>   CDf =  0.00810    CDp =  0.00462

 Side 1  free  transition at x/c =  0.6032   55
 Side 2  free  transition at x/c =  0.3730   39

  72   rms: 0.6439E-02   max: -.7843E-01   C at   55  1
       a =  1.000      CL =  0.5600
      Cm = -0.0916     CD =  0.01272   =>   CDf =  0.00810    CDp =  0.00462

 Side 1  free  transition at x/c =  0.6032   55
 Side 2  free  transition at x/c =  0.3730   39

  73   rms: 0.6439E-02   max: -.7843E-01   C at   55  1
       a =  1.000      CL =  0.5600
      Cm = -0.0916     CD =  0.01272   =>   CDf =  0.00810    CDp =  0.00462

 Side 1  free  transition at x/c =  0.6032   55
 Side 2  free  transition at x/c =  0.3730   39

  74   rms: 0.6440E-02   max: -.7843E-01   C at   55  1
       a =  1.000      CL =  0.5600
      Cm = -0.0916     CD =  0.01272   =>   CDf =  0.00810    CDp =  0.00462

 Side 1  free  transition at x/c =  0.6032   55
 Side 2  free  transition at x/c =  0.3730   39

  75   rms: 0.6439E-02   max: -.7843E-01   C at   55  1
       a =  1.000      CL =  0.5600
      Cm = -0.0916     CD =  0.01272   =>   CDf =  0.00810    CDp =  0.00462

 Side 1  free  transition at x/c =  0.6032   55
 Side 2  free  transition at x/c =  0.3730   39

  76   rms: 0.6439E-02   max: -.7843E-01   C at   55  1
       a =  1.000      CL =  0.5600
      Cm = -0.0916     CD =  0.01272   =>   CDf =  0.00810    CDp =  0.00462

 Side 1  free  transition at x/c =  0.6032   55
 Side 2  free  transition at x/c =  0.3730   39

  77   rms: 0.6440E-02   max: -.7843E-01   C at   55  1
       a =  1.000      CL =  0.5600
      Cm = -0.0916     CD =  0.01272   =>   CDf =  0.00810    CDp =  0.00462

 Side 1  free  transition at x/c =  0.6032   55
 Side 2  free  transition at x/c =  0.3730   39

  78   rms: 0.6440E-02   max: -.7844E-01   C at   55  1
       a =  1.000      CL =  0.5600
      Cm = -0.0916     CD =  0.01272   =>   CDf =  0.00810    CDp =  0.00462

 Side 1  free  transition at x/c =  0.6032   55
 Side 2  free  transition at x/c =  0.3730   39

  79   rms: 0.6439E-02   max: -.7843E-01   C at   55  1
       a =  1.000      CL =  0.5600
      Cm = -0.0916     CD =  0.01272   =>   CDf =  0.00810    CDp =  0.00462

 Side 1  free  transition at x/c =  0.6032   55
 Side 2  free  transition at x/c =  0.3730   39

  80   rms: 0.6439E-02   max: -.7843E-01   C at   55  1
       a =  1.000      CL =  0.5600
      Cm = -0.0916     CD =  0.01272   =>   CDf =  0.00810    CDp =  0.00462

 Side 1  free  transition at x/c =  0.6032   55
 Side 2  free  transition at x/c =  0.3730   39

  81   rms: 0.6439E-02   max: -.7843E-01   C at   55  1
       a =  1.000      CL =  0.5600
      Cm = -0.0916     CD =  0.01272   =>   CDf =  0.00810    CDp =  0.00462

 Side 1  free  transition at x/c =  0.6032   55
 Side 2  free  transition at x/c =  0.3730   39

  82   rms: 0.6439E-02   max: -.7843E-01   C at   55  1
       a =  1.000      CL =  0.5600
      Cm = -0.0916     CD =  0.01272   =>   CDf =  0.00810    CDp =  0.00462

 Side 1  free  transition at x/c =  0.6032   55
 Side 2  free  transition at x/c =  0.3730   39

  83   rms: 0.6439E-02   max: -.7843E-01   C at   55  1
       a =  1.000      CL =  0.5600
      Cm = -0.0916     CD =  0.01272   =>   CDf =  0.00810    CDp =  0.00462

 Side 1  free  transition at x/c =  0.6032   55
 Side 2  free  transition at x/c =  0.3730   39

  84   rms: 0.6439E-02   max: -.7843E-01   C at   55  1
       a =  1.000      CL =  0.5600
      Cm = -0.0916     CD =  0.01272   =>   CDf =  0.00810    CDp =  0.00462

 Side 1  free  transition at x/c =  0.6032   55
 Side 2  free  transition at x/c =  0.3730   39

  85   rms: 0.6439E-02   max: -.7843E-01   C at   55  1
       a =  1.000      CL =  0.5600
      Cm = -0.0916     CD =  0.01272   =>   CDf =  0.00810    CDp =  0.00462

 Side 1  free  transition at x/c =  0.6032   55
 Side 2  free  transition at x/c =  0.3730   39

  86   rms: 0.6439E-02   max: -.7843E-01   C at   55  1
       a =  1.000      CL =  0.5600
      Cm = -0.0916     CD =  0.01272   =>   CDf =  0.00810    CDp =  0.00462

 Side 1  free  transition at x/c =  0.6032   55
 Side 2  free  transition at x/c =  0.3730   39

  87   rms: 0.6439E-02   max: -.7843E-01   C at   55  1
       a =  1.000      CL =  0.5600
      Cm = -0.0916     CD =  0.01272   =>   CDf =  0.00810    CDp =  0.00462

 Side 1  free  transition at x/c =  0.6032   55
 Side 2  free  transition at x/c =  0.3730   39

  88   rms: 0.6439E-02   max: -.7843E-01   C at   55  1
       a =  1.000      CL =  0.5600
      Cm = -0.0916     CD =  0.01272   =>   CDf =  0.00810    CDp =  0.00462

 Side 1  free  transition at x/c =  0.6032   55
 Side 2  free  transition at x/c =  0.3730   39

  89   rms: 0.6439E-02   max: -.7844E-01   C at   55  1
       a =  1.000      CL =  0.5600
      Cm = -0.0916     CD =  0.01272   =>   CDf =  0.00810    CDp =  0.00462

 Side 1  free  transition at x/c =  0.6032   55
 Side 2  free  transition at x/c =  0.3730   39

  90   rms: 0.6439E-02   max: -.7843E-01   C at   55  1
       a =  1.000      CL =  0.5600
      Cm = -0.0916     CD =  0.01272   =>   CDf =  0.00810    CDp =  0.00462

 Side 1  free  transition at x/c =  0.6032   55
 Side 2  free  transition at x/c =  0.3730   39

  91   rms: 0.6439E-02   max: -.7843E-01   C at   55  1
       a =  1.000      CL =  0.5600
      Cm = -0.0916     CD =  0.01272   =>   CDf =  0.00810    CDp =  0.00462

 Side 1  free  transition at x/c =  0.6032   55
 Side 2  free  transition at x/c =  0.3730   39

  92   rms: 0.6439E-02   max: -.7843E-01   C at   55  1
       a =  1.000      CL =  0.5600
      Cm = -0.0916     CD =  0.01272   =>   CDf =  0.00810    CDp =  0.00462

 Side 1  free  transition at x/c =  0.6032   55
 Side 2  free  transition at x/c =  0.3730   39

  93   rms: 0.6439E-02   max: -.7843E-01   C at   55  1
       a =  1.000      CL =  0.5600
      Cm = -0.0916     CD =  0.01272   =>   CDf =  0.00810    CDp =  0.00462

 Side 1  free  transition at x/c =  0.6032   55
 Side 2  free  transition at x/c =  0.3730   39

  94   rms: 0.6439E-02   max: -.7843E-01   C at   55  1
       a =  1.000      CL =  0.5600
      Cm = -0.0916     CD =  0.01272   =>   CDf =  0.00810    CDp =  0.00462

 Side 1  free  transition at x/c =  0.6032   55
 Side 2  free  transition at x/c =  0.3730   39

  95   rms: 0.6439E-02   max: -.7843E-01   C at   55  1
       a =  1.000      CL =  0.5600
      Cm = -0.0916     CD =  0.01272   =>   CDf =  0.00810    CDp =  0.00462

 Side 1  free  transition at x/c =  0.6032   55
 Side 2  free  transition at x/c =  0.3730   39

  96   rms: 0.6439E-02   max: -.7843E-01   C at   55  1
       a =  1.000      CL =  0.5600
      Cm = -0.0916     CD =  0.01272   =>   CDf =  0.00810    CDp =  0.00462

 Side 1  free  transition at x/c =  0.6032   55
 Side 2  free  transition at x/c =  0.3730   39

  97   rms: 0.6439E-02   max: -.7843E-01   C at   55  1
       a =  1.000      CL =  0.5600
      Cm = -0.0916     CD =  0.01272   =>   CDf =  0.00810    CDp =  0.00462

 Side 1  free  transition at x/c =  0.6032   55
 Side 2  free  transition at x/c =  0.3730   39

  98   rms: 0.6439E-02   max: -.7843E-01   C at   55  1
       a =  1.000      CL =  0.5600
      Cm = -0.0916     CD =  0.01272   =>   CDf =  0.00810    CDp =  0.00462

 Side 1  free  transition at x/c =  0.6032   55
 Side 2  free  transition at x/c =  0.3730   39

  99   rms: 0.6439E-02   max: -.7843E-01   C at   55  1
       a =  1.000      CL =  0.5600
      Cm = -0.0916     CD =  0.01272   =>   CDf =  0.00810    CDp =  0.00462

 Side 1  free  transition at x/c =  0.6032   55
 Side 2  free  transition at x/c =  0.3730   39

 100   rms: 0.6439E-02   max: -.7843E-01   C at   55  1
       a =  1.000      CL =  0.5600
      Cm = -0.0916     CD =  0.01272   =>   CDf =  0.00810    CDp =  0.00462

 Side 1  free  transition at x/c =  0.6032   55
 Side 2  free  transition at x/c =  0.3730   39

 101   rms: 0.6439E-02   max: -.7843E-01   C at   55  1
       a =  1.000      CL =  0.5600
      Cm = -0.0916     CD =  0.01272   =>   CDf =  0.00810    CDp =  0.00462

 Side 1  free  transition at x/c =  0.6032   55
 Side 2  free  transition at x/c =  0.3730   39

 102   rms: 0.6439E-02   max: -.7843E-01   C at   55  1
       a =  1.000      CL =  0.5600
      Cm = -0.0916     CD =  0.01272   =>   CDf =  0.00810    CDp =  0.00462

 Side 1  free  transition at x/c =  0.6032   55
 Side 2  free  transition at x/c =  0.3730   39

 103   rms: 0.6439E-02   max: -.7843E-01   C at   55  1
       a =  1.000      CL =  0.5600
      Cm = -0.0916     CD =  0.01272   =>   CDf =  0.00810    CDp =  0.00462

 Side 1  free  transition at x/c =  0.6032   55
 Side 2  free  transition at x/c =  0.3730   39

 104   rms: 0.6439E-02   max: -.7843E-01   C at   55  1
       a =  1.000      CL =  0.5600
      Cm = -0.0916     CD =  0.01272   =>   CDf =  0.00810    CDp =  0.00462

 Side 1  free  transition at x/c =  0.6032   55
 Side 2  free  transition at x/c =  0.3730   39

 105   rms: 0.6439E-02   max: -.7843E-01   C at   55  1
       a =  1.000      CL =  0.5600
      Cm = -0.0916     CD =  0.01272   =>   CDf =  0.00810    CDp =  0.00462

 Side 1  free  transition at x/c =  0.6032   55
 Side 2  free  transition at x/c =  0.3730   39

 106   rms: 0.6439E-02   max: -.7843E-01   C at   55  1
       a =  1.000      CL =  0.5600
      Cm = -0.0916     CD =  0.01272   =>   CDf =  0.00810    CDp =  0.00462

 Side 1  free  transition at x/c =  0.6032   55
 Side 2  free  transition at x/c =  0.3730   39

 107   rms: 0.6439E-02   max: -.7843E-01   C at   55  1
       a =  1.000      CL =  0.5600
      Cm = -0.0916     CD =  0.01272   =>   CDf =  0.00810    CDp =  0.00462

 Side 1  free  transition at x/c =  0.6032   55
 Side 2  free  transition at x/c =  0.3730   39

 108   rms: 0.6439E-02   max: -.7843E-01   C at   55  1
       a =  1.000      CL =  0.5600
      Cm = -0.0916     CD =  0.01272   =>   CDf =  0.00810    CDp =  0.00462

 Side 1  free  transition at x/c =  0.6032   55
 Side 2  free  transition at x/c =  0.3730   39

 109   rms: 0.6439E-02   max: -.7843E-01   C at   55  1
       a =  1.000      CL =  0.5600
      Cm = -0.0916     CD =  0.01272   =>   CDf =  0.00810    CDp =  0.00462

 Side 1  free  transition at x/c =  0.6032   55
 Side 2  free  transition at x/c =  0.3730   39

 110   rms: 0.6439E-02   max: -.7843E-01   C at   55  1
       a =  1.000      CL =  0.5600
      Cm = -0.0916     CD =  0.01272   =>   CDf =  0.00810    CDp =  0.00462

 Side 1  free  transition at x/c =  0.6032   55
 Side 2  free  transition at x/c =  0.3730   39

 111   rms: 0.6439E-02   max: -.7843E-01   C at   55  1
       a =  1.000      CL =  0.5600
      Cm = -0.0916     CD =  0.01272   =>   CDf =  0.00810    CDp =  0.00462

 Side 1  free  transition at x/c =  0.6032   55
 Side 2  free  transition at x/c =  0.3730   39

 112   rms: 0.6439E-02   max: -.7843E-01   C at   55  1
       a =  1.000      CL =  0.5600
      Cm = -0.0916     CD =  0.01272   =>   CDf =  0.00810    CDp =  0.00462

 Side 1  free  transition at x/c =  0.6032   55
 Side 2  free  transition at x/c =  0.3730   39

 113   rms: 0.6439E-02   max: -.7843E-01   C at   55  1
       a =  1.000      CL =  0.5600
      Cm = -0.0916     CD =  0.01272   =>   CDf =  0.00810    CDp =  0.00462

 Side 1  free  transition at x/c =  0.6032   55
 Side 2  free  transition at x/c =  0.3730   39

 114   rms: 0.6439E-02   max: -.7843E-01   C at   55  1
       a =  1.000      CL =  0.5600
      Cm = -0.0916     CD =  0.01272   =>   CDf =  0.00810    CDp =  0.00462

 Side 1  free  transition at x/c =  0.6032   55
 Side 2  free  transition at x/c =  0.3730   39

 115   rms: 0.6439E-02   max: -.7843E-01   C at   55  1
       a =  1.000      CL =  0.5600
      Cm = -0.0916     CD =  0.01272   =>   CDf =  0.00810    CDp =  0.00462

 Side 1  free  transition at x/c =  0.6032   55
 Side 2  free  transition at x/c =  0.3730   39

 116   rms: 0.6439E-02   max: -.7843E-01   C at   55  1
       a =  1.000      CL =  0.5600
      Cm = -0.0916     CD =  0.01272   =>   CDf =  0.00810    CDp =  0.00462

 Side 1  free  transition at x/c =  0.6032   55
 Side 2  free  transition at x/c =  0.3730   39

 117   rms: 0.6439E-02   max: -.7843E-01   C at   55  1
       a =  1.000      CL =  0.5600
      Cm = -0.0916     CD =  0.01272   =>   CDf =  0.00810    CDp =  0.00462

 Side 1  free  transition at x/c =  0.6032   55
 Side 2  free  transition at x/c =  0.3730   39

 118   rms: 0.6439E-02   max: -.7843E-01   C at   55  1
       a =  1.000      CL =  0.5600
      Cm = -0.0916     CD =  0.01272   =>   CDf =  0.00810    CDp =  0.00462

 Side 1  free  transition at x/c =  0.6032   55
 Side 2  free  transition at x/c =  0.3730   39

 119   rms: 0.6439E-02   max: -.7844E-01   C at   55  1
       a =  1.000      CL =  0.5600
      Cm = -0.0916     CD =  0.01272   =>   CDf =  0.00810    CDp =  0.00462

 Side 1  free  transition at x/c =  0.6032   55
 Side 2  free  transition at x/c =  0.3730   39

 120   rms: 0.6439E-02   max: -.7843E-01   C at   55  1
       a =  1.000      CL =  0.5600
      Cm = -0.0916     CD =  0.01272   =>   CDf =  0.00810    CDp =  0.00462

 Side 1  free  transition at x/c =  0.6032   55
 Side 2  free  transition at x/c =  0.3730   39

 121   rms: 0.6439E-02   max: -.7844E-01   C at   55  1
       a =  1.000      CL =  0.5600
      Cm = -0.0916     CD =  0.01272   =>   CDf =  0.00810    CDp =  0.00462

 Side 1  free  transition at x/c =  0.6032   55
 Side 2  free  transition at x/c =  0.3730   39

 122   rms: 0.6439E-02   max: -.7843E-01   C at   55  1
       a =  1.000      CL =  0.5600
      Cm = -0.0916     CD =  0.01272   =>   CDf =  0.00810    CDp =  0.00462

 Side 1  free  transition at x/c =  0.6032   55
 Side 2  free  transition at x/c =  0.3730   39

 123   rms: 0.6439E-02   max: -.7843E-01   C at   55  1
       a =  1.000      CL =  0.5600
      Cm = -0.0916     CD =  0.01272   =>   CDf =  0.00810    CDp =  0.00462

 Side 1  free  transition at x/c =  0.6032   55
 Side 2  free  transition at x/c =  0.3730   39

 124   rms: 0.6439E-02   max: -.7843E-01   C at   55  1
       a =  1.000      CL =  0.5600
      Cm = -0.0916     CD =  0.01272   =>   CDf =  0.00810    CDp =  0.00462

 Side 1  free  transition at x/c =  0.6032   55
 Side 2  free  transition at x/c =  0.3730   39

 125   rms: 0.6439E-02   max: -.7843E-01   C at   55  1
       a =  1.000      CL =  0.5600
      Cm = -0.0916     CD =  0.01272   =>   CDf =  0.00810    CDp =  0.00462

 Side 1  free  transition at x/c =  0.6032   55
 Side 2  free  transition at x/c =  0.3730   39

 126   rms: 0.6439E-02   max: -.7843E-01   C at   55  1
       a =  1.000      CL =  0.5600
      Cm = -0.0916     CD =  0.01272   =>   CDf =  0.00810    CDp =  0.00462

 Side 1  free  transition at x/c =  0.6032   55
 Side 2  free  transition at x/c =  0.3730   39

 127   rms: 0.6439E-02   max: -.7843E-01   C at   55  1
       a =  1.000      CL =  0.5600
      Cm = -0.0916     CD =  0.01272   =>   CDf =  0.00810    CDp =  0.00462

 Side 1  free  transition at x/c =  0.6032   55
 Side 2  free  transition at x/c =  0.3730   39

 128   rms: 0.6439E-02   max: -.7843E-01   C at   55  1
       a =  1.000      CL =  0.5600
      Cm = -0.0916     CD =  0.01272   =>   CDf =  0.00810    CDp =  0.00462

 Side 1  free  transition at x/c =  0.6032   55
 Side 2  free  transition at x/c =  0.3730   39

 129   rms: 0.6439E-02   max: -.7843E-01   C at   55  1
       a =  1.000      CL =  0.5600
      Cm = -0.0916     CD =  0.01272   =>   CDf =  0.00810    CDp =  0.00462

 Side 1  free  transition at x/c =  0.6032   55
 Side 2  free  transition at x/c =  0.3730   39

 130   rms: 0.6439E-02   max: -.7843E-01   C at   55  1
       a =  1.000      CL =  0.5600
      Cm = -0.0916     CD =  0.01272   =>   CDf =  0.00810    CDp =  0.00462

 Side 1  free  transition at x/c =  0.6032   55
 Side 2  free  transition at x/c =  0.3730   39

 131   rms: 0.6439E-02   max: -.7843E-01   C at   55  1
       a =  1.000      CL =  0.5600
      Cm = -0.0916     CD =  0.01272   =>   CDf =  0.00810    CDp =  0.00462

 Side 1  free  transition at x/c =  0.6032   55
 Side 2  free  transition at x/c =  0.3730   39

 132   rms: 0.6439E-02   max: -.7843E-01   C at   55  1
       a =  1.000      CL =  0.5600
      Cm = -0.0916     CD =  0.01272   =>   CDf =  0.00810    CDp =  0.00462

 Side 1  free  transition at x/c =  0.6032   55
 Side 2  free  transition at x/c =  0.3730   39

 133   rms: 0.6439E-02   max: -.7843E-01   C at   55  1
       a =  1.000      CL =  0.5600
      Cm = -0.0916     CD =  0.01272   =>   CDf =  0.00810    CDp =  0.00462

 Side 1  free  transition at x/c =  0.6032   55
 Side 2  free  transition at x/c =  0.3730   39

 134   rms: 0.6439E-02   max: -.7843E-01   C at   55  1
       a =  1.000      CL =  0.5600
      Cm = -0.0916     CD =  0.01272   =>   CDf =  0.00810    CDp =  0.00462

 Side 1  free  transition at x/c =  0.6032   55
 Side 2  free  transition at x/c =  0.3730   39

 135   rms: 0.6439E-02   max: -.7843E-01   C at   55  1
       a =  1.000      CL =  0.5600
      Cm = -0.0916     CD =  0.01272   =>   CDf =  0.00810    CDp =  0.00462

 Side 1  free  transition at x/c =  0.6032   55
 Side 2  free  transition at x/c =  0.3730   39

 136   rms: 0.6439E-02   max: -.7843E-01   C at   55  1
       a =  1.000      CL =  0.5600
      Cm = -0.0916     CD =  0.01272   =>   CDf =  0.00810    CDp =  0.00462

 Side 1  free  transition at x/c =  0.6032   55
 Side 2  free  transition at x/c =  0.3730   39

 137   rms: 0.6439E-02   max: -.7843E-01   C at   55  1
       a =  1.000      CL =  0.5600
      Cm = -0.0916     CD =  0.01272   =>   CDf =  0.00810    CDp =  0.00462

 Side 1  free  transition at x/c =  0.6032   55
 Side 2  free  transition at x/c =  0.3730   39

 138   rms: 0.6439E-02   max: -.7843E-01   C at   55  1
       a =  1.000      CL =  0.5600
      Cm = -0.0916     CD =  0.01272   =>   CDf =  0.00810    CDp =  0.00462

 Side 1  free  transition at x/c =  0.6032   55
 Side 2  free  transition at x/c =  0.3730   39

 139   rms: 0.6439E-02   max: -.7843E-01   C at   55  1
       a =  1.000      CL =  0.5600
      Cm = -0.0916     CD =  0.01272   =>   CDf =  0.00810    CDp =  0.00462

 Side 1  free  transition at x/c =  0.6032   55
 Side 2  free  transition at x/c =  0.3730   39

 140   rms: 0.6439E-02   max: -.7843E-01   C at   55  1
       a =  1.000      CL =  0.5600
      Cm = -0.0916     CD =  0.01272   =>   CDf =  0.00810    CDp =  0.00462

 Side 1  free  transition at x/c =  0.6032   55
 Side 2  free  transition at x/c =  0.3730   39

 141   rms: 0.6439E-02   max: -.7842E-01   C at   55  1
       a =  1.000      CL =  0.5600
      Cm = -0.0916     CD =  0.01272   =>   CDf =  0.00810    CDp =  0.00462

 Side 1  free  transition at x/c =  0.6032   55
 Side 2  free  transition at x/c =  0.3730   39

 142   rms: 0.6439E-02   max: -.7843E-01   C at   55  1
       a =  1.000      CL =  0.5600
      Cm = -0.0916     CD =  0.01272   =>   CDf =  0.00810    CDp =  0.00462

 Side 1  free  transition at x/c =  0.6032   55
 Side 2  free  transition at x/c =  0.3730   39

 143   rms: 0.6439E-02   max: -.7843E-01   C at   55  1
       a =  1.000      CL =  0.5600
      Cm = -0.0916     CD =  0.01272   =>   CDf =  0.00810    CDp =  0.00462

 Side 1  free  transition at x/c =  0.6032   55
 Side 2  free  transition at x/c =  0.3730   39

 144   rms: 0.6439E-02   max: -.7844E-01   C at   55  1
       a =  1.000      CL =  0.5600
      Cm = -0.0916     CD =  0.01272   =>   CDf =  0.00810    CDp =  0.00462

 Side 1  free  transition at x/c =  0.6032   55
 Side 2  free  transition at x/c =  0.3730   39

 145   rms: 0.6439E-02   max: -.7843E-01   C at   55  1
       a =  1.000      CL =  0.5600
      Cm = -0.0916     CD =  0.01272   =>   CDf =  0.00810    CDp =  0.00462

 Side 1  free  transition at x/c =  0.6032   55
 Side 2  free  transition at x/c =  0.3730   39

 146   rms: 0.6439E-02   max: -.7843E-01   C at   55  1
       a =  1.000      CL =  0.5600
      Cm = -0.0916     CD =  0.01272   =>   CDf =  0.00810    CDp =  0.00462

 Side 1  free  transition at x/c =  0.6032   55
 Side 2  free  transition at x/c =  0.3730   39

 147   rms: 0.6439E-02   max: -.7843E-01   C at   55  1
       a =  1.000      CL =  0.5600
      Cm = -0.0916     CD =  0.01272   =>   CDf =  0.00810    CDp =  0.00462

 Side 1  free  transition at x/c =  0.6032   55
 Side 2  free  transition at x/c =  0.3730   39

 148   rms: 0.6439E-02   max: -.7843E-01   C at   55  1
       a =  1.000      CL =  0.5600
      Cm = -0.0916     CD =  0.01272   =>   CDf =  0.00810    CDp =  0.00462

 Side 1  free  transition at x/c =  0.6032   55
 Side 2  free  transition at x/c =  0.3730   39

 149   rms: 0.6439E-02   max: -.7843E-01   C at   55  1
       a =  1.000      CL =  0.5600
      Cm = -0.0916     CD =  0.01272   =>   CDf =  0.00810    CDp =  0.00462

 Side 1  free  transition at x/c =  0.6032   55
 Side 2  free  transition at x/c =  0.3730   39

 150   rms: 0.6439E-02   max: -.7843E-01   C at   55  1
       a =  1.000      CL =  0.5600
      Cm = -0.0916     CD =  0.01272   =>   CDf =  0.00810    CDp =  0.00462

 Side 1  free  transition at x/c =  0.6032   55
 Side 2  free  transition at x/c =  0.3730   39

 151   rms: 0.6439E-02   max: -.7844E-01   C at   55  1
       a =  1.000      CL =  0.5600
      Cm = -0.0916     CD =  0.01272   =>   CDf =  0.00810    CDp =  0.00462

 Side 1  free  transition at x/c =  0.6032   55
 Side 2  free  transition at x/c =  0.3730   39

 152   rms: 0.6439E-02   max: -.7843E-01   C at   55  1
       a =  1.000      CL =  0.5600
      Cm = -0.0916     CD =  0.01272   =>   CDf =  0.00810    CDp =  0.00462

 Side 1  free  transition at x/c =  0.6032   55
 Side 2  free  transition at x/c =  0.3730   39

 153   rms: 0.6439E-02   max: -.7843E-01   C at   55  1
       a =  1.000      CL =  0.5600
      Cm = -0.0916     CD =  0.01272   =>   CDf =  0.00810    CDp =  0.00462

 Side 1  free  transition at x/c =  0.6032   55
 Side 2  free  transition at x/c =  0.3730   39

 154   rms: 0.6439E-02   max: -.7843E-01   C at   55  1
       a =  1.000      CL =  0.5600
      Cm = -0.0916     CD =  0.01272   =>   CDf =  0.00810    CDp =  0.00462

 Side 1  free  transition at x/c =  0.6032   55
 Side 2  free  transition at x/c =  0.3730   39

 155   rms: 0.6439E-02   max: -.7843E-01   C at   55  1
       a =  1.000      CL =  0.5600
      Cm = -0.0916     CD =  0.01272   =>   CDf =  0.00810    CDp =  0.00462
 VISCAL:  Convergence failed
 Calculating wake trajectory ...
 Calculating source influence matrix ...

 Solving BL system ...

[...]
 Calculating source influence matrix ...

 Solving BL system ...

 Side 1  free  transition at x/c =  0.0242   24
 Side 2 forced transition at x/c =  1.0000   70

   1   rms: 0.2967E-01   max: 0.9763E-01   T at   24  1   RLX: 0.559
       a = 13.000      CL =  1.1464
      Cm = -0.0224     CD =  0.05937   =>   CDf =  0.00726    CDp =  0.05210

 Side 1  free  transition at x/c =  0.0239   24
 Side 2 forced transition at x/c =  1.0000   70

   2   rms: 0.1328E-01   max: 0.4459E-01   D at   61  1
       a = 13.000      CL =  1.1470
      Cm = -0.0220     CD =  0.06045   =>   CDf =  0.00723    CDp =  0.05322

 Side 1  free  transition at x/c =  0.0238   24
 Side 2 forced transition at x/c =  1.0000   70

   3   rms: 0.1651E-02   max: 0.7343E-02   D at   84  2
       a = 13.000      CL =  1.1458
      Cm = -0.0220     CD =  0.06036   =>   CDf =  0.00720    CDp =  0.05317

 Side 1  free  transition at x/c =  0.0238   24
 Side 2 forced transition at x/c =  1.0000   70

   4   rms: 0.9580E-04   max: 0.6494E-03   D at   84  2
       a = 13.000      CL =  1.1457
      Cm = -0.0219     CD =  0.06034   =>   CDf =  0.00719    CDp =  0.05315
 plradd ia,ip,cpol           40           0  2.58820073E-04

 Point added to stored polar  1
 Point written to save file  usa29_Re300k.base.pol                           
 Dump file unspecified or not available
 Calculating wake trajectory ...
 Calculating source influence matrix ...

 Solving BL system ...

 Side 1  free  transition at x/c =  0.0238   24
 Side 2 forced transition at x/c =  1.0000   70

   1   rms: 0.2947E-01   max: 0.1006E+00   T at   24  1   RLX: 0.543
       a = 13.250      CL =  1.1483
      Cm = -0.0216     CD =  0.06178   =>   CDf =  0.00720    CDp =  0.05458

 Side 1  free  transition at x/c =  0.0235   24
 Side 2 forced transition at x/c =  1.0000   70

   2   rms: 0.1349E-01   max: 0.4287E-01   T at   24  1
       a = 13.250      CL =  1.1494
      Cm = -0.0213     CD =  0.06287   =>   CDf =  0.00716    CDp =  0.05570

 Side 1  free  transition at x/c =  0.0233   24
 Side 2 forced transition at x/c =  1.0000   70

   3   rms: 0.1553E-02   max: 0.8362E-02   D at   84  2
       a = 13.250      CL =  1.1483
      Cm = -0.0212     CD =  0.06276   =>   CDf =  0.00713    CDp =  0.05562

 Side 1  free  transition at x/c =  0.0233   24
 Side 2 forced transition at x/c =  1.0000   70

   4   rms: 0.7817E-04   max: 0.8609E-03   D at   84  2
       a = 13.250      CL =  1.1482
      Cm = -0.0212     CD =  0.06273   =>   CDf =  0.00713    CDp =  0.05560
 plradd ia,ip,cpol           41           0  2.58820073E-04

 Point added to stored polar  1
 Point written to save file  usa29_Re300k.base.pol                           
 Dump file unspecified or not available
 Calculating wake trajectory ...
 Calculating source influence matrix ...

 Solving BL system ...

 Side 1  free  transition at x/c =  0.0233   24
 Side 2 forced transition at x/c =  1.0000   70

   1   rms: 0.2972E-01   max: -.8054E-01   D at    3  2   RLX: 0.527
       a = 13.500      CL =  1.1508
      Cm = -0.0208     CD =  0.06406   =>   CDf =  0.00689    CDp =  0.05717

 Side 1  free  transition at x/c =  0.0231   25
 Side 2 forced transition at x/c =  1.0000   69

   2   rms: 0.1736E-01   max: 0.1780E+00   D at    2  1
       a = 13.500      CL =  1.1523
      Cm = -0.0204     CD =  0.06512   =>   CDf =  0.00710    CDp =  0.05803

 Side 1  free  transition at x/c =  0.0229   25
 Side 2 forced transition at x/c =  1.0000   69

   3   rms: 0.1721E-02   max: 0.7224E-02   D at   83  2
       a = 13.500      CL =  1.1511
      Cm = -0.0203     CD =  0.06505   =>   CDf =  0.00707    CDp =  0.05798

 Side 1  free  transition at x/c =  0.0230   25
 Side 2 forced transition at x/c =  1.0000   69

   4   rms: 0.1030E-03   max: 0.7304E-03   D at   83  2
       a = 13.500      CL =  1.1510
      Cm = -0.0203     CD =  0.06503   =>   CDf =  0.00707    CDp =  0.05796

 Side 1  free  transition at x/c =  0.0230   25
 Side 2 forced transition at x/c =  1.0000   69

   5   rms: 0.2089E-05   max: -.1448E-04   T at   83  2
       a = 13.500      CL =  1.1510
      Cm = -0.0203     CD =  0.06502   =>   CDf =  0.00707    CDp =  0.05796
 plradd ia,ip,cpol           42           0  2.58820073E-04

 Point added to stored polar  1
 Point written to save file  usa29_Re300k.base.pol                           
 Dump file unspecified or not available
 Calculating wake trajectory ...
 Calculating source influence matrix ...

 Solving BL system ...

 Side 1  free  transition at x/c =  0.0230   25
 Side 2 forced transition at x/c =  1.0000   69

   1   rms: 0.2912E-01   max: 0.9366E-01   T at   25  1   RLX: 0.514
       a = 13.750      CL =  1.1542
      Cm = -0.0199     CD =  0.06624   =>   CDf =  0.00707    CDp =  0.05917

 Side 1  free  transition at x/c =  0.0226   25
 Side 2 forced transition at x/c =  1.0000   69

   2   rms: 0.1379E-01   max: 0.5297E-01   T at   25  1
       a = 13.750      CL =  1.1565
      Cm = -0.0195     CD =  0.06729   =>   CDf =  0.00704    CDp =  0.06025

 Side 1  free  transition at x/c =  0.0223   25
 Side 2 forced transition at x/c =  1.0000   69

   3   rms: 0.2274E-02   max: -.1186E-01   D at   25  1
       a = 13.750      CL =  1.1552
      Cm = -0.0195     CD =  0.06723   =>   CDf =  0.00702    CDp =  0.06021

 Side 1  free  transition at x/c =  0.0223   25
 Side 2 forced transition at x/c =  1.0000   69

   4   rms: 0.1596E-03   max: -.1094E-02   D at   61  1
       a = 13.750      CL =  1.1553
      Cm = -0.0195     CD =  0.06719   =>   CDf =  0.00701    CDp =  0.06017

 Side 1  free  transition at x/c =  0.0223   25
 Side 2 forced transition at x/c =  1.0000   69

   5   rms: 0.2245E-04   max: -.1035E-03   D at   83  2
       a = 13.750      CL =  1.1553
      Cm = -0.0195     CD =  0.06719   =>   CDf =  0.00701    CDp =  0.06018
 plradd ia,ip,cpol           43           0  2.58820073E-04

 Point added to stored polar  1
 Point written to save file  usa29_Re300k.base.pol                           
 Dump file unspecified or not available
 Calculating wake trajectory ...
 Calculating source influence matrix ...

 Solving BL system ...

 Side 1  free  transition at x/c =  0.0223   25
 Side 2 forced transition at x/c =  1.0000   69

   1   rms: 0.2960E-01   max: 0.1110E+00   T at   25  1   RLX: 0.502
       a = 14.000      CL =  1.1589
      Cm = -0.0191     CD =  0.06830   =>   CDf =  0.00701    CDp =  0.06128

 Side 1  free  transition at x/c =  0.0219   25
 Side 2 forced transition at x/c =  1.0000   69

   2   rms: 0.1437E-01   max: 0.5380E-01   T at   25  1
       a = 14.000      CL =  1.1617
      Cm = -0.0187     CD =  0.06930   =>   CDf =  0.00699    CDp =  0.06230

 Side 1  free  transition at x/c =  0.0216   25
 Side 2 forced transition at x/c =  1.0000   69

   3   rms: 0.1695E-02   max: 0.6996E-02   D at   84  2
       a = 14.000      CL =  1.1605
      Cm = -0.0187     CD =  0.06923   =>   CDf =  0.00698    CDp =  0.06225

 Side 1  free  transition at x/c =  0.0216   25
 Side 2 forced transition at x/c =  1.0000   69

   4   rms: 0.7363E-04   max: 0.5609E-03   D at   84  2
       a = 14.000      CL =  1.1605
      Cm = -0.0186     CD =  0.06920   =>   CDf =  0.00697    CDp =  0.06222
 plradd ia,ip,cpol           44           0  2.58820073E-04

 Point added to stored polar  1
 Point written to save file  usa29_Re300k.base.pol                           
 Dump file unspecified or not available
 Calculating wake trajectory ...
 Calculating source influence matrix ...

 Solving BL system ...

 Side 1  free  transition at x/c =  0.0216   25
 Side 2 forced transition at x/c =  1.0000   69

   1   rms: 0.3027E-01   max: 0.1317E+00   T at   25  1   RLX: 0.490
       a = 14.250      CL =  1.1645
      Cm = -0.0183     CD =  0.07021   =>   CDf =  0.00697    CDp =  0.06323

 Side 1  free  transition at x/c =  0.0213   25
 Side 2 forced transition at x/c =  1.0000   69

   2   rms: 0.1516E-01   max: 0.6748E-01   T at   25  1
       a = 14.250      CL =  1.1678
      Cm = -0.0179     CD =  0.07123   =>   CDf =  0.00696    CDp =  0.06427

 Side 1  free  transition at x/c =  0.0209   25
 Side 2 forced transition at x/c =  1.0000   69

   3   rms: 0.1872E-02   max: 0.7502E-02   D at   84  2
       a = 14.250      CL =  1.1665
      Cm = -0.0178     CD =  0.07117   =>   CDf =  0.00694    CDp =  0.06422

 Side 1  free  transition at x/c =  0.0209   25
 Side 2 forced transition at x/c =  1.0000   69

   4   rms: 0.8601E-04   max: -.5725E-03   D at   61  1
       a = 14.250      CL =  1.1665
      Cm = -0.0178     CD =  0.07113   =>   CDf =  0.00694    CDp =  0.06419
 plradd ia,ip,cpol           45           0  2.58820073E-04

 Point added to stored polar  1
 Point written to save file  usa29_Re300k.base.pol                           
 Dump file unspecified or not available
 Calculating wake trajectory ...
 Calculating source influence matrix ...

 Solving BL system ...

 Side 1  free  transition at x/c =  0.0209   25
 Side 2 forced transition at x/c =  1.0000   69

   1   rms: 0.2869E-01   max: 0.1202E+00   T at   25  1   RLX: 0.480
       a = 14.500      CL =  1.1706
      Cm = -0.0175     CD =  0.07209   =>   CDf =  0.00694    CDp =  0.06515

 Side 1  free  transition at x/c =  0.0206   25
 Side 2 forced transition at x/c =  1.0000   69

   2   rms: 0.1442E-01   max: 0.6805E-01   T at   25  1
       a = 14.500      CL =  1.1741
      Cm = -0.0172     CD =  0.07313   =>   CDf =  0.00693    CDp =  0.06621

 Side 1  free  transition at x/c =  0.0203   25
 Side 2 forced transition at x/c =  1.0000   69

   3   rms: 0.1649E-02   max: 0.9297E-02   D at   84  2
       a = 14.500      CL =  1.1728
      Cm = -0.0171     CD =  0.07305   =>   CDf =  0.00691    CDp =  0.06614

 Side 1  free  transition at x/c =  0.0203   25
 Side 2 forced transition at x/c =  1.0000   69

   4   rms: 0.7007E-04   max: 0.6792E-03   D at   84  2
       a = 14.500      CL =  1.1728
      Cm = -0.0171     CD =  0.07302   =>   CDf =  0.00691    CDp =  0.06611
 plradd ia,ip,cpol           46           0  2.58820073E-04

 Point added to stored polar  1
 Point written to save file  usa29_Re300k.base.pol                           
 Dump file unspecified or not available
 Calculating wake trajectory ...
 Calculating source influence matrix ...

 Solving BL system ...

 Side 1  free  transition at x/c =  0.0203   25
 Side 2 forced transition at x/c =  1.0000   69

   1   rms: 0.3049E-01   max: 0.1459E+00   T at   25  1   RLX: 0.470
       a = 14.750      CL =  1.1775
      Cm = -0.0166     CD =  0.07378   =>   CDf =  0.00692    CDp =  0.06687

 Side 1  free  transition at x/c =  0.0200   25
 Side 2 forced transition at x/c =  1.0000   69

   2   rms: 0.1621E-01   max: 0.7482E-01   T at   25  1
       a = 14.750      CL =  1.1827
      Cm = -0.0160     CD =  0.07447   =>   CDf =  0.00692    CDp =  0.06755

 Side 1  free  transition at x/c =  0.0197   25
 Side 2 forced transition at x/c =  1.0000   69

   3   rms: 0.1140E-02   max: 0.4606E-02   D at   84  2
       a = 14.750      CL =  1.1818
      Cm = -0.0159     CD =  0.07443   =>   CDf =  0.00692    CDp =  0.06751

 Side 1  free  transition at x/c =  0.0197   25
 Side 2 forced transition at x/c =  1.0000   69

   4   rms: 0.6939E-04   max: 0.4061E-03   D at   84  2
       a = 14.750      CL =  1.1818
      Cm = -0.0159     CD =  0.07442   =>   CDf =  0.00692    CDp =  0.06750
 plradd ia,ip,cpol           47           0  2.58820073E-04

 Point added to stored polar  1
 Point written to save file  usa29_Re300k.base.pol                           
 Dump file unspecified or not available
 Calculating wake trajectory ...
 Calculating source influence matrix ...

 Solving BL system ...

 Side 1  free  transition at x/c =  0.0197   25
 Side 2 forced transition at x/c =  1.0000   69

   1   rms: 0.3421E-01   max: 0.1893E+00   T at   25  1   RLX: 0.463
       a = 15.000      CL =  1.1877
      Cm = -0.0152     CD =  0.07486   =>   CDf =  0.00692    CDp =  0.06794

 Side 1  free  transition at x/c =  0.0194   25
 Side 2 forced transition at x/c =  1.0000   69

   2   rms: 0.2288E-01   max: 0.1116E+00   T at   25  1
       a = 15.000      CL =  1.1970
      Cm = -0.0139     CD =  0.07472   =>   CDf =  0.00694    CDp =  0.06779

 Side 1  free  transition at x/c =  0.0191   25
 Side 2 forced transition at x/c =  1.0000   69

   3   rms: 0.4648E-02   max: -.2066E-01   D at   61  1
       a = 15.000      CL =  1.1985
      Cm = -0.0136     CD =  0.07433   =>   CDf =  0.00697    CDp =  0.06736

 Side 1  free  transition at x/c =  0.0190   25
 Side 2 forced transition at x/c =  1.0000   69

   4   rms: 0.7401E-03   max: -.3155E-02   D at   84  2
       a = 15.000      CL =  1.1990
      Cm = -0.0136     CD =  0.07442   =>   CDf =  0.00699    CDp =  0.06744

 Side 1  free  transition at x/c =  0.0190   25
 Side 2 forced transition at x/c =  1.0000   69

   5   rms: 0.6376E-04   max: 0.3631E-03   D at   61  1
       a = 15.000      CL =  1.1990
      Cm = -0.0136     CD =  0.07444   =>   CDf =  0.00699    CDp =  0.06745
 plradd ia,ip,cpol           48           0  2.58820073E-04

 Point added to stored polar  1
 Point written to save file  usa29_Re300k.base.pol                           
 Dump file unspecified or not available
 Calculating wake trajectory ...
 Calculating source influence matrix ...

 Solving BL system ...

 Side 1  free  transition at x/c =  0.0190   25
 Side 2 forced transition at x/c =  1.0000   69

   1   rms: 0.6919E-01   max: 0.2240E+00   T at   61  1   RLX: 0.467
       a = 15.250      CL =  1.2146
      Cm = -0.0116     CD =  0.07301   =>   CDf =  0.00671    CDp =  0.06630

 Side 1  free  transition at x/c =  0.0188   26
 Side 2 forced transition at x/c =  1.0000   68

   2   rms: 0.9894E-01   max: 0.3267E+00   T at   64  1
       a = 15.250      CL =  1.2650
      Cm = -0.0061     CD =  0.06667   =>   CDf =  0.00702    CDp =  0.05966

 Side 1  free  transition at x/c =  0.0185   25
 Side 2 forced transition at x/c =  1.0000   68

   3   rms: 0.4850E-01   max: 0.3003E+00   D at   68  1
       a = 15.250      CL =  1.2422
      Cm = -0.0097     CD =  0.07313   =>   CDf =  0.00709    CDp =  0.06604

 Side 1  free  transition at x/c =  0.0185   25
 Side 2 forced transition at x/c =  1.0000   68

   4   rms: 0.4548E-02   max: 0.4461E-01   D at   66  1
       a = 15.250      CL =  1.2422
      Cm = -0.0093     CD =  0.07180   =>   CDf =  0.00705    CDp =  0.06475

 Side 1  free  transition at x/c =  0.0185   25
 Side 2 forced transition at x/c =  1.0000   68

   5   rms: 0.3275E-03   max: 0.2057E-02   D at   65  1
       a = 15.250      CL =  1.2420
      Cm = -0.0093     CD =  0.07180   =>   CDf =  0.00705    CDp =  0.06475

 Side 1  free  transition at x/c =  0.0185   25
 Side 2 forced transition at x/c =  1.0000   68

   6   rms: 0.1482E-04   max: 0.1274E-03   D at   84  2
       a = 15.250      CL =  1.2420
      Cm = -0.0093     CD =  0.07179   =>   CDf =  0.00705    CDp =  0.06474
 plradd ia,ip,cpol           49           0  2.58820073E-04

 Point added to stored polar  1
 Point written to save file  usa29_Re300k.base.pol                           
 Dump file unspecified or not available
 Calculating wake trajectory ...
 Calculating source influence matrix ...

 Solving BL system ...

 Side 1  free  transition at x/c =  0.0185   25
 Side 2 forced transition at x/c =  1.0000   68

   1   rms: 0.2703E-01   max: 0.1272E+00   T at   25  1   RLX: 0.460
       a = 15.500      CL =  1.2440
      Cm = -0.0092     CD =  0.07308   =>   CDf =  0.00705    CDp =  0.06602

 Side 1  free  transition at x/c =  0.0184   25
 Side 2 forced transition at x/c =  1.0000   68

   2   rms: 0.1486E-01   max: 0.5716E-01   T at   25  1
       a = 15.500      CL =  1.2487
      Cm = -0.0088     CD =  0.07408   =>   CDf =  0.00698    CDp =  0.06710

 Side 1  free  transition at x/c =  0.0183   25
 Side 2 forced transition at x/c =  1.0000   68

   3   rms: 0.1078E-02   max: 0.5747E-02   D at   84  2
       a = 15.500      CL =  1.2478
      Cm = -0.0087     CD =  0.07397   =>   CDf =  0.00690    CDp =  0.06707

 Side 1  free  transition at x/c =  0.0183   25
 Side 2 forced transition at x/c =  1.0000   68

   4   rms: 0.1198E-04   max: 0.1464E-03   D at   84  2
       a = 15.500      CL =  1.2478
      Cm = -0.0087     CD =  0.07397   =>   CDf =  0.00690    CDp =  0.06706
 plradd ia,ip,cpol           50           0  2.58820073E-04

 Point added to stored polar  1
 Point written to save file  usa29_Re300k.base.pol                           
 Dump file unspecified or not available
 Calculating wake trajectory ...
 Calculating source influence matrix ...

 Solving BL system ...

 Side 1  free  transition at x/c =  0.0183   25
 Side 2 forced transition at x/c =  1.0000   68

   1   rms: 0.3088E-01   max: -.5585E-01   D at    5  2   RLX: 0.454
       a = 15.750      CL =  1.2540
      Cm = -0.0083     CD =  0.07471   =>   CDf =  0.00691    CDp =  0.06780

 Side 1  free  transition at x/c =  0.0182   25
 Side 2 forced transition at x/c =  1.0000   68

   2   rms: 0.1754E-01   max: -.3155E-01   D at    5  2
       a = 15.750      CL =  1.2615
      Cm = -0.0077     CD =  0.07552   =>   CDf =  0.00685    CDp =  0.06867

 Side 1  free  transition at x/c =  0.0182   25
 Side 2 forced transition at x/c =  1.0000   68

   3   rms: 0.2692E-02   max: 0.9946E-02   D at   65  1
       a = 15.750      CL =  1.2594
      Cm = -0.0077     CD =  0.07566   =>   CDf =  0.00678    CDp =  0.06887

 Side 1  free  transition at x/c =  0.0182   25
 Side 2 forced transition at x/c =  1.0000   68

   4   rms: 0.1027E-03   max: 0.1074E-02   D at   84  2
       a = 15.750      CL =  1.2594
      Cm = -0.0077     CD =  0.07559   =>   CDf =  0.00678    CDp =  0.06881

 Side 1  free  transition at x/c =  0.0182   25
 Side 2 forced transition at x/c =  1.0000   68

   5   rms: 0.6121E-05   max: -.2819E-04   D at   83  2
       a = 15.750      CL =  1.2594
      Cm = -0.0077     CD =  0.07559   =>   CDf =  0.00678    CDp =  0.06881
 plradd ia,ip,cpol           51           0  2.30109836E-05

 Point added to stored polar  1
 Point written to save file  usa29_Re300k.base.pol                           
 Dump file unspecified or not available
 Calculating wake trajectory ...
 Calculating source influence matrix ...

 Solving BL system ...

 Side 1  free  transition at x/c =  0.0182   25
 Side 2 forced transition at x/c =  1.0000   68

   1   rms: 0.3230E-01   max: 0.4168E-01   D at   87  2   RLX: 0.448
       a = 16.000      CL =  1.2659
      Cm = -0.0072     CD =  0.07632   =>   CDf =  0.00678    CDp =  0.06953

 Side 1  free  transition at x/c =  0.0181   25
 Side 2 forced transition at x/c =  1.0000   68

   2   rms: 0.1684E-01   max: 0.2977E-01   D at   87  2
       a = 16.000      CL =  1.2718
      Cm = -0.0067     CD =  0.07743   =>   CDf =  0.00672    CDp =  0.07071

 Side 1  free  transition at x/c =  0.0180   25
 Side 2 forced transition at x/c =  1.0000   68

   3   rms: 0.3170E-02   max: 0.1148E-01   D at   65  1
       a = 16.000      CL =  1.2692
      Cm = -0.0068     CD =  0.07755   =>   CDf =  0.00664    CDp =  0.07090

 Side 1  free  transition at x/c =  0.0180   25
 Side 2 forced transition at x/c =  1.0000   68

   4   rms: 0.1373E-03   max: 0.8364E-03   D at   84  2
       a = 16.000      CL =  1.2693
      Cm = -0.0067     CD =  0.07746   =>   CDf =  0.00664    CDp =  0.07082

 Side 1  free  transition at x/c =  0.0180   25
 Side 2 forced transition at x/c =  1.0000   68

   5   rms: 0.7131E-05   max: -.5061E-04   D at   84  2
       a = 16.000      CL =  1.2693
      Cm = -0.0067     CD =  0.07746   =>   CDf =  0.00664    CDp =  0.07082
 plradd ia,ip,cpol           52           0  2.30109836E-05

 Point added to stored polar  1
 Point written to save file  usa29_Re300k.base.pol                           
 Dump file unspecified or not available

.OPERva   c>  
 Polar accumulation disabled

.OPERv   c>  
 XFOIL   c>  
 XFOIL   c>  