  
       XFOIL         Version 6.99
  
 Calculated polar for: USA 25 AIRFOIL                                  
  
 1 1 Reynolds number fixed          Mach number fixed         
  
 xtrf =   1.000 (top)        1.000 (bottom)  
 Mach =   0.000     Re =     0.150 e 6     Ncrit =   9.000
  
   alpha    CL        CD       CDp       CM     Top_Xtr  Bot_Xtr
  ------ -------- --------- --------- -------- -------- --------
  -4.000  -0.1430   0.05290   0.04878  -0.0526   0.9507   0.0948
  -3.500  -0.0619   0.04681   0.04213  -0.0615   0.9352   0.1058
  -3.000   0.0016   0.04090   0.03615  -0.0652   0.9197   0.1122
  -2.500   0.0697   0.03587   0.03077  -0.0687   0.8996   0.1236
  -2.000   0.1440   0.02554   0.01927  -0.0706   0.8796   0.0796
  -1.500   0.2235   0.01903   0.01148  -0.0730   0.8511   0.0752
  -1.000   0.3236   0.01572   0.00771  -0.0805   0.7873   0.0823
  -0.500   0.3930   0.01456   0.00583  -0.0818   0.6711   0.0965
   0.000   0.4435   0.01479   0.00560  -0.0802   0.6136   0.1407
   0.500   0.4947   0.01533   0.00584  -0.0792   0.5850   0.1713
   1.000   0.5468   0.01557   0.00588  -0.0784   0.5651   0.1922
   1.500   0.5994   0.01570   0.00596  -0.0779   0.5509   0.2152
   2.000   0.6506   0.01582   0.00609  -0.0770   0.5383   0.2525
   2.500   0.6989   0.01577   0.00620  -0.0755   0.5275   0.3025
   3.000   0.8449   0.01508   0.00677  -0.0946   0.5111   1.0000
   3.500   0.8886   0.01564   0.00723  -0.0922   0.4985   1.0000
   4.000   0.9323   0.01624   0.00777  -0.0899   0.4860   1.0000
   4.500   0.9787   0.01694   0.00835  -0.0881   0.4751   1.0000
   5.000   1.0200   0.01753   0.00910  -0.0854   0.4642   1.0000
   5.500   1.0635   0.01827   0.00995  -0.0831   0.4538   1.0000
   6.000   1.1098   0.01906   0.01075  -0.0814   0.4430   1.0000
   6.500   1.1481   0.01952   0.01134  -0.0780   0.4258   1.0000
   7.000   1.1809   0.01957   0.01150  -0.0733   0.4025   1.0000
   7.500   1.2164   0.01961   0.01153  -0.0692   0.3812   1.0000
   8.000   1.2431   0.01952   0.01173  -0.0634   0.3563   1.0000
   8.500   1.2681   0.01938   0.01176  -0.0573   0.3236   1.0000
   9.000   1.2906   0.01971   0.01210  -0.0511   0.2767   1.0000
   9.500   1.3006   0.02105   0.01312  -0.0433   0.2139   1.0000
  10.000   1.3064   0.02307   0.01490  -0.0355   0.1632   1.0000
  10.000   1.3064   0.02307   0.01490  -0.0355   0.1632   1.0000
  10.250   1.3068   0.02437   0.01604  -0.0316   0.1240   1.0000
  10.500   1.2946   0.02644   0.01768  -0.0265   0.0726   1.0000
  10.750   1.2850   0.02850   0.01958  -0.0220   0.0488   1.0000
  11.000   1.2825   0.03023   0.02131  -0.0187   0.0393   1.0000
  11.250   1.2811   0.03199   0.02314  -0.0158   0.0349   1.0000
  11.500   1.2795   0.03388   0.02513  -0.0132   0.0326   1.0000
  11.750   1.2758   0.03606   0.02743  -0.0109   0.0312   1.0000
  12.000   1.2704   0.03857   0.03007  -0.0090   0.0303   1.0000
  12.250   1.2650   0.04128   0.03294  -0.0076   0.0297   1.0000
  12.500   1.2590   0.04428   0.03611  -0.0066   0.0293   1.0000
  12.750   1.2516   0.04768   0.03968  -0.0062   0.0289   1.0000
  13.000   1.2437   0.05141   0.04356  -0.0062   0.0286   1.0000
  13.250   1.2353   0.05539   0.04769  -0.0065   0.0283   1.0000
  13.500   1.2274   0.05948   0.05191  -0.0071   0.0279   1.0000
  13.750   1.2216   0.06331   0.05586  -0.0076   0.0278   1.0000
  14.000   1.2153   0.06722   0.05986  -0.0082   0.0272   1.0000
  14.250   1.2113   0.07079   0.06350  -0.0085   0.0268   1.0000
  14.500   1.2090   0.07409   0.06686  -0.0087   0.0263   1.0000
  14.750   1.2086   0.07704   0.06986  -0.0086   0.0257   1.0000
  15.000   1.2128   0.07905   0.07183  -0.0075   0.0249   1.0000
  15.250   1.2247   0.08007   0.07286  -0.0056   0.0247   1.0000
  15.500   1.2401   0.08087   0.07371  -0.0035   0.0246   1.0000
  15.750   1.2551   0.08209   0.07503  -0.0018   0.0245   1.0000
  16.000   1.2666   0.08411   0.07719  -0.0006   0.0246   1.0000
