
 ===================================================
  XFOIL Version 6.99
  Copyright (C) 2000   Mark Drela, Harold Youngren

  This software comes with ABSOLUTELY NO WARRANTY,
    subject to the GNU General Public License.

  Caveat computor
 ===================================================

 File  xfoil.def  not found

   QUIT    Exit program

  .OPER    Direct operating point(s)
  .MDES    Complex mapping design routine
  .QDES    Surface speed design routine
  .GDES    Geometry design routine

   SAVE f  Write airfoil to labeled coordinate file
   PSAV f  Write airfoil to plain coordinate file
   ISAV f  Write airfoil to ISES coordinate file
   MSAV f  Write airfoil to MSES coordinate file
   REVE    Reverse written-airfoil node ordering

   LOAD f  Read buffer airfoil from coordinate file
   NACA i  Set NACA 4,5-digit airfoil and buffer airfoil
   INTE    Set buffer airfoil by interpolating two airfoils
   NORM    Buffer airfoil normalization toggle
   XYCM rr Change CM reference location, currently  0.25000 0.00000

   BEND    Display structural properties of current airfoil

   PCOP    Set current-airfoil panel nodes directly from buffer airfoil points
   PANE    Set current-airfoil panel nodes ( 160 ) based on curvature
  .PPAR    Show/change paneling

  .PLOP    Plotting options

   WDEF f  Write  current-settings file
   RDEF f  Reread current-settings file
   NAME s  Specify new airfoil name
   NINC    Increment name version number

   Z       Zoom    | (available in all menus)
   U       Unzoom  | 

 XFOIL   c>  
 Labeled airfoil file.  Name:  USA-35B AIRFOIL                                 

 Number of input coordinate points:  33
 Counterclockwise ordering
 Max thickness =     0.116173  at x =   0.297
 Max camber    =     0.039982  at x =   0.397

  LE  x,y  =  -0.00008   0.00213  |   Chord =   1.00049
  TE  x,y  =   1.00000  -0.02635  |

 Current airfoil nodes set from buffer airfoil nodes (  33 )

 WARNING: Poor input coordinate distribution
          Excessive panel angle   63.5  at i =  17
          Repaneling with PANE and/or PPAR suggested
           (doing GDES,CADD before repaneling _may_
            improve excessively coarse LE spacing

 XFOIL   c>  
 XFOIL   c>  
 Blunt trailing edge.  Gap =  0.00250

 Paneling parameters used...
   Number of panel nodes       160
   Panel bunching parameter    1.000
   TE/LE panel density ratio   0.150
   Refined-area/LE panel density ratio    0.200
   Top    side refined area x/c limits  1.000 1.000
   Bottom side refined area x/c limits  1.000 1.000

 XFOIL   c>  
.OPERi   c>  
 Xtr/c     =  1.0000    top    side
 Xtr/c     =  1.0000    bottom side
 Ncrit     =    9.00   ( 0.070 % turb. level )
 Vacc      =  0.0100

 Klag  =  5.6000     Uxwt  =    1.00
 A     =  6.7000     B     =  0.7500       KCt = 0.01485
 CtiniK=  1.8000     CtiniX=  3.3000

..VPAR   c>  
..VPAR   c>  
.OPERi   c>  
 M  =    0.0000
 Re =    600000

.OPERv   c>  
.OPERv   c>  
.OPERv   c>  
 Polar  1 newly created for accumulation
 Airfoil archived with polar: USA-35B AIRFOIL                                 

Enter  polar save filename  OR  <return> for no file   s>  
 New polar save file available

Enter  polar dump filename  OR  <return> for no file   s>  
 Polar dump file will NOT be written

 Polar accumulation enabled

.OPERva   c>   Calculating unit vorticity distributions ...
 Calculating wake trajectory ...
 Calculating source influence matrix ...

 Solving BL system ...

 Initializing BL ...
    side            1  ...
 MRCHUE: Inverse mode at  46     Hk =   4.204
 MRCHUE: Inverse mode at  47     Hk =   5.092
 MRCHUE: Inverse mode at  48     Hk =   5.967
 MRCHUE: Inverse mode at  49     Hk =   6.834
 MRCHUE: Inverse mode at  50     Hk =   7.695
 MRCHUE: Inverse mode at  51     Hk =   8.551
 MRCHUE: Inverse mode at  52     Hk =   8.031
 MRCHUE: Inverse mode at  53     Hk =   4.532
 MRCHUE: Inverse mode at  54     Hk =   2.695
    side            2  ...
 MRCHUE: Inverse mode at  20     Hk =   4.143
 MRCHUE: Inverse mode at  21     Hk =   5.228
 MRCHUE: Inverse mode at  22     Hk =   6.310
 MRCHUE: Inverse mode at  23     Hk =   7.422
 MRCHUE: Inverse mode at  24     Hk =   8.587
 MRCHUE: Inverse mode at  25     Hk =   9.820
 MRCHUE: Inverse mode at  26     Hk =   5.236
 MRCHUE: Inverse mode at  27     Hk =   2.500

 Side 1  free  transition at x/c =  0.5854   52
 Side 2  free  transition at x/c =  0.0473   26

   1   rms: 0.1645E+00   max: -.1144E+01   T at   52  1   RLX: 0.437
       a = -4.000      CL =  0.1507
      Cm = -0.0876     CD =  0.01171   =>   CDf =  0.00754    CDp =  0.00416

 MRCHDU: Convergence failed at  54  side 1    Res =  0.3242E+01
 MRCHDU: Convergence failed at  26  side 2    Res =  0.3839E+01
 MRCHDU: Convergence failed at  27  side 2    Res =  0.2049E+01
 MRCHDU: Convergence failed at  28  side 2    Res =  0.6124E+01
 MRCHDU: Convergence failed at  29  side 2    Res =  0.5437E+02
 MRCHDU: Convergence failed at  30  side 2    Res =  0.5800E+01
 MRCHDU: Convergence failed at  31  side 2    Res =  0.3852E+01
 MRCHDU: Convergence failed at  32  side 2    Res =  0.3693E+01
 MRCHDU: Convergence failed at  33  side 2    Res =  0.4141E+01
 MRCHDU: Convergence failed at  34  side 2    Res =  0.5138E+01
 MRCHDU: Convergence failed at  35  side 2    Res =  0.6407E+01
 MRCHDU: Convergence failed at  36  side 2    Res =  0.7657E+01
 MRCHDU: Convergence failed at  37  side 2    Res =  0.8757E+01
 MRCHDU: Convergence failed at  38  side 2    Res =  0.3668E+02
 MRCHDU: Convergence failed at  39  side 2    Res =  0.6123E+02
 MRCHDU: Convergence failed at  40  side 2    Res =  0.7665E+03
 MRCHDU: Convergence failed at  41  side 2    Res =  0.1140E+04
 MRCHDU: Convergence failed at  42  side 2    Res =  0.4186E+02
 MRCHDU: Convergence failed at  43  side 2    Res =  0.6169E+02
 MRCHDU: Convergence failed at  44  side 2    Res =  0.2607E+02
 MRCHDU: Convergence failed at  45  side 2    Res =  0.2633E+02
 MRCHDU: Convergence failed at  46  side 2    Res =  0.2633E+02
 MRCHDU: Convergence failed at  47  side 2    Res =  0.2688E+02
 MRCHDU: Convergence failed at  48  side 2    Res =  0.2673E+02
 MRCHDU: Convergence failed at  49  side 2    Res =  0.2622E+02
 MRCHDU: Convergence failed at  50  side 2    Res =  0.8462E+02
 MRCHDU: Convergence failed at  51  side 2    Res =  0.9017E+02
 MRCHDU: Convergence failed at  52  side 2    Res =  0.1341E+04
 MRCHDU: Convergence failed at  53  side 2    Res =  0.1825E+04
 MRCHDU: Convergence failed at  54  side 2    Res =  0.2310E+03
 MRCHDU: Convergence failed at  55  side 2    Res =  0.8687E+02
 MRCHDU: Convergence failed at  56  side 2    Res =  0.1339E+03
 MRCHDU: Convergence failed at  57  side 2    Res =  0.2215E+03
 MRCHDU: Convergence failed at  58  side 2    Res =  0.1496E+03
 MRCHDU: Convergence failed at  59  side 2    Res =  0.2574E+02
 MRCHDU: Convergence failed at  60  side 2    Res =  0.2592E+02
 MRCHDU: Convergence failed at  61  side 2    Res =  0.2169E+02
 MRCHDU: Convergence failed at  62  side 2    Res =  0.3040E+02
 MRCHDU: Convergence failed at  63  side 2    Res =  0.7267E+02
 MRCHDU: Convergence failed at  64  side 2    Res =  0.3237E+02
 MRCHDU: Convergence failed at  65  side 2    Res =  0.3266E+02
 MRCHDU: Convergence failed at  66  side 2    Res =  0.3284E+02
 MRCHDU: Convergence failed at  67  side 2    Res =  0.3361E+02
 MRCHDU: Convergence failed at  68  side 2    Res =  0.2730E+02
 MRCHDU: Convergence failed at  69  side 2    Res =  0.2735E+02
 MRCHDU: Convergence failed at  70  side 2    Res =  0.2741E+02
 MRCHDU: Convergence failed at  71  side 2    Res =  0.2314E+02
 MRCHDU: Convergence failed at  72  side 2    Res =  0.2355E+02
 MRCHDU: Convergence failed at  73  side 2    Res =  0.2387E+02
 MRCHDU: Convergence failed at  74  side 2    Res =  0.2427E+02
 MRCHDU: Convergence failed at  75  side 2    Res =  0.2477E+02
 MRCHDU: Convergence failed at  76  side 2    Res =  0.2554E+02
 MRCHDU: Convergence failed at  77  side 2    Res =  0.2682E+02
 MRCHDU: Convergence failed at  78  side 2    Res =  0.2886E+02
 MRCHDU: Convergence failed at  79  side 2    Res =  0.3175E+02
 MRCHDU: Convergence failed at  80  side 2    Res =  0.3203E+02
 MRCHDU: Convergence failed at  81  side 2    Res =  0.1498E+03
 MRCHDU: Convergence failed at  82  side 2    Res =  0.6929E+02
 MRCHDU: Convergence failed at  83  side 2    Res =  0.1024E+03
 MRCHDU: Convergence failed at  84  side 2    Res =  0.6256E+02
 Side 1  free  transition at x/c =  0.6052   53
 Side 2  free  transition at x/c =  0.0450   25

   2   rms: 0.1097E+01   max: 0.3283E+01   D at   61  2   RLX: 0.373
       a = -4.000      CL = -0.4978
      Cm =  0.1260     CD =  0.00566   =>   CDf =  0.00353    CDp =  0.00213

 MRCHDU: Convergence failed at  32  side 2    Res =  0.3245E+00
 Side 1  free  transition at x/c =  0.6179   55
 Side 2  free  transition at x/c =  0.0440   24
 idif Ue xi dudx           1  0.12785049      2.19833851E-03   58.157780    
 Uenew xinew           2  6.08019484E-03  1.04546547E-04

   3   rms: 0.3819E+00   max: -.1297E+01   D at   34  2   RLX: 0.385
       a = -4.000      CL = -0.0296
      Cm = -0.0269     CD =  0.03259   =>   CDf =  0.00395    CDp =  0.02864

 Side 1  free  transition at x/c =  0.6342   55
 Side 2  free  transition at x/c =  0.0447   25

   4   rms: 0.7250E+00   max: -.6266E+01   D at   35  2   RLX: 0.080
       a = -4.000      CL =  0.0522
      Cm = -0.0544     CD =  0.03534   =>   CDf =  0.00396    CDp =  0.03138

 MRCHDU: Convergence failed at  35  side 2    Res =  0.1787E+00
 MRCHDU: Convergence failed at  36  side 2    Res =  0.7399E+00
 MRCHDU: Convergence failed at  37  side 2    Res =  0.4461E+00
 MRCHDU: Convergence failed at  38  side 2    Res =  0.4046E+00
 MRCHDU: Convergence failed at  39  side 2    Res =  0.3537E+00
 MRCHDU: Convergence failed at  40  side 2    Res =  0.2978E+00
 MRCHDU: Convergence failed at  41  side 2    Res =  0.2371E+00
 MRCHDU: Convergence failed at  42  side 2    Res =  0.1712E+00
 MRCHDU: Convergence failed at  43  side 2    Res =  0.9784E-01
 MRCHDU: Convergence failed at  44  side 2    Res =  0.3982E+01
 MRCHDU: Convergence failed at  45  side 2    Res =  0.1977E+01
 MRCHDU: Convergence failed at  46  side 2    Res =  0.7512E+00
 Side 1  free  transition at x/c =  0.6364   55
 Side 2  free  transition at x/c =  0.0465   26

   5   rms: 0.7778E+00   max: -.6085E+01   D at   43  2   RLX: 0.082
       a = -4.000      CL =  0.2196
      Cm = -0.0994     CD =  0.02958   =>   CDf =  0.00416    CDp =  0.02542

 MRCHDU: Convergence failed at  43  side 2    Res =  0.6921E+00
 MRCHDU: Convergence failed at  44  side 2    Res =  0.6545E+00
 MRCHDU: Convergence failed at  45  side 2    Res =  0.6428E+00
 MRCHDU: Convergence failed at  46  side 2    Res =  0.6417E+00
 MRCHDU: Convergence failed at  47  side 2    Res =  0.1420E+00
 MRCHDU: Convergence failed at  48  side 2    Res =  0.1045E+00
 Side 1  free  transition at x/c =  0.6386   55
 Side 2  free  transition at x/c =  0.0478   26

   6   rms: 0.2793E+01   max: -.2117E+02   D at   49  2   RLX: 0.024
       a = -4.000      CL =  0.3048
      Cm = -0.1122     CD =  0.02878   =>   CDf =  0.00375    CDp =  0.02503

 MRCHDU: Convergence failed at  49  side 2    Res =  0.4115E+00
 MRCHDU: Convergence failed at  50  side 2    Res =  0.7432E+00
 MRCHDU: Convergence failed at  51  side 2    Res =  0.2430E+00
 MRCHDU: Convergence failed at  52  side 2    Res =  0.2238E+00
 MRCHDU: Convergence failed at  53  side 2    Res =  0.1904E+00
 MRCHDU: Convergence failed at  54  side 2    Res =  0.1542E+00
 MRCHDU: Convergence failed at  55  side 2    Res =  0.1127E+00
 MRCHDU: Convergence failed at  56  side 2    Res =  0.4374E-01
 Side 1  free  transition at x/c =  0.6396   55
 Side 2  free  transition at x/c =  0.0509   26

   7   rms: 0.5910E+00   max: 0.4489E+01   T at   26  2   RLX: 0.156
       a = -4.000      CL =  0.3466
      Cm = -0.1275     CD =  0.02686   =>   CDf =  0.00377    CDp =  0.02309

 MRCHDU: Convergence failed at  56  side 2    Res =  0.5538E-01
 Side 1  free  transition at x/c =  0.6379   55
 Side 2  free  transition at x/c =  0.0453   25

   8   rms: 0.5718E+00   max: 0.3720E+01   T at   25  2   RLX: 0.400
       a = -4.000      CL =  0.2899
      Cm = -0.1197     CD =  0.03108   =>   CDf =  0.00387    CDp =  0.02721

 MRCHDU: Convergence failed at  24  side 2    Res =  0.8191E+02
 Side 1  free  transition at x/c =  0.6424   57
 Side 2  free  transition at x/c =  0.0430   24

   9   rms: 0.9707E+00   max: -.4089E+01   D at   37  2   RLX: 0.122
       a = -4.000      CL =  0.3021
      Cm = -0.1218     CD =  0.01856   =>   CDf =  0.00448    CDp =  0.01408

 Side 1  free  transition at x/c =  0.6458   57
 Side 2  free  transition at x/c =  0.0431   24
 idif Ue xi dudx           1  0.13292193      2.30717659E-03   57.612381    
 Uenew xinew           2  1.22935968E-02  2.13384628E-04

  10   rms: 0.1129E+01   max: -.4873E+01   D at   37  2   RLX: 0.103
       a = -4.000      CL =  0.2842
      Cm = -0.1129     CD =  0.01812   =>   CDf =  0.00458    CDp =  0.01355

 Side 1  free  transition at x/c =  0.6486   56
 Side 2  free  transition at x/c =  0.0436   25

  11   rms: 0.2278E+01   max: -.1045E+02   D at   33  2   RLX: 0.048
       a = -4.000      CL =  0.2699
      Cm = -0.1094     CD =  0.01653   =>   CDf =  0.00485    CDp =  0.01168

 Side 1  free  transition at x/c =  0.6505   56
 Side 2  free  transition at x/c =  0.0445   25

  12   rms: 0.1252E+01   max: -.6101E+01   D at   30  2   RLX: 0.082
       a = -4.000      CL =  0.2458
      Cm = -0.1079     CD =  0.01534   =>   CDf =  0.00508    CDp =  0.01027

 Side 1  free  transition at x/c =  0.6522   56
 Side 2  free  transition at x/c =  0.0448   25

  13   rms: 0.7291E+00   max: -.3183E+01   D at   76  2   RLX: 0.157
       a = -4.000      CL =  0.2129
      Cm = -0.1082     CD =  0.01352   =>   CDf =  0.00523    CDp =  0.00829

 Side 1  free  transition at x/c =  0.6536   56
 Side 2  free  transition at x/c =  0.0442   25

  14   rms: 0.5483E+00   max: -.2674E+01   D at   71  2   RLX: 0.187
       a = -4.000      CL =  0.1814
      Cm = -0.1025     CD =  0.01146   =>   CDf =  0.00539    CDp =  0.00607

 Side 1  free  transition at x/c =  0.6558   56
 Side 2  free  transition at x/c =  0.0436   25

  15   rms: 0.3935E+00   max: -.1731E+01   D at   65  2   RLX: 0.289
       a = -4.000      CL =  0.1622
      Cm = -0.0974     CD =  0.01024   =>   CDf =  0.00558    CDp =  0.00465

 Side 1  free  transition at x/c =  0.6564   56
 Side 2  free  transition at x/c =  0.0432   25

  16   rms: 0.3130E+00   max: -.1501E+01   D at   61  2   RLX: 0.333
       a = -4.000      CL =  0.1617
      Cm = -0.0948     CD =  0.00986   =>   CDf =  0.00597    CDp =  0.00389

 Side 1  free  transition at x/c =  0.6597   57
 Side 2  free  transition at x/c =  0.0431   25

  17   rms: 0.1427E+00   max: -.5996E+00   D at   83  2   RLX: 0.834
       a = -4.000      CL =  0.1788
      Cm = -0.0922     CD =  0.01005   =>   CDf =  0.00663    CDp =  0.00342

 Side 1  free  transition at x/c =  0.6675   57
 Side 2  free  transition at x/c =  0.0431   25

  18   rms: 0.3690E-01   max: -.2738E+00   D at   78  1
       a = -4.000      CL =  0.1750
      Cm = -0.0893     CD =  0.01017   =>   CDf =  0.00688    CDp =  0.00329

 Side 1  free  transition at x/c =  0.6682   57
 Side 2  free  transition at x/c =  0.0430   25

  19   rms: 0.3676E-02   max: -.3518E-01   D at   78  1
       a = -4.000      CL =  0.1723
      Cm = -0.0887     CD =  0.01020   =>   CDf =  0.00696    CDp =  0.00324

 Side 1  free  transition at x/c =  0.6683   57
 Side 2  free  transition at x/c =  0.0430   25

  20   rms: 0.5990E-04   max: -.5636E-03   D at   78  1
       a = -4.000      CL =  0.1723
      Cm = -0.0887     CD =  0.01020   =>   CDf =  0.00696    CDp =  0.00324
 plradd ia,ip,cpol            1           0  1.16918543E-02

 Point added to stored polar  1
 Point written to save file  usa35b_Re600k.base.pol                          
 Dump file unspecified or not available
 Calculating wake trajectory ...
 Calculating source influence matrix ...

 Solving BL system ...

 Side 1  free  transition at x/c =  0.6683   57
 Side 2  free  transition at x/c =  0.0430   25

   1   rms: 0.9491E-01   max: 0.7025E+00   C at   57  1
       a = -3.500      CL =  0.2274
      Cm = -0.0883     CD =  0.00988   =>   CDf =  0.00698    CDp =  0.00290

 Side 1  free  transition at x/c =  0.6410   57
 Side 2  free  transition at x/c =  0.0449   24

   2   rms: 0.8248E-02   max: 0.1098E+00   D at   57  1
       a = -3.500      CL =  0.2276
      Cm = -0.0883     CD =  0.00996   =>   CDf =  0.00715    CDp =  0.00281

 Side 1  free  transition at x/c =  0.6425   57
 Side 2  free  transition at x/c =  0.0450   24

   3   rms: 0.7219E-03   max: 0.1055E-01   C at   57  1
       a = -3.500      CL =  0.2276
      Cm = -0.0883     CD =  0.00996   =>   CDf =  0.00713    CDp =  0.00284

 Side 1  free  transition at x/c =  0.6422   57
 Side 2  free  transition at x/c =  0.0450   24

   4   rms: 0.3493E-05   max: -.4815E-04   D at   58  1
       a = -3.500      CL =  0.2276
      Cm = -0.0883     CD =  0.00996   =>   CDf =  0.00713    CDp =  0.00283
 plradd ia,ip,cpol            2           0  1.42288925E-02

 Point added to stored polar  1
 Point written to save file  usa35b_Re600k.base.pol                          
 Dump file unspecified or not available
 Calculating wake trajectory ...
 Calculating source influence matrix ...

 Solving BL system ...

 Side 1  free  transition at x/c =  0.6422   57
 Side 2  free  transition at x/c =  0.0450   24

   1   rms: 0.9107E-01   max: 0.4289E+00   C at   57  1
       a = -3.000      CL =  0.2829
      Cm = -0.0880     CD =  0.00985   =>   CDf =  0.00715    CDp =  0.00270

 Side 1  free  transition at x/c =  0.6232   56
 Side 2  free  transition at x/c =  0.0489   24

   2   rms: 0.2067E-01   max: 0.3717E+00   D at   24  2
       a = -3.000      CL =  0.2834
      Cm = -0.0881     CD =  0.00966   =>   CDf =  0.00724    CDp =  0.00243

 Side 1  free  transition at x/c =  0.6227   56
 Side 2  free  transition at x/c =  0.0493   24

   3   rms: 0.9348E-02   max: -.1593E+00   C at   56  1
       a = -3.000      CL =  0.2834
      Cm = -0.0881     CD =  0.00967   =>   CDf =  0.00725    CDp =  0.00242

 Side 1  free  transition at x/c =  0.6226   56
 Side 2  free  transition at x/c =  0.0492   24

   4   rms: 0.8717E-02   max: -.1604E+00   C at   56  1
       a = -3.000      CL =  0.2834
      Cm = -0.0881     CD =  0.00967   =>   CDf =  0.00725    CDp =  0.00242

 Side 1  free  transition at x/c =  0.6227   56
 Side 2  free  transition at x/c =  0.0492   24

   5   rms: 0.8700E-02   max: -.1603E+00   C at   56  1
       a = -3.000      CL =  0.2834
      Cm = -0.0881     CD =  0.00967   =>   CDf =  0.00725    CDp =  0.00242

 Side 1  free  transition at x/c =  0.6227   56
 Side 2  free  transition at x/c =  0.0492   24

   6   rms: 0.8703E-02   max: -.1603E+00   C at   56  1
       a = -3.000      CL =  0.2834
      Cm = -0.0881     CD =  0.00967   =>   CDf =  0.00725    CDp =  0.00242

 Side 1  free  transition at x/c =  0.6227   56
 Side 2  free  transition at x/c =  0.0492   24

   7   rms: 0.8703E-02   max: -.1603E+00   C at   56  1
       a = -3.000      CL =  0.2834
      Cm = -0.0881     CD =  0.00967   =>   CDf =  0.00725    CDp =  0.00242

 Side 1  free  transition at x/c =  0.6227   56
 Side 2  free  transition at x/c =  0.0492   24

   8   rms: 0.8703E-02   max: -.1603E+00   C at   56  1
       a = -3.000      CL =  0.2834
      Cm = -0.0881     CD =  0.00967   =>   CDf =  0.00725    CDp =  0.00242

 Side 1  free  transition at x/c =  0.6227   56
 Side 2  free  transition at x/c =  0.0492   24

   9   rms: 0.8703E-02   max: -.1603E+00   C at   56  1
       a = -3.000      CL =  0.2834
      Cm = -0.0881     CD =  0.00967   =>   CDf =  0.00725    CDp =  0.00242

 Side 1  free  transition at x/c =  0.6227   56
 Side 2  free  transition at x/c =  0.0492   24

  10   rms: 0.8703E-02   max: -.1603E+00   C at   56  1
       a = -3.000      CL =  0.2834
      Cm = -0.0881     CD =  0.00967   =>   CDf =  0.00725    CDp =  0.00242

 Side 1  free  transition at x/c =  0.6227   56
 Side 2  free  transition at x/c =  0.0492   24

  11   rms: 0.8703E-02   max: -.1603E+00   C at   56  1
       a = -3.000      CL =  0.2834
      Cm = -0.0881     CD =  0.00967   =>   CDf =  0.00725    CDp =  0.00242

 Side 1  free  transition at x/c =  0.6227   56
 Side 2  free  transition at x/c =  0.0492   24

  12   rms: 0.8703E-02   max: -.1603E+00   C at   56  1
       a = -3.000      CL =  0.2834
      Cm = -0.0881     CD =  0.00967   =>   CDf =  0.00725    CDp =  0.00242

 Side 1  free  transition at x/c =  0.6227   56
 Side 2  free  transition at x/c =  0.0492   24

  13   rms: 0.8703E-02   max: -.1603E+00   C at   56  1
       a = -3.000      CL =  0.2834
      Cm = -0.0881     CD =  0.00967   =>   CDf =  0.00725    CDp =  0.00242

 Side 1  free  transition at x/c =  0.6227   56
 Side 2  free  transition at x/c =  0.0492   24

  14   rms: 0.8703E-02   max: -.1603E+00   C at   56  1
       a = -3.000      CL =  0.2834
      Cm = -0.0881     CD =  0.00967   =>   CDf =  0.00725    CDp =  0.00242

 Side 1  free  transition at x/c =  0.6227   56
 Side 2  free  transition at x/c =  0.0492   24

  15   rms: 0.8703E-02   max: -.1603E+00   C at   56  1
       a = -3.000      CL =  0.2834
      Cm = -0.0881     CD =  0.00967   =>   CDf =  0.00725    CDp =  0.00242

 Side 1  free  transition at x/c =  0.6227   56
 Side 2  free  transition at x/c =  0.0492   24

  16   rms: 0.8703E-02   max: -.1603E+00   C at   56  1
       a = -3.000      CL =  0.2834
      Cm = -0.0881     CD =  0.00967   =>   CDf =  0.00725    CDp =  0.00242

 Side 1  free  transition at x/c =  0.6227   56
 Side 2  free  transition at x/c =  0.0492   24

  17   rms: 0.8703E-02   max: -.1603E+00   C at   56  1
       a = -3.000      CL =  0.2834
      Cm = -0.0881     CD =  0.00967   =>   CDf =  0.00725    CDp =  0.00242

 Side 1  free  transition at x/c =  0.6227   56
 Side 2  free  transition at x/c =  0.0492   24

  18   rms: 0.8703E-02   max: -.1603E+00   C at   56  1
       a = -3.000      CL =  0.2834
      Cm = -0.0881     CD =  0.00967   =>   CDf =  0.00725    CDp =  0.00242

 Side 1  free  transition at x/c =  0.6227   56
 Side 2  free  transition at x/c =  0.0492   24

  19   rms: 0.8703E-02   max: -.1603E+00   C at   56  1
       a = -3.000      CL =  0.2834
      Cm = -0.0881     CD =  0.00967   =>   CDf =  0.00725    CDp =  0.00242

 Side 1  free  transition at x/c =  0.6227   56
 Side 2  free  transition at x/c =  0.0492   24

  20   rms: 0.8703E-02   max: -.1603E+00   C at   56  1
       a = -3.000      CL =  0.2834
      Cm = -0.0881     CD =  0.00967   =>   CDf =  0.00725    CDp =  0.00242

 Side 1  free  transition at x/c =  0.6227   56
 Side 2  free  transition at x/c =  0.0492   24

  21   rms: 0.8703E-02   max: -.1603E+00   C at   56  1
       a = -3.000      CL =  0.2834
      Cm = -0.0881     CD =  0.00967   =>   CDf =  0.00725    CDp =  0.00242

 Side 1  free  transition at x/c =  0.6227   56
 Side 2  free  transition at x/c =  0.0492   24

  22   rms: 0.8703E-02   max: -.1603E+00   C at   56  1
       a = -3.000      CL =  0.2834
      Cm = -0.0881     CD =  0.00967   =>   CDf =  0.00725    CDp =  0.00242

 Side 1  free  transition at x/c =  0.6227   56
 Side 2  free  transition at x/c =  0.0492   24

  23   rms: 0.8703E-02   max: -.1603E+00   C at   56  1
       a = -3.000      CL =  0.2834
      Cm = -0.0881     CD =  0.00967   =>   CDf =  0.00725    CDp =  0.00242

 Side 1  free  transition at x/c =  0.6227   56
 Side 2  free  transition at x/c =  0.0492   24

  24   rms: 0.8703E-02   max: -.1603E+00   C at   56  1
       a = -3.000      CL =  0.2834
      Cm = -0.0881     CD =  0.00967   =>   CDf =  0.00725    CDp =  0.00242

 Side 1  free  transition at x/c =  0.6227   56
 Side 2  free  transition at x/c =  0.0492   24

  25   rms: 0.8703E-02   max: -.1603E+00   C at   56  1
       a = -3.000      CL =  0.2834
      Cm = -0.0881     CD =  0.00967   =>   CDf =  0.00725    CDp =  0.00242

 Side 1  free  transition at x/c =  0.6227   56
 Side 2  free  transition at x/c =  0.0492   24

  26   rms: 0.8703E-02   max: -.1603E+00   C at   56  1
       a = -3.000      CL =  0.2834
      Cm = -0.0881     CD =  0.00967   =>   CDf =  0.00725    CDp =  0.00242

 Side 1  free  transition at x/c =  0.6227   56
 Side 2  free  transition at x/c =  0.0492   24

  27   rms: 0.8703E-02   max: -.1603E+00   C at   56  1
       a = -3.000      CL =  0.2834
      Cm = -0.0881     CD =  0.00967   =>   CDf =  0.00725    CDp =  0.00242

 Side 1  free  transition at x/c =  0.6227   56
 Side 2  free  transition at x/c =  0.0492   24

  28   rms: 0.8703E-02   max: -.1603E+00   C at   56  1
       a = -3.000      CL =  0.2834
      Cm = -0.0881     CD =  0.00967   =>   CDf =  0.00725    CDp =  0.00242

 Side 1  free  transition at x/c =  0.6227   56
 Side 2  free  transition at x/c =  0.0492   24

  29   rms: 0.8703E-02   max: -.1603E+00   C at   56  1
       a = -3.000      CL =  0.2834
      Cm = -0.0881     CD =  0.00967   =>   CDf =  0.00725    CDp =  0.00242

 Side 1  free  transition at x/c =  0.6227   56
 Side 2  free  transition at x/c =  0.0492   24

  30   rms: 0.8703E-02   max: -.1603E+00   C at   56  1
       a = -3.000      CL =  0.2834
      Cm = -0.0881     CD =  0.00967   =>   CDf =  0.00725    CDp =  0.00242

 Side 1  free  transition at x/c =  0.6227   56
 Side 2  free  transition at x/c =  0.0492   24

  31   rms: 0.8702E-02   max: -.1603E+00   C at   56  1
       a = -3.000      CL =  0.2834
      Cm = -0.0881     CD =  0.00967   =>   CDf =  0.00725    CDp =  0.00242

 Side 1  free  transition at x/c =  0.6227   56
 Side 2  free  transition at x/c =  0.0492   24

  32   rms: 0.8703E-02   max: -.1603E+00   C at   56  1
       a = -3.000      CL =  0.2834
      Cm = -0.0881     CD =  0.00967   =>   CDf =  0.00725    CDp =  0.00242

 Side 1  free  transition at x/c =  0.6227   56
 Side 2  free  transition at x/c =  0.0492   24

  33   rms: 0.8703E-02   max: -.1603E+00   C at   56  1
       a = -3.000      CL =  0.2834
      Cm = -0.0881     CD =  0.00967   =>   CDf =  0.00725    CDp =  0.00242

 Side 1  free  transition at x/c =  0.6227   56
 Side 2  free  transition at x/c =  0.0492   24

  34   rms: 0.8703E-02   max: -.1603E+00   C at   56  1
       a = -3.000      CL =  0.2834
      Cm = -0.0881     CD =  0.00967   =>   CDf =  0.00725    CDp =  0.00242

 Side 1  free  transition at x/c =  0.6227   56
 Side 2  free  transition at x/c =  0.0492   24

  35   rms: 0.8703E-02   max: -.1603E+00   C at   56  1
       a = -3.000      CL =  0.2834
      Cm = -0.0881     CD =  0.00967   =>   CDf =  0.00725    CDp =  0.00242

 Side 1  free  transition at x/c =  0.6227   56
 Side 2  free  transition at x/c =  0.0492   24

  36   rms: 0.8703E-02   max: -.1603E+00   C at   56  1
       a = -3.000      CL =  0.2834
      Cm = -0.0881     CD =  0.00967   =>   CDf =  0.00725    CDp =  0.00242

 Side 1  free  transition at x/c =  0.6227   56
 Side 2  free  transition at x/c =  0.0492   24

  37   rms: 0.8703E-02   max: -.1603E+00   C at   56  1
       a = -3.000      CL =  0.2834
      Cm = -0.0881     CD =  0.00967   =>   CDf =  0.00725    CDp =  0.00242

 Side 1  free  transition at x/c =  0.6227   56
 Side 2  free  transition at x/c =  0.0492   24

  38   rms: 0.8703E-02   max: -.1603E+00   C at   56  1
       a = -3.000      CL =  0.2834
      Cm = -0.0881     CD =  0.00967   =>   CDf =  0.00725    CDp =  0.00242

 Side 1  free  transition at x/c =  0.6227   56
 Side 2  free  transition at x/c =  0.0492   24

  39   rms: 0.8703E-02   max: -.1603E+00   C at   56  1
       a = -3.000      CL =  0.2834
      Cm = -0.0881     CD =  0.00967   =>   CDf =  0.00725    CDp =  0.00242

 Side 1  free  transition at x/c =  0.6227   56
 Side 2  free  transition at x/c =  0.0492   24

  40   rms: 0.8703E-02   max: -.1603E+00   C at   56  1
       a = -3.000      CL =  0.2834
      Cm = -0.0881     CD =  0.00967   =>   CDf =  0.00725    CDp =  0.00242

 Side 1  free  transition at x/c =  0.6227   56
 Side 2  free  transition at x/c =  0.0492   24

  41   rms: 0.8703E-02   max: -.1603E+00   C at   56  1
       a = -3.000      CL =  0.2834
      Cm = -0.0881     CD =  0.00967   =>   CDf =  0.00725    CDp =  0.00242

 Side 1  free  transition at x/c =  0.6227   56
 Side 2  free  transition at x/c =  0.0492   24

  42   rms: 0.8703E-02   max: -.1603E+00   C at   56  1
       a = -3.000      CL =  0.2834
      Cm = -0.0881     CD =  0.00967   =>   CDf =  0.00725    CDp =  0.00242

 Side 1  free  transition at x/c =  0.6227   56
 Side 2  free  transition at x/c =  0.0492   24

  43   rms: 0.8703E-02   max: -.1603E+00   C at   56  1
       a = -3.000      CL =  0.2834
      Cm = -0.0881     CD =  0.00967   =>   CDf =  0.00725    CDp =  0.00242

 Side 1  free  transition at x/c =  0.6227   56
 Side 2  free  transition at x/c =  0.0492   24

  44   rms: 0.8703E-02   max: -.1603E+00   C at   56  1
       a = -3.000      CL =  0.2834
      Cm = -0.0881     CD =  0.00967   =>   CDf =  0.00725    CDp =  0.00242

 Side 1  free  transition at x/c =  0.6227   56
 Side 2  free  transition at x/c =  0.0492   24

  45   rms: 0.8703E-02   max: -.1603E+00   C at   56  1
       a = -3.000      CL =  0.2834
      Cm = -0.0881     CD =  0.00967   =>   CDf =  0.00725    CDp =  0.00242

 Side 1  free  transition at x/c =  0.6227   56
 Side 2  free  transition at x/c =  0.0492   24

  46   rms: 0.8703E-02   max: -.1603E+00   C at   56  1
       a = -3.000      CL =  0.2834
      Cm = -0.0881     CD =  0.00967   =>   CDf =  0.00725    CDp =  0.00242

 Side 1  free  transition at x/c =  0.6227   56
 Side 2  free  transition at x/c =  0.0492   24

  47   rms: 0.8703E-02   max: -.1603E+00   C at   56  1
       a = -3.000      CL =  0.2834
      Cm = -0.0881     CD =  0.00967   =>   CDf =  0.00725    CDp =  0.00242

 Side 1  free  transition at x/c =  0.6227   56
 Side 2  free  transition at x/c =  0.0492   24

  48   rms: 0.8703E-02   max: -.1603E+00   C at   56  1
       a = -3.000      CL =  0.2834
      Cm = -0.0881     CD =  0.00967   =>   CDf =  0.00725    CDp =  0.00242

 Side 1  free  transition at x/c =  0.6227   56
 Side 2  free  transition at x/c =  0.0492   24

  49   rms: 0.8703E-02   max: -.1603E+00   C at   56  1
       a = -3.000      CL =  0.2834
      Cm = -0.0881     CD =  0.00967   =>   CDf =  0.00725    CDp =  0.00242

 Side 1  free  transition at x/c =  0.6227   56
 Side 2  free  transition at x/c =  0.0492   24

  50   rms: 0.8703E-02   max: -.1603E+00   C at   56  1
       a = -3.000      CL =  0.2834
      Cm = -0.0881     CD =  0.00967   =>   CDf =  0.00725    CDp =  0.00242

 Side 1  free  transition at x/c =  0.6227   56
 Side 2  free  transition at x/c =  0.0492   24

  51   rms: 0.8703E-02   max: -.1603E+00   C at   56  1
       a = -3.000      CL =  0.2834
      Cm = -0.0881     CD =  0.00967   =>   CDf =  0.00725    CDp =  0.00242

 Side 1  free  transition at x/c =  0.6227   56
 Side 2  free  transition at x/c =  0.0492   24

  52   rms: 0.8703E-02   max: -.1603E+00   C at   56  1
       a = -3.000      CL =  0.2834
      Cm = -0.0881     CD =  0.00967   =>   CDf =  0.00725    CDp =  0.00242

 Side 1  free  transition at x/c =  0.6227   56
 Side 2  free  transition at x/c =  0.0492   24

  53   rms: 0.8703E-02   max: -.1603E+00   C at   56  1
       a = -3.000      CL =  0.2834
      Cm = -0.0881     CD =  0.00967   =>   CDf =  0.00725    CDp =  0.00242

 Side 1  free  transition at x/c =  0.6227   56
 Side 2  free  transition at x/c =  0.0492   24

  54   rms: 0.8703E-02   max: -.1603E+00   C at   56  1
       a = -3.000      CL =  0.2834
      Cm = -0.0881     CD =  0.00967   =>   CDf =  0.00725    CDp =  0.00242

 Side 1  free  transition at x/c =  0.6227   56
 Side 2  free  transition at x/c =  0.0492   24

  55   rms: 0.8703E-02   max: -.1603E+00   C at   56  1
       a = -3.000      CL =  0.2834
      Cm = -0.0881     CD =  0.00967   =>   CDf =  0.00725    CDp =  0.00242

 Side 1  free  transition at x/c =  0.6227   56
 Side 2  free  transition at x/c =  0.0492   24

  56   rms: 0.8703E-02   max: -.1603E+00   C at   56  1
       a = -3.000      CL =  0.2834
      Cm = -0.0881     CD =  0.00967   =>   CDf =  0.00725    CDp =  0.00242

 Side 1  free  transition at x/c =  0.6227   56
 Side 2  free  transition at x/c =  0.0492   24

  57   rms: 0.8703E-02   max: -.1603E+00   C at   56  1
       a = -3.000      CL =  0.2834
      Cm = -0.0881     CD =  0.00967   =>   CDf =  0.00725    CDp =  0.00242

 Side 1  free  transition at x/c =  0.6227   56
 Side 2  free  transition at x/c =  0.0492   24

  58   rms: 0.8703E-02   max: -.1603E+00   C at   56  1
       a = -3.000      CL =  0.2834
      Cm = -0.0881     CD =  0.00967   =>   CDf =  0.00725    CDp =  0.00242

 Side 1  free  transition at x/c =  0.6227   56
 Side 2  free  transition at x/c =  0.0492   24

  59   rms: 0.8703E-02   max: -.1603E+00   C at   56  1
       a = -3.000      CL =  0.2834
      Cm = -0.0881     CD =  0.00967   =>   CDf =  0.00725    CDp =  0.00242

 Side 1  free  transition at x/c =  0.6227   56
 Side 2  free  transition at x/c =  0.0492   24

  60   rms: 0.8703E-02   max: -.1603E+00   C at   56  1
       a = -3.000      CL =  0.2834
      Cm = -0.0881     CD =  0.00967   =>   CDf =  0.00725    CDp =  0.00242

 Side 1  free  transition at x/c =  0.6227   56
 Side 2  free  transition at x/c =  0.0492   24

  61   rms: 0.8703E-02   max: -.1603E+00   C at   56  1
       a = -3.000      CL =  0.2834
      Cm = -0.0881     CD =  0.00967   =>   CDf =  0.00725    CDp =  0.00242

 Side 1  free  transition at x/c =  0.6227   56
 Side 2  free  transition at x/c =  0.0492   24

  62   rms: 0.8703E-02   max: -.1603E+00   C at   56  1
       a = -3.000      CL =  0.2834
      Cm = -0.0881     CD =  0.00967   =>   CDf =  0.00725    CDp =  0.00242

 Side 1  free  transition at x/c =  0.6227   56
 Side 2  free  transition at x/c =  0.0492   24

  63   rms: 0.8703E-02   max: -.1603E+00   C at   56  1
       a = -3.000      CL =  0.2834
      Cm = -0.0881     CD =  0.00967   =>   CDf =  0.00725    CDp =  0.00242

 Side 1  free  transition at x/c =  0.6227   56
 Side 2  free  transition at x/c =  0.0492   24

  64   rms: 0.8703E-02   max: -.1603E+00   C at   56  1
       a = -3.000      CL =  0.2834
      Cm = -0.0881     CD =  0.00967   =>   CDf =  0.00725    CDp =  0.00242

 Side 1  free  transition at x/c =  0.6227   56
 Side 2  free  transition at x/c =  0.0492   24

  65   rms: 0.8703E-02   max: -.1603E+00   C at   56  1
       a = -3.000      CL =  0.2834
      Cm = -0.0881     CD =  0.00967   =>   CDf =  0.00725    CDp =  0.00242

 Side 1  free  transition at x/c =  0.6227   56
 Side 2  free  transition at x/c =  0.0492   24

  66   rms: 0.8703E-02   max: -.1603E+00   C at   56  1
       a = -3.000      CL =  0.2834
      Cm = -0.0881     CD =  0.00967   =>   CDf =  0.00725    CDp =  0.00242

 Side 1  free  transition at x/c =  0.6227   56
 Side 2  free  transition at x/c =  0.0492   24

  67   rms: 0.8703E-02   max: -.1603E+00   C at   56  1
       a = -3.000      CL =  0.2834
      Cm = -0.0881     CD =  0.00967   =>   CDf =  0.00725    CDp =  0.00242

 Side 1  free  transition at x/c =  0.6227   56
 Side 2  free  transition at x/c =  0.0492   24

  68   rms: 0.8702E-02   max: -.1603E+00   C at   56  1
       a = -3.000      CL =  0.2834
      Cm = -0.0881     CD =  0.00967   =>   CDf =  0.00725    CDp =  0.00242

 Side 1  free  transition at x/c =  0.6227   56
 Side 2  free  transition at x/c =  0.0492   24

  69   rms: 0.8702E-02   max: -.1603E+00   C at   56  1
       a = -3.000      CL =  0.2834
      Cm = -0.0881     CD =  0.00967   =>   CDf =  0.00725    CDp =  0.00242

 Side 1  free  transition at x/c =  0.6227   56
 Side 2  free  transition at x/c =  0.0492   24

  70   rms: 0.8703E-02   max: -.1603E+00   C at   56  1
       a = -3.000      CL =  0.2834
      Cm = -0.0881     CD =  0.00967   =>   CDf =  0.00725    CDp =  0.00242

 Side 1  free  transition at x/c =  0.6227   56
 Side 2  free  transition at x/c =  0.0492   24

  71   rms: 0.8703E-02   max: -.1603E+00   C at   56  1
       a = -3.000      CL =  0.2834
      Cm = -0.0881     CD =  0.00967   =>   CDf =  0.00725    CDp =  0.00242

 Side 1  free  transition at x/c =  0.6227   56
 Side 2  free  transition at x/c =  0.0492   24

  72   rms: 0.8703E-02   max: -.1603E+00   C at   56  1
       a = -3.000      CL =  0.2834
      Cm = -0.0881     CD =  0.00967   =>   CDf =  0.00725    CDp =  0.00242

 Side 1  free  transition at x/c =  0.6227   56
 Side 2  free  transition at x/c =  0.0492   24

  73   rms: 0.8703E-02   max: -.1603E+00   C at   56  1
       a = -3.000      CL =  0.2834
      Cm = -0.0881     CD =  0.00967   =>   CDf =  0.00725    CDp =  0.00242

 Side 1  free  transition at x/c =  0.6227   56
 Side 2  free  transition at x/c =  0.0492   24

  74   rms: 0.8703E-02   max: -.1603E+00   C at   56  1
       a = -3.000      CL =  0.2834
      Cm = -0.0881     CD =  0.00967   =>   CDf =  0.00725    CDp =  0.00242

 Side 1  free  transition at x/c =  0.6227   56
 Side 2  free  transition at x/c =  0.0492   24

  75   rms: 0.8703E-02   max: -.1603E+00   C at   56  1
       a = -3.000      CL =  0.2834
      Cm = -0.0881     CD =  0.00967   =>   CDf =  0.00725    CDp =  0.00242

 Side 1  free  transition at x/c =  0.6227   56
 Side 2  free  transition at x/c =  0.0492   24

  76   rms: 0.8703E-02   max: -.1603E+00   C at   56  1
       a = -3.000      CL =  0.2834
      Cm = -0.0881     CD =  0.00967   =>   CDf =  0.00725    CDp =  0.00242

 Side 1  free  transition at x/c =  0.6227   56
 Side 2  free  transition at x/c =  0.0492   24

  77   rms: 0.8703E-02   max: -.1603E+00   C at   56  1
       a = -3.000      CL =  0.2834
      Cm = -0.0881     CD =  0.00967   =>   CDf =  0.00725    CDp =  0.00242

 Side 1  free  transition at x/c =  0.6227   56
 Side 2  free  transition at x/c =  0.0492   24

  78   rms: 0.8703E-02   max: -.1603E+00   C at   56  1
       a = -3.000      CL =  0.2834
      Cm = -0.0881     CD =  0.00967   =>   CDf =  0.00725    CDp =  0.00242

 Side 1  free  transition at x/c =  0.6227   56
 Side 2  free  transition at x/c =  0.0492   24

  79   rms: 0.8703E-02   max: -.1603E+00   C at   56  1
       a = -3.000      CL =  0.2834
      Cm = -0.0881     CD =  0.00967   =>   CDf =  0.00725    CDp =  0.00242

 Side 1  free  transition at x/c =  0.6227   56
 Side 2  free  transition at x/c =  0.0492   24

  80   rms: 0.8703E-02   max: -.1603E+00   C at   56  1
       a = -3.000      CL =  0.2834
      Cm = -0.0881     CD =  0.00967   =>   CDf =  0.00725    CDp =  0.00242

 Side 1  free  transition at x/c =  0.6227   56
 Side 2  free  transition at x/c =  0.0492   24

  81   rms: 0.8703E-02   max: -.1603E+00   C at   56  1
       a = -3.000      CL =  0.2834
      Cm = -0.0881     CD =  0.00967   =>   CDf =  0.00725    CDp =  0.00242

 Side 1  free  transition at x/c =  0.6227   56
 Side 2  free  transition at x/c =  0.0492   24

  82   rms: 0.8703E-02   max: -.1603E+00   C at   56  1
       a = -3.000      CL =  0.2834
      Cm = -0.0881     CD =  0.00967   =>   CDf =  0.00725    CDp =  0.00242

 Side 1  free  transition at x/c =  0.6227   56
 Side 2  free  transition at x/c =  0.0492   24

  83   rms: 0.8703E-02   max: -.1603E+00   C at   56  1
       a = -3.000      CL =  0.2834
      Cm = -0.0881     CD =  0.00967   =>   CDf =  0.00725    CDp =  0.00242

 Side 1  free  transition at x/c =  0.6227   56
 Side 2  free  transition at x/c =  0.0492   24

  84   rms: 0.8703E-02   max: -.1603E+00   C at   56  1
       a = -3.000      CL =  0.2834
      Cm = -0.0881     CD =  0.00967   =>   CDf =  0.00725    CDp =  0.00242

 Side 1  free  transition at x/c =  0.6227   56
 Side 2  free  transition at x/c =  0.0492   24

  85   rms: 0.8703E-02   max: -.1603E+00   C at   56  1
       a = -3.000      CL =  0.2834
      Cm = -0.0881     CD =  0.00967   =>   CDf =  0.00725    CDp =  0.00242

 Side 1  free  transition at x/c =  0.6227   56
 Side 2  free  transition at x/c =  0.0492   24

  86   rms: 0.8703E-02   max: -.1603E+00   C at   56  1
       a = -3.000      CL =  0.2834
      Cm = -0.0881     CD =  0.00967   =>   CDf =  0.00725    CDp =  0.00242

 Side 1  free  transition at x/c =  0.6227   56
 Side 2  free  transition at x/c =  0.0492   24

  87   rms: 0.8703E-02   max: -.1603E+00   C at   56  1
       a = -3.000      CL =  0.2834
      Cm = -0.0881     CD =  0.00967   =>   CDf =  0.00725    CDp =  0.00242

 Side 1  free  transition at x/c =  0.6227   56
 Side 2  free  transition at x/c =  0.0492   24

  88   rms: 0.8702E-02   max: -.1603E+00   C at   56  1
       a = -3.000      CL =  0.2834
      Cm = -0.0881     CD =  0.00967   =>   CDf =  0.00725    CDp =  0.00242

 Side 1  free  transition at x/c =  0.6227   56
 Side 2  free  transition at x/c =  0.0492   24

  89   rms: 0.8703E-02   max: -.1603E+00   C at   56  1
       a = -3.000      CL =  0.2834
      Cm = -0.0881     CD =  0.00967   =>   CDf =  0.00725    CDp =  0.00242

 Side 1  free  transition at x/c =  0.6227   56
 Side 2  free  transition at x/c =  0.0492   24

  90   rms: 0.8703E-02   max: -.1603E+00   C at   56  1
       a = -3.000      CL =  0.2834
      Cm = -0.0881     CD =  0.00967   =>   CDf =  0.00725    CDp =  0.00242

 Side 1  free  transition at x/c =  0.6227   56
 Side 2  free  transition at x/c =  0.0492   24

  91   rms: 0.8703E-02   max: -.1603E+00   C at   56  1
       a = -3.000      CL =  0.2834
      Cm = -0.0881     CD =  0.00967   =>   CDf =  0.00725    CDp =  0.00242

 Side 1  free  transition at x/c =  0.6227   56
 Side 2  free  transition at x/c =  0.0492   24

  92   rms: 0.8703E-02   max: -.1603E+00   C at   56  1
       a = -3.000      CL =  0.2834
      Cm = -0.0881     CD =  0.00967   =>   CDf =  0.00725    CDp =  0.00242

 Side 1  free  transition at x/c =  0.6227   56
 Side 2  free  transition at x/c =  0.0492   24

  93   rms: 0.8703E-02   max: -.1603E+00   C at   56  1
       a = -3.000      CL =  0.2834
      Cm = -0.0881     CD =  0.00967   =>   CDf =  0.00725    CDp =  0.00242

 Side 1  free  transition at x/c =  0.6227   56
 Side 2  free  transition at x/c =  0.0492   24

  94   rms: 0.8703E-02   max: -.1603E+00   C at   56  1
       a = -3.000      CL =  0.2834
      Cm = -0.0881     CD =  0.00967   =>   CDf =  0.00725    CDp =  0.00242

 Side 1  free  transition at x/c =  0.6227   56
 Side 2  free  transition at x/c =  0.0492   24

  95   rms: 0.8702E-02   max: -.1603E+00   C at   56  1
       a = -3.000      CL =  0.2834
      Cm = -0.0881     CD =  0.00967   =>   CDf =  0.00725    CDp =  0.00242

 Side 1  free  transition at x/c =  0.6227   56
 Side 2  free  transition at x/c =  0.0492   24

  96   rms: 0.8703E-02   max: -.1603E+00   C at   56  1
       a = -3.000      CL =  0.2834
      Cm = -0.0881     CD =  0.00967   =>   CDf =  0.00725    CDp =  0.00242

 Side 1  free  transition at x/c =  0.6227   56
 Side 2  free  transition at x/c =  0.0492   24

  97   rms: 0.8703E-02   max: -.1603E+00   C at   56  1
       a = -3.000      CL =  0.2834
      Cm = -0.0881     CD =  0.00967   =>   CDf =  0.00725    CDp =  0.00242

 Side 1  free  transition at x/c =  0.6227   56
 Side 2  free  transition at x/c =  0.0492   24

  98   rms: 0.8703E-02   max: -.1603E+00   C at   56  1
       a = -3.000      CL =  0.2834
      Cm = -0.0881     CD =  0.00967   =>   CDf =  0.00725    CDp =  0.00242

 Side 1  free  transition at x/c =  0.6227   56
 Side 2  free  transition at x/c =  0.0492   24

  99   rms: 0.8703E-02   max: -.1603E+00   C at   56  1
       a = -3.000      CL =  0.2834
      Cm = -0.0881     CD =  0.00967   =>   CDf =  0.00725    CDp =  0.00242

 Side 1  free  transition at x/c =  0.6227   56
 Side 2  free  transition at x/c =  0.0492   24

 100   rms: 0.8703E-02   max: -.1603E+00   C at   56  1
       a = -3.000      CL =  0.2834
      Cm = -0.0881     CD =  0.00967   =>   CDf =  0.00725    CDp =  0.00242

 Side 1  free  transition at x/c =  0.6227   56
 Side 2  free  transition at x/c =  0.0492   24

 101   rms: 0.8703E-02   max: -.1603E+00   C at   56  1
       a = -3.000      CL =  0.2834
      Cm = -0.0881     CD =  0.00967   =>   CDf =  0.00725    CDp =  0.00242

 Side 1  free  transition at x/c =  0.6227   56
 Side 2  free  transition at x/c =  0.0492   24

 102   rms: 0.8703E-02   max: -.1603E+00   C at   56  1
       a = -3.000      CL =  0.2834
      Cm = -0.0881     CD =  0.00967   =>   CDf =  0.00725    CDp =  0.00242

 Side 1  free  transition at x/c =  0.6227   56
 Side 2  free  transition at x/c =  0.0492   24

 103   rms: 0.8703E-02   max: -.1603E+00   C at   56  1
       a = -3.000      CL =  0.2834
      Cm = -0.0881     CD =  0.00967   =>   CDf =  0.00725    CDp =  0.00242

 Side 1  free  transition at x/c =  0.6227   56
 Side 2  free  transition at x/c =  0.0492   24

 104   rms: 0.8703E-02   max: -.1603E+00   C at   56  1
       a = -3.000      CL =  0.2834
      Cm = -0.0881     CD =  0.00967   =>   CDf =  0.00725    CDp =  0.00242

 Side 1  free  transition at x/c =  0.6227   56
 Side 2  free  transition at x/c =  0.0492   24

 105   rms: 0.8703E-02   max: -.1603E+00   C at   56  1
       a = -3.000      CL =  0.2834
      Cm = -0.0881     CD =  0.00967   =>   CDf =  0.00725    CDp =  0.00242

 Side 1  free  transition at x/c =  0.6227   56
 Side 2  free  transition at x/c =  0.0492   24

 106   rms: 0.8703E-02   max: -.1603E+00   C at   56  1
       a = -3.000      CL =  0.2834
      Cm = -0.0881     CD =  0.00967   =>   CDf =  0.00725    CDp =  0.00242

 Side 1  free  transition at x/c =  0.6227   56
 Side 2  free  transition at x/c =  0.0492   24

 107   rms: 0.8703E-02   max: -.1603E+00   C at   56  1
       a = -3.000      CL =  0.2834
      Cm = -0.0881     CD =  0.00967   =>   CDf =  0.00725    CDp =  0.00242

 Side 1  free  transition at x/c =  0.6227   56
 Side 2  free  transition at x/c =  0.0492   24

 108   rms: 0.8703E-02   max: -.1603E+00   C at   56  1
       a = -3.000      CL =  0.2834
      Cm = -0.0881     CD =  0.00967   =>   CDf =  0.00725    CDp =  0.00242

 Side 1  free  transition at x/c =  0.6227   56
 Side 2  free  transition at x/c =  0.0492   24

 109   rms: 0.8703E-02   max: -.1603E+00   C at   56  1
       a = -3.000      CL =  0.2834
      Cm = -0.0881     CD =  0.00967   =>   CDf =  0.00725    CDp =  0.00242

 Side 1  free  transition at x/c =  0.6227   56
 Side 2  free  transition at x/c =  0.0492   24

 110   rms: 0.8702E-02   max: -.1603E+00   C at   56  1
       a = -3.000      CL =  0.2834
      Cm = -0.0881     CD =  0.00967   =>   CDf =  0.00725    CDp =  0.00242

 Side 1  free  transition at x/c =  0.6227   56
 Side 2  free  transition at x/c =  0.0492   24

 111   rms: 0.8703E-02   max: -.1603E+00   C at   56  1
       a = -3.000      CL =  0.2834
      Cm = -0.0881     CD =  0.00967   =>   CDf =  0.00725    CDp =  0.00242

 Side 1  free  transition at x/c =  0.6227   56
 Side 2  free  transition at x/c =  0.0492   24

 112   rms: 0.8703E-02   max: -.1603E+00   C at   56  1
       a = -3.000      CL =  0.2834
      Cm = -0.0881     CD =  0.00967   =>   CDf =  0.00725    CDp =  0.00242

 Side 1  free  transition at x/c =  0.6227   56
 Side 2  free  transition at x/c =  0.0492   24

 113   rms: 0.8703E-02   max: -.1603E+00   C at   56  1
       a = -3.000      CL =  0.2834
      Cm = -0.0881     CD =  0.00967   =>   CDf =  0.00725    CDp =  0.00242

 Side 1  free  transition at x/c =  0.6227   56
 Side 2  free  transition at x/c =  0.0492   24

 114   rms: 0.8703E-02   max: -.1603E+00   C at   56  1
       a = -3.000      CL =  0.2834
      Cm = -0.0881     CD =  0.00967   =>   CDf =  0.00725    CDp =  0.00242

 Side 1  free  transition at x/c =  0.6227   56
 Side 2  free  transition at x/c =  0.0492   24

 115   rms: 0.8703E-02   max: -.1603E+00   C at   56  1
       a = -3.000      CL =  0.2834
      Cm = -0.0881     CD =  0.00967   =>   CDf =  0.00725    CDp =  0.00242

 Side 1  free  transition at x/c =  0.6227   56
 Side 2  free  transition at x/c =  0.0492   24

 116   rms: 0.8703E-02   max: -.1603E+00   C at   56  1
       a = -3.000      CL =  0.2834
      Cm = -0.0881     CD =  0.00967   =>   CDf =  0.00725    CDp =  0.00242

 Side 1  free  transition at x/c =  0.6227   56
 Side 2  free  transition at x/c =  0.0492   24

 117   rms: 0.8703E-02   max: -.1603E+00   C at   56  1
       a = -3.000      CL =  0.2834
      Cm = -0.0881     CD =  0.00967   =>   CDf =  0.00725    CDp =  0.00242

 Side 1  free  transition at x/c =  0.6227   56
 Side 2  free  transition at x/c =  0.0492   24

 118   rms: 0.8703E-02   max: -.1603E+00   C at   56  1
       a = -3.000      CL =  0.2834
      Cm = -0.0881     CD =  0.00967   =>   CDf =  0.00725    CDp =  0.00242

 Side 1  free  transition at x/c =  0.6227   56
 Side 2  free  transition at x/c =  0.0492   24

 119   rms: 0.8703E-02   max: -.1603E+00   C at   56  1
       a = -3.000      CL =  0.2834
      Cm = -0.0881     CD =  0.00967   =>   CDf =  0.00725    CDp =  0.00242

 Side 1  free  transition at x/c =  0.6227   56
 Side 2  free  transition at x/c =  0.0492   24

 120   rms: 0.8703E-02   max: -.1603E+00   C at   56  1
       a = -3.000      CL =  0.2834
      Cm = -0.0881     CD =  0.00967   =>   CDf =  0.00725    CDp =  0.00242

 Side 1  free  transition at x/c =  0.6227   56
 Side 2  free  transition at x/c =  0.0492   24

 121   rms: 0.8703E-02   max: -.1603E+00   C at   56  1
       a = -3.000      CL =  0.2834
      Cm = -0.0881     CD =  0.00967   =>   CDf =  0.00725    CDp =  0.00242

 Side 1  free  transition at x/c =  0.6227   56
 Side 2  free  transition at x/c =  0.0492   24

 122   rms: 0.8703E-02   max: -.1603E+00   C at   56  1
       a = -3.000      CL =  0.2834
      Cm = -0.0881     CD =  0.00967   =>   CDf =  0.00725    CDp =  0.00242

 Side 1  free  transition at x/c =  0.6227   56
 Side 2  free  transition at x/c =  0.0492   24

 123   rms: 0.8703E-02   max: -.1603E+00   C at   56  1
       a = -3.000      CL =  0.2834
      Cm = -0.0881     CD =  0.00967   =>   CDf =  0.00725    CDp =  0.00242

 Side 1  free  transition at x/c =  0.6227   56
 Side 2  free  transition at x/c =  0.0492   24

 124   rms: 0.8703E-02   max: -.1603E+00   C at   56  1
       a = -3.000      CL =  0.2834
      Cm = -0.0881     CD =  0.00967   =>   CDf =  0.00725    CDp =  0.00242

 Side 1  free  transition at x/c =  0.6227   56
 Side 2  free  transition at x/c =  0.0492   24

 125   rms: 0.8703E-02   max: -.1603E+00   C at   56  1
       a = -3.000      CL =  0.2834
      Cm = -0.0881     CD =  0.00967   =>   CDf =  0.00725    CDp =  0.00242

 Side 1  free  transition at x/c =  0.6227   56
 Side 2  free  transition at x/c =  0.0492   24

 126   rms: 0.8703E-02   max: -.1603E+00   C at   56  1
       a = -3.000      CL =  0.2834
      Cm = -0.0881     CD =  0.00967   =>   CDf =  0.00725    CDp =  0.00242

 Side 1  free  transition at x/c =  0.6227   56
 Side 2  free  transition at x/c =  0.0492   24

 127   rms: 0.8703E-02   max: -.1603E+00   C at   56  1
       a = -3.000      CL =  0.2834
      Cm = -0.0881     CD =  0.00967   =>   CDf =  0.00725    CDp =  0.00242

 Side 1  free  transition at x/c =  0.6227   56
 Side 2  free  transition at x/c =  0.0492   24

 128   rms: 0.8703E-02   max: -.1603E+00   C at   56  1
       a = -3.000      CL =  0.2834
      Cm = -0.0881     CD =  0.00967   =>   CDf =  0.00725    CDp =  0.00242

 Side 1  free  transition at x/c =  0.6227   56
 Side 2  free  transition at x/c =  0.0492   24

 129   rms: 0.8703E-02   max: -.1603E+00   C at   56  1
       a = -3.000      CL =  0.2834
      Cm = -0.0881     CD =  0.00967   =>   CDf =  0.00725    CDp =  0.00242

 Side 1  free  transition at x/c =  0.6227   56
 Side 2  free  transition at x/c =  0.0492   24

 130   rms: 0.8703E-02   max: -.1603E+00   C at   56  1
       a = -3.000      CL =  0.2834
      Cm = -0.0881     CD =  0.00967   =>   CDf =  0.00725    CDp =  0.00242

 Side 1  free  transition at x/c =  0.6227   56
 Side 2  free  transition at x/c =  0.0492   24

 131   rms: 0.8703E-02   max: -.1603E+00   C at   56  1
       a = -3.000      CL =  0.2834
      Cm = -0.0881     CD =  0.00967   =>   CDf =  0.00725    CDp =  0.00242

 Side 1  free  transition at x/c =  0.6227   56
 Side 2  free  transition at x/c =  0.0492   24

 132   rms: 0.8703E-02   max: -.1603E+00   C at   56  1
       a = -3.000      CL =  0.2834
      Cm = -0.0881     CD =  0.00967   =>   CDf =  0.00725    CDp =  0.00242

 Side 1  free  transition at x/c =  0.6227   56
 Side 2  free  transition at x/c =  0.0492   24

 133   rms: 0.8703E-02   max: -.1603E+00   C at   56  1
       a = -3.000      CL =  0.2834
      Cm = -0.0881     CD =  0.00967   =>   CDf =  0.00725    CDp =  0.00242

 Side 1  free  transition at x/c =  0.6227   56
 Side 2  free  transition at x/c =  0.0492   24

 134   rms: 0.8703E-02   max: -.1603E+00   C at   56  1
       a = -3.000      CL =  0.2834
      Cm = -0.0881     CD =  0.00967   =>   CDf =  0.00725    CDp =  0.00242

 Side 1  free  transition at x/c =  0.6227   56
 Side 2  free  transition at x/c =  0.0492   24

 135   rms: 0.8703E-02   max: -.1603E+00   C at   56  1
       a = -3.000      CL =  0.2834
      Cm = -0.0881     CD =  0.00967   =>   CDf =  0.00725    CDp =  0.00242

 Side 1  free  transition at x/c =  0.6227   56
 Side 2  free  transition at x/c =  0.0492   24

 136   rms: 0.8702E-02   max: -.1603E+00   C at   56  1
       a = -3.000      CL =  0.2834
      Cm = -0.0881     CD =  0.00967   =>   CDf =  0.00725    CDp =  0.00242

 Side 1  free  transition at x/c =  0.6227   56
 Side 2  free  transition at x/c =  0.0492   24

 137   rms: 0.8703E-02   max: -.1603E+00   C at   56  1
       a = -3.000      CL =  0.2834
      Cm = -0.0881     CD =  0.00967   =>   CDf =  0.00725    CDp =  0.00242

 Side 1  free  transition at x/c =  0.6227   56
 Side 2  free  transition at x/c =  0.0492   24

 138   rms: 0.8703E-02   max: -.1603E+00   C at   56  1
       a = -3.000      CL =  0.2834
      Cm = -0.0881     CD =  0.00967   =>   CDf =  0.00725    CDp =  0.00242

 Side 1  free  transition at x/c =  0.6227   56
 Side 2  free  transition at x/c =  0.0492   24

 139   rms: 0.8703E-02   max: -.1603E+00   C at   56  1
       a = -3.000      CL =  0.2834
      Cm = -0.0881     CD =  0.00967   =>   CDf =  0.00725    CDp =  0.00242

 Side 1  free  transition at x/c =  0.6227   56
 Side 2  free  transition at x/c =  0.0492   24

 140   rms: 0.8703E-02   max: -.1603E+00   C at   56  1
       a = -3.000      CL =  0.2834
      Cm = -0.0881     CD =  0.00967   =>   CDf =  0.00725    CDp =  0.00242

 Side 1  free  transition at x/c =  0.6227   56
 Side 2  free  transition at x/c =  0.0492   24

 141   rms: 0.8703E-02   max: -.1603E+00   C at   56  1
       a = -3.000      CL =  0.2834
      Cm = -0.0881     CD =  0.00967   =>   CDf =  0.00725    CDp =  0.00242

 Side 1  free  transition at x/c =  0.6227   56
 Side 2  free  transition at x/c =  0.0492   24

 142   rms: 0.8703E-02   max: -.1603E+00   C at   56  1
       a = -3.000      CL =  0.2834
      Cm = -0.0881     CD =  0.00967   =>   CDf =  0.00725    CDp =  0.00242

 Side 1  free  transition at x/c =  0.6227   56
 Side 2  free  transition at x/c =  0.0492   24

 143   rms: 0.8703E-02   max: -.1603E+00   C at   56  1
       a = -3.000      CL =  0.2834
      Cm = -0.0881     CD =  0.00967   =>   CDf =  0.00725    CDp =  0.00242

 Side 1  free  transition at x/c =  0.6227   56
 Side 2  free  transition at x/c =  0.0492   24

 144   rms: 0.8703E-02   max: -.1603E+00   C at   56  1
       a = -3.000      CL =  0.2834
      Cm = -0.0881     CD =  0.00967   =>   CDf =  0.00725    CDp =  0.00242

 Side 1  free  transition at x/c =  0.6227   56
 Side 2  free  transition at x/c =  0.0492   24

 145   rms: 0.8703E-02   max: -.1603E+00   C at   56  1
       a = -3.000      CL =  0.2834
      Cm = -0.0881     CD =  0.00967   =>   CDf =  0.00725    CDp =  0.00242

 Side 1  free  transition at x/c =  0.6227   56
 Side 2  free  transition at x/c =  0.0492   24

 146   rms: 0.8703E-02   max: -.1603E+00   C at   56  1
       a = -3.000      CL =  0.2834
      Cm = -0.0881     CD =  0.00967   =>   CDf =  0.00725    CDp =  0.00242

 Side 1  free  transition at x/c =  0.6227   56
 Side 2  free  transition at x/c =  0.0492   24

 147   rms: 0.8703E-02   max: -.1603E+00   C at   56  1
       a = -3.000      CL =  0.2834
      Cm = -0.0881     CD =  0.00967   =>   CDf =  0.00725    CDp =  0.00242

 Side 1  free  transition at x/c =  0.6227   56
 Side 2  free  transition at x/c =  0.0492   24

 148   rms: 0.8703E-02   max: -.1603E+00   C at   56  1
       a = -3.000      CL =  0.2834
      Cm = -0.0881     CD =  0.00967   =>   CDf =  0.00725    CDp =  0.00242

 Side 1  free  transition at x/c =  0.6227   56
 Side 2  free  transition at x/c =  0.0492   24

 149   rms: 0.8703E-02   max: -.1603E+00   C at   56  1
       a = -3.000      CL =  0.2834
      Cm = -0.0881     CD =  0.00967   =>   CDf =  0.00725    CDp =  0.00242

 Side 1  free  transition at x/c =  0.6227   56
 Side 2  free  transition at x/c =  0.0492   24

 150   rms: 0.8703E-02   max: -.1603E+00   C at   56  1
       a = -3.000      CL =  0.2834
      Cm = -0.0881     CD =  0.00967   =>   CDf =  0.00725    CDp =  0.00242

 Side 1  free  transition at x/c =  0.6227   56
 Side 2  free  transition at x/c =  0.0492   24

 151   rms: 0.8703E-02   max: -.1603E+00   C at   56  1
       a = -3.000      CL =  0.2834
      Cm = -0.0881     CD =  0.00967   =>   CDf =  0.00725    CDp =  0.00242

 Side 1  free  transition at x/c =  0.6227   56
 Side 2  free  transition at x/c =  0.0492   24

 152   rms: 0.8703E-02   max: -.1603E+00   C at   56  1
       a = -3.000      CL =  0.2834
      Cm = -0.0881     CD =  0.00967   =>   CDf =  0.00725    CDp =  0.00242

 Side 1  free  transition at x/c =  0.6227   56
 Side 2  free  transition at x/c =  0.0492   24

 153   rms: 0.8703E-02   max: -.1603E+00   C at   56  1
       a = -3.000      CL =  0.2834
      Cm = -0.0881     CD =  0.00967   =>   CDf =  0.00725    CDp =  0.00242

 Side 1  free  transition at x/c =  0.6227   56
 Side 2  free  transition at x/c =  0.0492   24

 154   rms: 0.8703E-02   max: -.1603E+00   C at   56  1
       a = -3.000      CL =  0.2834
      Cm = -0.0881     CD =  0.00967   =>   CDf =  0.00725    CDp =  0.00242

 Side 1  free  transition at x/c =  0.6227   56
 Side 2  free  transition at x/c =  0.0492   24

 155   rms: 0.8703E-02   max: -.1603E+00   C at   56  1
       a = -3.000      CL =  0.2834
      Cm = -0.0881     CD =  0.00967   =>   CDf =  0.00725    CDp =  0.00242
 VISCAL:  Convergence failed
 Calculating wake trajectory ...
 Calculating source influence matrix ...

 Solving BL system ...

 Side 1  free  transition at x/c =  0.6227   56
 Side 2  free  transition at x/c =  0.0492   24

   1   rms: 0.9231E-01   max: -.4919E+00   T at   24  2
       a = -2.500      CL =  0.3410
      Cm = -0.0883     CD =  0.00935   =>   CDf =  0.00725    CDp =  0.00210

 Side 1  free  transition at x/c =  0.6057   56
 Side 2  free  transition at x/c =  0.0539   24

   2   rms: 0.5939E-01   max: -.5068E+00   D at   23  2   RLX: 0.987
       a = -2.500      CL =  0.3396
      Cm = -0.0880     CD =  0.00936   =>   CDf =  0.00730    CDp =  0.00206

 Side 1  free  transition at x/c =  0.6070   57
 Side 2  free  transition at x/c =  0.0610   25

   3   rms: 0.2076E-01   max: -.2029E+00   D at   25  2
       a = -2.500      CL =  0.3400
      Cm = -0.0880     CD =  0.00952   =>   CDf =  0.00728    CDp =  0.00225

 Side 1  free  transition at x/c =  0.6083   57
 Side 2  free  transition at x/c =  0.0572   24

   4   rms: 0.1833E-01   max: -.2421E+00   D at   24  2
       a = -2.500      CL =  0.3400
      Cm = -0.0880     CD =  0.00946   =>   CDf =  0.00722    CDp =  0.00224

 Side 1  free  transition at x/c =  0.6079   57
 Side 2  free  transition at x/c =  0.0584   24

   5   rms: 0.1677E-02   max: 0.2626E-01   C at   24  2
       a = -2.500      CL =  0.3400
      Cm = -0.0880     CD =  0.00947   =>   CDf =  0.00724    CDp =  0.00223

 Side 1  free  transition at x/c =  0.6079   57
 Side 2  free  transition at x/c =  0.0581   24

   6   rms: 0.1988E-04   max: -.2865E-03   D at   25  2
       a = -2.500      CL =  0.3400
      Cm = -0.0880     CD =  0.00947   =>   CDf =  0.00724    CDp =  0.00223
 plradd ia,ip,cpol            3           0  1.42288925E-02

 Point added to stored polar  1
 Point written to save file  usa35b_Re600k.base.pol                          
 Dump file unspecified or not available
 Calculating wake trajectory ...
 Calculating source influence matrix ...

 Solving BL system ...

 Side 1  free  transition at x/c =  0.6079   57
 Side 2  free  transition at x/c =  0.0581   24

   1   rms: 0.1038E+00   max: -.6781E+00   T at   24  2   RLX: 0.737
       a = -2.000      CL =  0.3811
      Cm = -0.0879     CD =  0.00943   =>   CDf =  0.00724    CDp =  0.00219

 MRCHDU: Convergence failed at  25  side 2    Res =  0.9220E+00
 MRCHDU: Convergence failed at  26  side 2    Res =  0.1728E+01
 MRCHDU: Convergence failed at  27  side 2    Res =  0.1315E+01
 MRCHDU: Convergence failed at  28  side 2    Res =  0.1378E+01
 MRCHDU: Convergence failed at  29  side 2    Res =  0.1461E+01
 MRCHDU: Convergence failed at  30  side 2    Res =  0.1569E+01
 MRCHDU: Convergence failed at  31  side 2    Res =  0.1816E+01
 MRCHDU: Convergence failed at  32  side 2    Res =  0.2241E+01
 MRCHDU: Convergence failed at  33  side 2    Res =  0.2806E+01
 MRCHDU: Convergence failed at  34  side 2    Res =  0.3369E+01
 MRCHDU: Convergence failed at  35  side 2    Res =  0.3713E+01
 MRCHDU: Convergence failed at  36  side 2    Res =  0.3969E+01
 MRCHDU: Convergence failed at  37  side 2    Res =  0.4162E+01
 MRCHDU: Convergence failed at  38  side 2    Res =  0.4330E+01
 MRCHDU: Convergence failed at  39  side 2    Res =  0.4499E+01
 MRCHDU: Convergence failed at  40  side 2    Res =  0.4754E+01
 MRCHDU: Convergence failed at  41  side 2    Res =  0.5058E+01
 MRCHDU: Convergence failed at  42  side 2    Res =  0.5419E+01
 MRCHDU: Convergence failed at  43  side 2    Res =  0.5900E+01
 MRCHDU: Convergence failed at  44  side 2    Res =  0.6368E+01
 MRCHDU: Convergence failed at  45  side 2    Res =  0.6894E+01
 MRCHDU: Convergence failed at  46  side 2    Res =  0.7494E+01
 MRCHDU: Convergence failed at  47  side 2    Res =  0.8175E+01
 MRCHDU: Convergence failed at  48  side 2    Res =  0.8897E+01
 MRCHDU: Convergence failed at  49  side 2    Res =  0.9976E+01
 MRCHDU: Convergence failed at  50  side 2    Res =  0.1085E+02
 MRCHDU: Convergence failed at  51  side 2    Res =  0.1208E+02
 MRCHDU: Convergence failed at  52  side 2    Res =  0.1301E+02
 MRCHDU: Convergence failed at  53  side 2    Res =  0.1384E+02
 MRCHDU: Convergence failed at  54  side 2    Res =  0.1466E+02
 MRCHDU: Convergence failed at  55  side 2    Res =  0.1545E+02
 MRCHDU: Convergence failed at  56  side 2    Res =  0.1613E+02
 MRCHDU: Convergence failed at  57  side 2    Res =  0.1667E+02
 MRCHDU: Convergence failed at  58  side 2    Res =  0.1702E+02
 MRCHDU: Convergence failed at  59  side 2    Res =  0.1745E+02
 MRCHDU: Convergence failed at  60  side 2    Res =  0.1788E+02
 MRCHDU: Convergence failed at  61  side 2    Res =  0.1848E+02
 MRCHDU: Convergence failed at  62  side 2    Res =  0.1942E+02
 MRCHDU: Convergence failed at  63  side 2    Res =  0.2106E+02
 MRCHDU: Convergence failed at  64  side 2    Res =  0.2305E+02
 MRCHDU: Convergence failed at  65  side 2    Res =  0.2811E+02
 MRCHDU: Convergence failed at  66  side 2    Res =  0.3179E+02
 MRCHDU: Convergence failed at  67  side 2    Res =  0.3604E+02
 MRCHDU: Convergence failed at  68  side 2    Res =  0.3985E+02
 MRCHDU: Convergence failed at  69  side 2    Res =  0.4306E+02
 MRCHDU: Convergence failed at  70  side 2    Res =  0.4583E+02
 MRCHDU: Convergence failed at  71  side 2    Res =  0.4999E+02
 MRCHDU: Convergence failed at  72  side 2    Res =  0.5692E+02
 MRCHDU: Convergence failed at  73  side 2    Res =  0.7279E+02
 MRCHDU: Convergence failed at  74  side 2    Res =  0.1281E+03
 MRCHDU: Convergence failed at  75  side 2    Res =  0.3831E+04
 MRCHDU: Convergence failed at  76  side 2    Res =  0.1387E+03
 MRCHDU: Convergence failed at  77  side 2    Res =  0.5646E+02
 MRCHDU: Convergence failed at  78  side 2    Res =  0.3808E+02
 MRCHDU: Convergence failed at  79  side 2    Res =  0.3196E+02
 MRCHDU: Convergence failed at  80  side 2    Res =  0.2473E+02
 MRCHDU: Convergence failed at  81  side 2    Res =  0.1245E+02
 Side 1  free  transition at x/c =  0.5978   56
 Side 2 forced transition at x/c =  1.0000   81

   2   rms: 0.3540E+00   max: -.1534E+01   C at   81  2   RLX: 0.326
       a = -2.000      CL =  0.0263
      Cm =  0.0274     CD =  0.00596   =>   CDf =  0.00734    CDp = -0.00139

 Side 1  free  transition at x/c =  0.5967   56
 Side 2  free  transition at x/c =  0.7996   68

   3   rms: 0.1067E+01   max: 0.2136E+02   C at   68  2   RLX: 0.070
       a = -2.000      CL =  0.0409
      Cm =  0.0207     CD =  0.00672   =>   CDf =  0.00580    CDp =  0.00092

 Side 1  free  transition at x/c =  0.5964   56
 Side 2  free  transition at x/c =  0.7124   63

   4   rms: 0.1224E+01   max: 0.2474E+02   C at   63  2   RLX: 0.061
       a = -2.000      CL =  0.0657
      Cm =  0.0129     CD =  0.00696   =>   CDf =  0.00613    CDp =  0.00082

 Side 1  free  transition at x/c =  0.5962   56
 Side 2  free  transition at x/c =  0.6580   60

   5   rms: 0.9242E+00   max: 0.1869E+02   C at   60  2   RLX: 0.080
       a = -2.000      CL =  0.0949
      Cm =  0.0038     CD =  0.00712   =>   CDf =  0.00631    CDp =  0.00081

 Side 1  free  transition at x/c =  0.5960   56
 Side 2  free  transition at x/c =  0.6176   58

   6   rms: 0.6039E+00   max: 0.1212E+02   C at   58  2   RLX: 0.124
       a = -2.000      CL =  0.1349
      Cm = -0.0086     CD =  0.00727   =>   CDf =  0.00639    CDp =  0.00088

 Side 1  free  transition at x/c =  0.5957   56
 Side 2  free  transition at x/c =  0.5472   54

   7   rms: 0.7338E+00   max: 0.1526E+02   C at   54  2   RLX: 0.098
       a = -2.000      CL =  0.1628
      Cm = -0.0171     CD =  0.00750   =>   CDf =  0.00655    CDp =  0.00095

 Side 1  free  transition at x/c =  0.5955   56
 Side 2  free  transition at x/c =  0.4965   51

   8   rms: 0.5074E+00   max: 0.1039E+02   C at   51  2   RLX: 0.144
       a = -2.000      CL =  0.1984
      Cm = -0.0281     CD =  0.00767   =>   CDf =  0.00665    CDp =  0.00102

 Side 1  free  transition at x/c =  0.5953   56
 Side 2  free  transition at x/c =  0.4349   48

   9   rms: 0.4807E+00   max: 0.9848E+01   C at   48  2   RLX: 0.152
       a = -2.000      CL =  0.2303
      Cm = -0.0378     CD =  0.00792   =>   CDf =  0.00676    CDp =  0.00116

 Side 1  free  transition at x/c =  0.5950   56
 Side 2  free  transition at x/c =  0.3724   44

  10   rms: 0.5006E+00   max: 0.1077E+02   C at   44  2   RLX: 0.139
       a = -2.000      CL =  0.2547
      Cm = -0.0451     CD =  0.00808   =>   CDf =  0.00686    CDp =  0.00122

 Side 1  free  transition at x/c =  0.5948   56
 Side 2  free  transition at x/c =  0.3104   40

  11   rms: 0.4518E+00   max: 0.9710E+01   C at   40  2   RLX: 0.154
       a = -2.000      CL =  0.2776
      Cm = -0.0520     CD =  0.00828   =>   CDf =  0.00698    CDp =  0.00130

 Side 1  free  transition at x/c =  0.5947   56
 Side 2  free  transition at x/c =  0.2658   38

  12   rms: 0.2944E+00   max: 0.6357E+01   C at   38  2   RLX: 0.236
       a = -2.000      CL =  0.3066
      Cm = -0.0608     CD =  0.00849   =>   CDf =  0.00704    CDp =  0.00145

 Side 1  free  transition at x/c =  0.5945   56
 Side 2  free  transition at x/c =  0.2279   36

  13   rms: 0.1654E+00   max: 0.3247E+01   C at   36  2   RLX: 0.462
       a = -2.000      CL =  0.3486
      Cm = -0.0736     CD =  0.00875   =>   CDf =  0.00705    CDp =  0.00170

 Side 1  free  transition at x/c =  0.5941   56
 Side 2  free  transition at x/c =  0.1863   33

  14   rms: 0.5612E-01   max: 0.9196E+00   C at   33  2
       a = -2.000      CL =  0.3960
      Cm = -0.0881     CD =  0.00896   =>   CDf =  0.00702    CDp =  0.00194

 Side 1  free  transition at x/c =  0.5938   56
 Side 2  free  transition at x/c =  0.1260   30

  15   rms: 0.7851E-02   max: -.9843E-01   D at   30  2
       a = -2.000      CL =  0.3964
      Cm = -0.0880     CD =  0.00912   =>   CDf =  0.00702    CDp =  0.00210

 Side 1  free  transition at x/c =  0.5937   56
 Side 2  free  transition at x/c =  0.1220   29

  16   rms: 0.9778E-03   max: 0.2185E-01   C at   29  2
       a = -2.000      CL =  0.3964
      Cm = -0.0880     CD =  0.00911   =>   CDf =  0.00703    CDp =  0.00208

 Side 1  free  transition at x/c =  0.5937   56
 Side 2  free  transition at x/c =  0.1216   29

  17   rms: 0.4841E-05   max: 0.9246E-04   C at   29  2
       a = -2.000      CL =  0.3964
      Cm = -0.0880     CD =  0.00911   =>   CDf =  0.00703    CDp =  0.00208
 plradd ia,ip,cpol            4           0  1.42288925E-02

 Point added to stored polar  1
 Point written to save file  usa35b_Re600k.base.pol                          
 Dump file unspecified or not available
 Calculating wake trajectory ...
 Calculating source influence matrix ...

 Solving BL system ...

 Side 1  free  transition at x/c =  0.5937   56
 Side 2  free  transition at x/c =  0.1216   29

   1   rms: 0.2177E+00   max: -.4735E+01   C at   29  2   RLX: 0.106
       a = -1.500      CL =  0.4022
      Cm = -0.0880     CD =  0.00909   =>   CDf =  0.00698    CDp =  0.00211

 Side 1  free  transition at x/c =  0.5924   57
 Side 2  free  transition at x/c =  0.1287   29

   2   rms: 0.2379E+00   max: -.3661E+01   C at   29  2   RLX: 0.137
       a = -1.500      CL =  0.4093
      Cm = -0.0880     CD =  0.00905   =>   CDf =  0.00703    CDp =  0.00203

 Side 1  free  transition at x/c =  0.5909   57
 Side 2  free  transition at x/c =  0.1399   30

   3   rms: 0.2094E+00   max: -.3713E+01   C at   30  2   RLX: 0.135
       a = -1.500      CL =  0.4152
      Cm = -0.0880     CD =  0.00901   =>   CDf =  0.00700    CDp =  0.00202

 Side 1  free  transition at x/c =  0.5896   57
 Side 2  free  transition at x/c =  0.1554   31

   4   rms: 0.2094E+00   max: -.3819E+01   C at   31  2   RLX: 0.131
       a = -1.500      CL =  0.4203
      Cm = -0.0880     CD =  0.00898   =>   CDf =  0.00695    CDp =  0.00203

 Side 1  free  transition at x/c =  0.5886   56
 Side 2  free  transition at x/c =  0.1703   31

   5   rms: 0.1996E+00   max: -.4545E+01   C at   31  2   RLX: 0.110
       a = -1.500      CL =  0.4242
      Cm = -0.0880     CD =  0.00897   =>   CDf =  0.00691    CDp =  0.00206

 Side 1  free  transition at x/c =  0.5879   56
 Side 2  free  transition at x/c =  0.1849   32

   6   rms: 0.1257E+00   max: -.2690E+01   C at   32  2   RLX: 0.186
       a = -1.500      CL =  0.4293
      Cm = -0.0880     CD =  0.00892   =>   CDf =  0.00686    CDp =  0.00205

 Side 1  free  transition at x/c =  0.5868   56
 Side 2  free  transition at x/c =  0.2065   34

   7   rms: 0.1095E+00   max: -.1905E+01   C at   34  2   RLX: 0.262
       a = -1.500      CL =  0.4350
      Cm = -0.0881     CD =  0.00881   =>   CDf =  0.00680    CDp =  0.00202

 Side 1  free  transition at x/c =  0.5854   56
 Side 2  free  transition at x/c =  0.2197   34

   8   rms: 0.5394E-01   max: -.1031E+01   C at   34  2   RLX: 0.485
       a = -1.500      CL =  0.4438
      Cm = -0.0881     CD =  0.00881   =>   CDf =  0.00676    CDp =  0.00205

 Side 1  free  transition at x/c =  0.5834   56
 Side 2  free  transition at x/c =  0.2416   36

   9   rms: 0.4342E-01   max: -.7699E+00   C at   36  2   RLX: 0.649
       a = -1.500      CL =  0.4493
      Cm = -0.0882     CD =  0.00871   =>   CDf =  0.00669    CDp =  0.00201

 Side 1  free  transition at x/c =  0.5821   56
 Side 2  free  transition at x/c =  0.2575   36

  10   rms: 0.2651E-01   max: -.5938E+00   C at   36  2   RLX: 0.842
       a = -1.500      CL =  0.4519
      Cm = -0.0882     CD =  0.00870   =>   CDf =  0.00664    CDp =  0.00206

 Side 1  free  transition at x/c =  0.5815   56
 Side 2  free  transition at x/c =  0.2713   37

  11   rms: 0.8964E-02   max: -.2012E+00   C at   37  2
       a = -1.500      CL =  0.4523
      Cm = -0.0882     CD =  0.00867   =>   CDf =  0.00660    CDp =  0.00207

 Side 1  free  transition at x/c =  0.5814   56
 Side 2  free  transition at x/c =  0.2750   37

  12   rms: 0.4846E-02   max: -.1070E+00   C at   37  2
       a = -1.500      CL =  0.4523
      Cm = -0.0882     CD =  0.00867   =>   CDf =  0.00659    CDp =  0.00208

 Side 1  free  transition at x/c =  0.5814   56
 Side 2  free  transition at x/c =  0.2752   37

  13   rms: 0.4809E-02   max: -.1058E+00   C at   37  2
       a = -1.500      CL =  0.4523
      Cm = -0.0882     CD =  0.00867   =>   CDf =  0.00659    CDp =  0.00208

 Side 1  free  transition at x/c =  0.5814   56
 Side 2  free  transition at x/c =  0.2752   37

  14   rms: 0.4823E-02   max: -.1061E+00   C at   37  2
       a = -1.500      CL =  0.4523
      Cm = -0.0882     CD =  0.00867   =>   CDf =  0.00659    CDp =  0.00208

 Side 1  free  transition at x/c =  0.5814   56
 Side 2  free  transition at x/c =  0.2752   37

  15   rms: 0.4823E-02   max: -.1061E+00   C at   37  2
       a = -1.500      CL =  0.4523
      Cm = -0.0882     CD =  0.00867   =>   CDf =  0.00659    CDp =  0.00208

 Side 1  free  transition at x/c =  0.5814   56
 Side 2  free  transition at x/c =  0.2752   37

  16   rms: 0.4822E-02   max: -.1061E+00   C at   37  2
       a = -1.500      CL =  0.4523
      Cm = -0.0882     CD =  0.00867   =>   CDf =  0.00659    CDp =  0.00208

 Side 1  free  transition at x/c =  0.5814   56
 Side 2  free  transition at x/c =  0.2752   37

  17   rms: 0.4823E-02   max: -.1061E+00   C at   37  2
       a = -1.500      CL =  0.4523
      Cm = -0.0882     CD =  0.00867   =>   CDf =  0.00659    CDp =  0.00208

 Side 1  free  transition at x/c =  0.5814   56
 Side 2  free  transition at x/c =  0.2752   37

  18   rms: 0.4823E-02   max: -.1061E+00   C at   37  2
       a = -1.500      CL =  0.4523
      Cm = -0.0882     CD =  0.00867   =>   CDf =  0.00659    CDp =  0.00208

 Side 1  free  transition at x/c =  0.5814   56
 Side 2  free  transition at x/c =  0.2752   37

  19   rms: 0.4822E-02   max: -.1061E+00   C at   37  2
       a = -1.500      CL =  0.4523
      Cm = -0.0882     CD =  0.00867   =>   CDf =  0.00659    CDp =  0.00208

 Side 1  free  transition at x/c =  0.5814   56
 Side 2  free  transition at x/c =  0.2752   37

  20   rms: 0.4823E-02   max: -.1061E+00   C at   37  2
       a = -1.500      CL =  0.4523
      Cm = -0.0882     CD =  0.00867   =>   CDf =  0.00659    CDp =  0.00208

 Side 1  free  transition at x/c =  0.5814   56
 Side 2  free  transition at x/c =  0.2752   37

  21   rms: 0.4823E-02   max: -.1061E+00   C at   37  2
       a = -1.500      CL =  0.4523
      Cm = -0.0882     CD =  0.00867   =>   CDf =  0.00659    CDp =  0.00208

 Side 1  free  transition at x/c =  0.5814   56
 Side 2  free  transition at x/c =  0.2752   37

  22   rms: 0.4822E-02   max: -.1061E+00   C at   37  2
       a = -1.500      CL =  0.4523
      Cm = -0.0882     CD =  0.00867   =>   CDf =  0.00659    CDp =  0.00208

 Side 1  free  transition at x/c =  0.5814   56
 Side 2  free  transition at x/c =  0.2752   37

  23   rms: 0.4823E-02   max: -.1061E+00   C at   37  2
       a = -1.500      CL =  0.4523
      Cm = -0.0882     CD =  0.00867   =>   CDf =  0.00659    CDp =  0.00208

 Side 1  free  transition at x/c =  0.5814   56
 Side 2  free  transition at x/c =  0.2752   37

  24   rms: 0.4822E-02   max: -.1061E+00   C at   37  2
       a = -1.500      CL =  0.4523
      Cm = -0.0882     CD =  0.00867   =>   CDf =  0.00659    CDp =  0.00208

 Side 1  free  transition at x/c =  0.5814   56
 Side 2  free  transition at x/c =  0.2752   37

  25   rms: 0.4822E-02   max: -.1061E+00   C at   37  2
       a = -1.500      CL =  0.4523
      Cm = -0.0882     CD =  0.00867   =>   CDf =  0.00659    CDp =  0.00208

 Side 1  free  transition at x/c =  0.5814   56
 Side 2  free  transition at x/c =  0.2752   37

  26   rms: 0.4823E-02   max: -.1061E+00   C at   37  2
       a = -1.500      CL =  0.4523
      Cm = -0.0882     CD =  0.00867   =>   CDf =  0.00659    CDp =  0.00208

 Side 1  free  transition at x/c =  0.5814   56
 Side 2  free  transition at x/c =  0.2752   37

  27   rms: 0.4823E-02   max: -.1061E+00   C at   37  2
       a = -1.500      CL =  0.4523
      Cm = -0.0882     CD =  0.00867   =>   CDf =  0.00659    CDp =  0.00208

 Side 1  free  transition at x/c =  0.5814   56
 Side 2  free  transition at x/c =  0.2752   37

  28   rms: 0.4823E-02   max: -.1061E+00   C at   37  2
       a = -1.500      CL =  0.4523
      Cm = -0.0882     CD =  0.00867   =>   CDf =  0.00659    CDp =  0.00208

 Side 1  free  transition at x/c =  0.5814   56
 Side 2  free  transition at x/c =  0.2752   37

  29   rms: 0.4823E-02   max: -.1061E+00   C at   37  2
       a = -1.500      CL =  0.4523
      Cm = -0.0882     CD =  0.00867   =>   CDf =  0.00659    CDp =  0.00208

 Side 1  free  transition at x/c =  0.5814   56
 Side 2  free  transition at x/c =  0.2752   37

  30   rms: 0.4823E-02   max: -.1061E+00   C at   37  2
       a = -1.500      CL =  0.4523
      Cm = -0.0882     CD =  0.00867   =>   CDf =  0.00659    CDp =  0.00208

 Side 1  free  transition at x/c =  0.5814   56
 Side 2  free  transition at x/c =  0.2752   37

  31   rms: 0.4823E-02   max: -.1061E+00   C at   37  2
       a = -1.500      CL =  0.4523
      Cm = -0.0882     CD =  0.00867   =>   CDf =  0.00659    CDp =  0.00208

 Side 1  free  transition at x/c =  0.5814   56
 Side 2  free  transition at x/c =  0.2752   37

  32   rms: 0.4822E-02   max: -.1061E+00   C at   37  2
       a = -1.500      CL =  0.4523
      Cm = -0.0882     CD =  0.00867   =>   CDf =  0.00659    CDp =  0.00208

 Side 1  free  transition at x/c =  0.5814   56
 Side 2  free  transition at x/c =  0.2752   37

  33   rms: 0.4822E-02   max: -.1061E+00   C at   37  2
       a = -1.500      CL =  0.4523
      Cm = -0.0882     CD =  0.00867   =>   CDf =  0.00659    CDp =  0.00208

 Side 1  free  transition at x/c =  0.5814   56
 Side 2  free  transition at x/c =  0.2752   37

  34   rms: 0.4823E-02   max: -.1061E+00   C at   37  2
       a = -1.500      CL =  0.4523
      Cm = -0.0882     CD =  0.00867   =>   CDf =  0.00659    CDp =  0.00208

 Side 1  free  transition at x/c =  0.5814   56
 Side 2  free  transition at x/c =  0.2752   37

  35   rms: 0.4823E-02   max: -.1061E+00   C at   37  2
       a = -1.500      CL =  0.4523
      Cm = -0.0882     CD =  0.00867   =>   CDf =  0.00659    CDp =  0.00208

 Side 1  free  transition at x/c =  0.5814   56
 Side 2  free  transition at x/c =  0.2752   37

  36   rms: 0.4822E-02   max: -.1061E+00   C at   37  2
       a = -1.500      CL =  0.4523
      Cm = -0.0882     CD =  0.00867   =>   CDf =  0.00659    CDp =  0.00208

 Side 1  free  transition at x/c =  0.5814   56
 Side 2  free  transition at x/c =  0.2752   37

  37   rms: 0.4823E-02   max: -.1061E+00   C at   37  2
       a = -1.500      CL =  0.4523
      Cm = -0.0882     CD =  0.00867   =>   CDf =  0.00659    CDp =  0.00208

 Side 1  free  transition at x/c =  0.5814   56
 Side 2  free  transition at x/c =  0.2752   37

  38   rms: 0.4822E-02   max: -.1061E+00   C at   37  2
       a = -1.500      CL =  0.4523
      Cm = -0.0882     CD =  0.00867   =>   CDf =  0.00659    CDp =  0.00208

 Side 1  free  transition at x/c =  0.5814   56
[...]
 Calculating wake trajectory ...
 Calculating source influence matrix ...

 Solving BL system ...

 Side 1  free  transition at x/c =  0.0321   34
 Side 2 forced transition at x/c =  1.0000   63

   1   rms: 0.3341E-01   max: 0.1097E+00   D at   74  1   RLX: 0.772
       a = 13.250      CL =  1.5751
      Cm = -0.0416     CD =  0.04871   =>   CDf =  0.00603    CDp =  0.04268

 Side 1  free  transition at x/c =  0.0314   34
 Side 2 forced transition at x/c =  1.0000   63

   2   rms: 0.9278E-02   max: 0.4975E-01   D at   75  1
       a = 13.250      CL =  1.5732
      Cm = -0.0415     CD =  0.04941   =>   CDf =  0.00596    CDp =  0.04345

 Side 1  free  transition at x/c =  0.0312   34
 Side 2 forced transition at x/c =  1.0000   63

   3   rms: 0.1325E-02   max: 0.8258E-02   D at   74  1
       a = 13.250      CL =  1.5722
      Cm = -0.0414     CD =  0.04937   =>   CDf =  0.00594    CDp =  0.04343

 Side 1  free  transition at x/c =  0.0313   34
 Side 2 forced transition at x/c =  1.0000   63

   4   rms: 0.1096E-03   max: 0.8086E-03   D at   76  2
       a = 13.250      CL =  1.5721
      Cm = -0.0414     CD =  0.04936   =>   CDf =  0.00593    CDp =  0.04343

 Side 1  free  transition at x/c =  0.0313   34
 Side 2 forced transition at x/c =  1.0000   63

   5   rms: 0.6258E-05   max: 0.4170E-04   D at   76  2
       a = 13.250      CL =  1.5721
      Cm = -0.0414     CD =  0.04936   =>   CDf =  0.00593    CDp =  0.04343
 plradd ia,ip,cpol           40           0  1.11675984E-03

 Point added to stored polar  1
 Point written to save file  usa35b_Re600k.base.pol                          
 Dump file unspecified or not available
 Calculating wake trajectory ...
 Calculating source influence matrix ...

 Solving BL system ...

 Side 1  free  transition at x/c =  0.0313   34
 Side 2 forced transition at x/c =  1.0000   63

   1   rms: 0.3387E-01   max: 0.1182E+00   D at   73  1   RLX: 0.739
       a = 13.500      CL =  1.5748
      Cm = -0.0415     CD =  0.05163   =>   CDf =  0.00557    CDp =  0.04606

 Side 1  free  transition at x/c =  0.0306   35
 Side 2 forced transition at x/c =  1.0000   62

   2   rms: 0.1000E-01   max: 0.4713E-01   D at   74  1
       a = 13.500      CL =  1.5730
      Cm = -0.0414     CD =  0.05239   =>   CDf =  0.00587    CDp =  0.04652

 Side 1  free  transition at x/c =  0.0305   35
 Side 2 forced transition at x/c =  1.0000   62

   3   rms: 0.1621E-02   max: 0.9014E-02   D at   74  1
       a = 13.500      CL =  1.5719
      Cm = -0.0414     CD =  0.05236   =>   CDf =  0.00585    CDp =  0.04651

 Side 1  free  transition at x/c =  0.0305   35
 Side 2 forced transition at x/c =  1.0000   62

   4   rms: 0.1156E-03   max: 0.6322E-03   D at   75  2
       a = 13.500      CL =  1.5718
      Cm = -0.0414     CD =  0.05235   =>   CDf =  0.00584    CDp =  0.04650

 Side 1  free  transition at x/c =  0.0305   35
 Side 2 forced transition at x/c =  1.0000   62

   5   rms: 0.5406E-05   max: -.3362E-04   C at   62  2
       a = 13.500      CL =  1.5718
      Cm = -0.0414     CD =  0.05235   =>   CDf =  0.00584    CDp =  0.04650
 plradd ia,ip,cpol           41           0  1.11675984E-03

 Point added to stored polar  1
 Point written to save file  usa35b_Re600k.base.pol                          
 Dump file unspecified or not available
 Calculating wake trajectory ...
 Calculating source influence matrix ...

 Solving BL system ...

 Side 1  free  transition at x/c =  0.0305   35
 Side 2 forced transition at x/c =  1.0000   62

   1   rms: 0.3386E-01   max: 0.1208E+00   D at   73  1   RLX: 0.707
       a = 13.750      CL =  1.5736
      Cm = -0.0416     CD =  0.05469   =>   CDf =  0.00585    CDp =  0.04884

 Side 1  free  transition at x/c =  0.0300   35
 Side 2 forced transition at x/c =  1.0000   62

   2   rms: 0.1165E-01   max: 0.5935E-01   D at   73  1
       a = 13.750      CL =  1.5708
      Cm = -0.0415     CD =  0.05574   =>   CDf =  0.00580    CDp =  0.04994

 Side 1  free  transition at x/c =  0.0298   35
 Side 2 forced transition at x/c =  1.0000   62

   3   rms: 0.1683E-02   max: 0.7727E-02   D at   76  2
       a = 13.750      CL =  1.5695
      Cm = -0.0414     CD =  0.05565   =>   CDf =  0.00577    CDp =  0.04988

 Side 1  free  transition at x/c =  0.0298   35
 Side 2 forced transition at x/c =  1.0000   62

   4   rms: 0.1057E-03   max: 0.6220E-03   D at   76  2
       a = 13.750      CL =  1.5694
      Cm = -0.0414     CD =  0.05564   =>   CDf =  0.00577    CDp =  0.04987

 Side 1  free  transition at x/c =  0.0298   35
 Side 2 forced transition at x/c =  1.0000   62

   5   rms: 0.3071E-05   max: -.2549E-04   C at   62  2
       a = 13.750      CL =  1.5694
      Cm = -0.0414     CD =  0.05564   =>   CDf =  0.00577    CDp =  0.04987
 plradd ia,ip,cpol           42           0  1.11675984E-03

 Point added to stored polar  1
 Point written to save file  usa35b_Re600k.base.pol                          
 Dump file unspecified or not available
 Calculating wake trajectory ...
 Calculating source influence matrix ...

 Solving BL system ...

 Side 1  free  transition at x/c =  0.0298   35
 Side 2 forced transition at x/c =  1.0000   62

   1   rms: 0.3482E-01   max: 0.1329E+00   D at   71  1   RLX: 0.675
       a = 14.000      CL =  1.5692
      Cm = -0.0417     CD =  0.05820   =>   CDf =  0.00577    CDp =  0.05243

 Side 1  free  transition at x/c =  0.0293   35
 Side 2 forced transition at x/c =  1.0000   62

   2   rms: 0.1479E-01   max: 0.7828E-01   D at   72  1
       a = 14.000      CL =  1.5646
      Cm = -0.0418     CD =  0.05968   =>   CDf =  0.00573    CDp =  0.05396

 Side 1  free  transition at x/c =  0.0292   35
 Side 2 forced transition at x/c =  1.0000   62

   3   rms: 0.1950E-02   max: 0.1075E-01   D at   76  2
       a = 14.000      CL =  1.5630
      Cm = -0.0417     CD =  0.05952   =>   CDf =  0.00569    CDp =  0.05383

 Side 1  free  transition at x/c =  0.0292   35
 Side 2 forced transition at x/c =  1.0000   62

   4   rms: 0.1062E-03   max: 0.7605E-03   D at   76  2
       a = 14.000      CL =  1.5630
      Cm = -0.0417     CD =  0.05951   =>   CDf =  0.00569    CDp =  0.05382

 Side 1  free  transition at x/c =  0.0292   35
 Side 2 forced transition at x/c =  1.0000   62

   5   rms: 0.4011E-05   max: -.3126E-04   C at   62  2
       a = 14.000      CL =  1.5629
      Cm = -0.0417     CD =  0.05950   =>   CDf =  0.00569    CDp =  0.05381
 plradd ia,ip,cpol           43           0  1.11675984E-03

 Point added to stored polar  1
 Point written to save file  usa35b_Re600k.base.pol                          
 Dump file unspecified or not available
 Calculating wake trajectory ...
 Calculating source influence matrix ...

 Solving BL system ...

 Side 1  free  transition at x/c =  0.0292   35
 Side 2 forced transition at x/c =  1.0000   62

   1   rms: 0.3808E-01   max: 0.1608E+00   D at   70  1   RLX: 0.641
       a = 14.250      CL =  1.5595
      Cm = -0.0421     CD =  0.06253   =>   CDf =  0.00569    CDp =  0.05683

 Side 1  free  transition at x/c =  0.0287   35
 Side 2 forced transition at x/c =  1.0000   62

   2   rms: 0.1798E-01   max: 0.8413E-01   D at   70  1
       a = 14.250      CL =  1.5523
      Cm = -0.0423     CD =  0.06443   =>   CDf =  0.00565    CDp =  0.05879

 Side 1  free  transition at x/c =  0.0285   35
 Side 2 forced transition at x/c =  1.0000   62

   3   rms: 0.2815E-02   max: 0.1891E-01   D at   70  1
       a = 14.250      CL =  1.5504
      Cm = -0.0421     CD =  0.06424   =>   CDf =  0.00561    CDp =  0.05863

 Side 1  free  transition at x/c =  0.0286   35
 Side 2 forced transition at x/c =  1.0000   62

   4   rms: 0.1342E-03   max: 0.9487E-03   D at   76  2
       a = 14.250      CL =  1.5503
      Cm = -0.0421     CD =  0.06421   =>   CDf =  0.00560    CDp =  0.05861

 Side 1  free  transition at x/c =  0.0286   35
 Side 2 forced transition at x/c =  1.0000   62

   5   rms: 0.2989E-05   max: -.1806E-04   C at   62  2
       a = 14.250      CL =  1.5503
      Cm = -0.0421     CD =  0.06421   =>   CDf =  0.00560    CDp =  0.05860
 plradd ia,ip,cpol           44           0  1.11675984E-03

 Point added to stored polar  1
 Point written to save file  usa35b_Re600k.base.pol                          
 Dump file unspecified or not available
 Calculating wake trajectory ...
 Calculating source influence matrix ...

 Solving BL system ...

 Side 1  free  transition at x/c =  0.0286   35
 Side 2 forced transition at x/c =  1.0000   62

   1   rms: 0.4383E-01   max: 0.1934E+00   D at   68  1   RLX: 0.603
       a = 14.500      CL =  1.5428
      Cm = -0.0427     CD =  0.06780   =>   CDf =  0.00561    CDp =  0.06220

 Side 1  free  transition at x/c =  0.0282   34
 Side 2 forced transition at x/c =  1.0000   62

   2   rms: 0.1292E-01   max: -.8062E-01   C at   34  1
       a = 14.500      CL =  1.5466
      Cm = -0.0426     CD =  0.06806   =>   CDf =  0.00554    CDp =  0.06252

 Side 1  free  transition at x/c =  0.0280   34
 Side 2 forced transition at x/c =  1.0000   62

   3   rms: 0.1126E-02   max: 0.4966E-02   D at   77  2
       a = 14.500      CL =  1.5457
      Cm = -0.0425     CD =  0.06799   =>   CDf =  0.00550    CDp =  0.06249

 Side 1  free  transition at x/c =  0.0280   34
 Side 2 forced transition at x/c =  1.0000   62

   4   rms: 0.1124E-03   max: 0.4902E-03   D at   77  2
       a = 14.500      CL =  1.5456
      Cm = -0.0425     CD =  0.06798   =>   CDf =  0.00550    CDp =  0.06249

 Side 1  free  transition at x/c =  0.0280   34
 Side 2 forced transition at x/c =  1.0000   62

   5   rms: 0.1179E-04   max: -.5262E-04   C at   62  2
       a = 14.500      CL =  1.5456
      Cm = -0.0425     CD =  0.06798   =>   CDf =  0.00550    CDp =  0.06248
 plradd ia,ip,cpol           45           0  1.11675984E-03

 Point added to stored polar  1
 Point written to save file  usa35b_Re600k.base.pol                          
 Dump file unspecified or not available
 Calculating wake trajectory ...
 Calculating source influence matrix ...

 Solving BL system ...

 Side 1  free  transition at x/c =  0.0280   34
 Side 2 forced transition at x/c =  1.0000   62

   1   rms: 0.3021E-01   max: 0.1243E+00   T at   34  1   RLX: 0.592
       a = 14.750      CL =  1.5482
      Cm = -0.0429     CD =  0.07001   =>   CDf =  0.00550    CDp =  0.06450

 Side 1  free  transition at x/c =  0.0277   34
 Side 2 forced transition at x/c =  1.0000   62

   2   rms: 0.1273E-01   max: 0.5186E-01   D at   68  1
       a = 14.750      CL =  1.5472
      Cm = -0.0430     CD =  0.07140   =>   CDf =  0.00544    CDp =  0.06596

 Side 1  free  transition at x/c =  0.0274   34
 Side 2 forced transition at x/c =  1.0000   62

   3   rms: 0.3039E-02   max: 0.1706E-01   D at   68  1
       a = 14.750      CL =  1.5450
      Cm = -0.0430     CD =  0.07139   =>   CDf =  0.00539    CDp =  0.06600

 Side 1  free  transition at x/c =  0.0274   34
 Side 2 forced transition at x/c =  1.0000   62

   4   rms: 0.3921E-03   max: 0.1882E-02   D at   77  2
       a = 14.750      CL =  1.5447
      Cm = -0.0430     CD =  0.07136   =>   CDf =  0.00539    CDp =  0.06597

 Side 1  free  transition at x/c =  0.0274   34
 Side 2 forced transition at x/c =  1.0000   62

   5   rms: 0.3687E-04   max: 0.1972E-03   D at   77  2
       a = 14.750      CL =  1.5447
      Cm = -0.0430     CD =  0.07136   =>   CDf =  0.00539    CDp =  0.06597
 plradd ia,ip,cpol           46           0  1.11675984E-03

 Point added to stored polar  1
 Point written to save file  usa35b_Re600k.base.pol                          
 Dump file unspecified or not available
 Calculating wake trajectory ...
 Calculating source influence matrix ...

 Solving BL system ...

 Side 1  free  transition at x/c =  0.0274   34
 Side 2 forced transition at x/c =  1.0000   62

   1   rms: 0.3040E-01   max: 0.1154E+00   D at   67  1   RLX: 0.570
       a = 15.000      CL =  1.5456
      Cm = -0.0435     CD =  0.07359   =>   CDf =  0.00539    CDp =  0.06820

 Side 1  free  transition at x/c =  0.0270   34
 Side 2 forced transition at x/c =  1.0000   62

   2   rms: 0.1339E-01   max: 0.5685E-01   D at   67  1
       a = 15.000      CL =  1.5442
      Cm = -0.0437     CD =  0.07514   =>   CDf =  0.00534    CDp =  0.06981

 Side 1  free  transition at x/c =  0.0268   34
 Side 2 forced transition at x/c =  1.0000   62

   3   rms: 0.2935E-02   max: 0.1499E-01   D at   67  1
       a = 15.000      CL =  1.5420
      Cm = -0.0436     CD =  0.07508   =>   CDf =  0.00530    CDp =  0.06978

 Side 1  free  transition at x/c =  0.0268   34
 Side 2 forced transition at x/c =  1.0000   62

   4   rms: 0.3584E-03   max: 0.2512E-02   D at   77  2
       a = 15.000      CL =  1.5417
      Cm = -0.0436     CD =  0.07505   =>   CDf =  0.00529    CDp =  0.06976

 Side 1  free  transition at x/c =  0.0268   34
 Side 2 forced transition at x/c =  1.0000   62

   5   rms: 0.3145E-04   max: 0.2101E-03   D at   77  2
       a = 15.000      CL =  1.5417
      Cm = -0.0436     CD =  0.07505   =>   CDf =  0.00529    CDp =  0.06975
 plradd ia,ip,cpol           47           0  1.11675984E-03

 Point added to stored polar  1
 Point written to save file  usa35b_Re600k.base.pol                          
 Dump file unspecified or not available
 Calculating wake trajectory ...
 Calculating source influence matrix ...

 Solving BL system ...

 Side 1  free  transition at x/c =  0.0268   34
 Side 2 forced transition at x/c =  1.0000   62

   1   rms: 0.3059E-01   max: 0.1236E+00   D at   66  1   RLX: 0.550
       a = 15.250      CL =  1.5418
      Cm = -0.0441     CD =  0.07741   =>   CDf =  0.00530    CDp =  0.07211

 Side 1  free  transition at x/c =  0.0264   34
 Side 2 forced transition at x/c =  1.0000   62

   2   rms: 0.1422E-01   max: 0.6248E-01   D at   66  1
       a = 15.250      CL =  1.5397
      Cm = -0.0444     CD =  0.07916   =>   CDf =  0.00525    CDp =  0.07391

 Side 1  free  transition at x/c =  0.0262   34
 Side 2 forced transition at x/c =  1.0000   62

   3   rms: 0.2926E-02   max: 0.1333E-01   D at   66  1
       a = 15.250      CL =  1.5374
      Cm = -0.0443     CD =  0.07902   =>   CDf =  0.00521    CDp =  0.07381

 Side 1  free  transition at x/c =  0.0262   34
 Side 2 forced transition at x/c =  1.0000   62

   4   rms: 0.3149E-03   max: 0.1509E-02   D at   77  2
       a = 15.250      CL =  1.5371
      Cm = -0.0443     CD =  0.07898   =>   CDf =  0.00520    CDp =  0.07378

 Side 1  free  transition at x/c =  0.0262   34
 Side 2 forced transition at x/c =  1.0000   62

   5   rms: 0.2864E-04   max: 0.1547E-03   D at   77  2
       a = 15.250      CL =  1.5371
      Cm = -0.0443     CD =  0.07898   =>   CDf =  0.00520    CDp =  0.07378
 plradd ia,ip,cpol           48           0  1.11675984E-03

 Point added to stored polar  1
 Point written to save file  usa35b_Re600k.base.pol                          
 Dump file unspecified or not available
 Calculating wake trajectory ...
 Calculating source influence matrix ...

 Solving BL system ...

 Side 1  free  transition at x/c =  0.0262   34
 Side 2 forced transition at x/c =  1.0000   62

   1   rms: 0.3059E-01   max: 0.1275E+00   D at   65  1   RLX: 0.530
       a = 15.500      CL =  1.5368
      Cm = -0.0449     CD =  0.08138   =>   CDf =  0.00520    CDp =  0.07618

 Side 1  free  transition at x/c =  0.0259   34
 Side 2 forced transition at x/c =  1.0000   62

   2   rms: 0.1487E-01   max: 0.6647E-01   D at   65  1
       a = 15.500      CL =  1.5345
      Cm = -0.0453     CD =  0.08333   =>   CDf =  0.00477    CDp =  0.07856

 Side 1  free  transition at x/c =  0.0256   35
 Side 2 forced transition at x/c =  1.0000   61

   3   rms: 0.5123E-02   max: -.7335E-01   D at    2  1
       a = 15.500      CL =  1.5322
      Cm = -0.0451     CD =  0.08312   =>   CDf =  0.00512    CDp =  0.07800

 Side 1  free  transition at x/c =  0.0257   35
 Side 2 forced transition at x/c =  1.0000   61

   4   rms: 0.6855E-03   max: -.8031E-02   D at    4  1
       a = 15.500      CL =  1.5319
      Cm = -0.0451     CD =  0.08308   =>   CDf =  0.00511    CDp =  0.07796

 Side 1  free  transition at x/c =  0.0257   35
 Side 2 forced transition at x/c =  1.0000   61

   5   rms: 0.2464E-04   max: 0.1337E-03   D at   76  2
       a = 15.500      CL =  1.5319
      Cm = -0.0451     CD =  0.08307   =>   CDf =  0.00511    CDp =  0.07796
 plradd ia,ip,cpol           49           0  5.26310760E-04

 Point added to stored polar  1
 Point written to save file  usa35b_Re600k.base.pol                          
 Dump file unspecified or not available
 Calculating wake trajectory ...
 Calculating source influence matrix ...

 Solving BL system ...

 Side 1  free  transition at x/c =  0.0257   35
 Side 2 forced transition at x/c =  1.0000   61

   1   rms: 0.3082E-01   max: 0.1314E+00   D at   65  1   RLX: 0.512
       a = 15.750      CL =  1.5313
      Cm = -0.0458     CD =  0.08551   =>   CDf =  0.00512    CDp =  0.08040

 Side 1  free  transition at x/c =  0.0254   35
 Side 2 forced transition at x/c =  1.0000   61

   2   rms: 0.1587E-01   max: 0.7335E-01   D at   65  1
       a = 15.750      CL =  1.5282
      Cm = -0.0463     CD =  0.08773   =>   CDf =  0.00508    CDp =  0.08265

 Side 1  free  transition at x/c =  0.0252   35
 Side 2 forced transition at x/c =  1.0000   61

   3   rms: 0.3041E-02   max: 0.1397E-01   D at   77  2
       a = 15.750      CL =  1.5258
      Cm = -0.0462     CD =  0.08746   =>   CDf =  0.00504    CDp =  0.08242

 Side 1  free  transition at x/c =  0.0252   35
 Side 2 forced transition at x/c =  1.0000   61

   4   rms: 0.3194E-03   max: 0.1799E-02   D at   77  2
       a = 15.750      CL =  1.5256
      Cm = -0.0461     CD =  0.08741   =>   CDf =  0.00503    CDp =  0.08238

 Side 1  free  transition at x/c =  0.0252   35
 Side 2 forced transition at x/c =  1.0000   61

   5   rms: 0.2881E-04   max: 0.1556E-03   D at   77  2
       a = 15.750      CL =  1.5255
      Cm = -0.0461     CD =  0.08741   =>   CDf =  0.00503    CDp =  0.08238
 plradd ia,ip,cpol           50           0  5.26310760E-04

 Point added to stored polar  1
 Point written to save file  usa35b_Re600k.base.pol                          
 Dump file unspecified or not available
 Calculating wake trajectory ...
 Calculating source influence matrix ...

 Solving BL system ...

 Side 1  free  transition at x/c =  0.0252   35
 Side 2 forced transition at x/c =  1.0000   61

   1   rms: 0.3109E-01   max: 0.1401E+00   D at   64  1   RLX: 0.493
       a = 16.000      CL =  1.5241
      Cm = -0.0469     CD =  0.08997   =>   CDf =  0.00504    CDp =  0.08494

 Side 1  free  transition at x/c =  0.0249   35
 Side 2 forced transition at x/c =  1.0000   61

   2   rms: 0.1755E-01   max: 0.8507E-01   D at   64  1
       a = 16.000      CL =  1.5195
      Cm = -0.0476     CD =  0.09263   =>   CDf =  0.00500    CDp =  0.08763

 Side 1  free  transition at x/c =  0.0247   35
 Side 2 forced transition at x/c =  1.0000   61

   3   rms: 0.3230E-02   max: 0.1661E-01   D at   77  2
       a = 16.000      CL =  1.5169
      Cm = -0.0474     CD =  0.09222   =>   CDf =  0.00496    CDp =  0.08725

 Side 1  free  transition at x/c =  0.0248   35
 Side 2 forced transition at x/c =  1.0000   61

   4   rms: 0.3383E-03   max: 0.3620E-02   D at   77  2
       a = 16.000      CL =  1.5167
      Cm = -0.0473     CD =  0.09216   =>   CDf =  0.00496    CDp =  0.08720

 Side 1  free  transition at x/c =  0.0248   35
 Side 2 forced transition at x/c =  1.0000   61

   5   rms: 0.2057E-04   max: 0.2003E-03   D at   77  2
       a = 16.000      CL =  1.5167
      Cm = -0.0473     CD =  0.09215   =>   CDf =  0.00496    CDp =  0.08720
 plradd ia,ip,cpol           51           0  5.26310760E-04

 Point added to stored polar  1
 Point written to save file  usa35b_Re600k.base.pol                          
 Dump file unspecified or not available

.OPERva   c>  
 Polar accumulation disabled

.OPERv   c>  
 XFOIL   c>  
 XFOIL   c>  