
 ===================================================
  XFOIL Version 6.99
  Copyright (C) 2000   Mark Drela, Harold Youngren

  This software comes with ABSOLUTELY NO WARRANTY,
    subject to the GNU General Public License.

  Caveat computor
 ===================================================

 File  xfoil.def  not found

   QUIT    Exit program

  .OPER    Direct operating point(s)
  .MDES    Complex mapping design routine
  .QDES    Surface speed design routine
  .GDES    Geometry design routine

   SAVE f  Write airfoil to labeled coordinate file
   PSAV f  Write airfoil to plain coordinate file
   ISAV f  Write airfoil to ISES coordinate file
   MSAV f  Write airfoil to MSES coordinate file
   REVE    Reverse written-airfoil node ordering

   LOAD f  Read buffer airfoil from coordinate file
   NACA i  Set NACA 4,5-digit airfoil and buffer airfoil
   INTE    Set buffer airfoil by interpolating two airfoils
   NORM    Buffer airfoil normalization toggle
   XYCM rr Change CM reference location, currently  0.25000 0.00000

   BEND    Display structural properties of current airfoil

   PCOP    Set current-airfoil panel nodes directly from buffer airfoil points
   PANE    Set current-airfoil panel nodes ( 160 ) based on curvature
  .PPAR    Show/change paneling

  .PLOP    Plotting options

   WDEF f  Write  current-settings file
   RDEF f  Reread current-settings file
   NAME s  Specify new airfoil name
   NINC    Increment name version number

   Z       Zoom    | (available in all menus)
   U       Unzoom  | 

 XFOIL   c>  
 Labeled airfoil file.  Name:  USA 41 AIRFOIL                                  

 Number of input coordinate points:  33
 Counterclockwise ordering
 Max thickness =     0.066000  at x =   0.300
 Max camber    =     0.044119  at x =   0.400

  LE  x,y  =  -0.00016   0.00124  |   Chord =   1.00016
  TE  x,y  =   1.00000   0.00000  |

 Current airfoil nodes set from buffer airfoil nodes (  33 )

 WARNING: Poor input coordinate distribution
          Excessive panel angle   84.9  at i =  17
          Repaneling with PANE and/or PPAR suggested
           (doing GDES,CADD before repaneling _may_
            improve excessively coarse LE spacing

 XFOIL   c>  
 XFOIL   c>  
 Sharp trailing edge

 Paneling parameters used...
   Number of panel nodes       160
   Panel bunching parameter    1.000
   TE/LE panel density ratio   0.150
   Refined-area/LE panel density ratio    0.200
   Top    side refined area x/c limits  1.000 1.000
   Bottom side refined area x/c limits  1.000 1.000

 XFOIL   c>  
.OPERi   c>  
 Xtr/c     =  1.0000    top    side
 Xtr/c     =  1.0000    bottom side
 Ncrit     =    9.00   ( 0.070 % turb. level )
 Vacc      =  0.0100

 Klag  =  5.6000     Uxwt  =    1.00
 A     =  6.7000     B     =  0.7500       KCt = 0.01485
 CtiniK=  1.8000     CtiniX=  3.3000

..VPAR   c>  
..VPAR   c>  
.OPERi   c>  
 M  =    0.0000
 Re =    600000

.OPERv   c>  
.OPERv   c>  
.OPERv   c>  
 Polar  1 newly created for accumulation
 Airfoil archived with polar: USA 41 AIRFOIL                                  

Enter  polar save filename  OR  <return> for no file   s>  
 New polar save file available

Enter  polar dump filename  OR  <return> for no file   s>  
 Polar dump file will NOT be written

 Polar accumulation enabled

.OPERva   c>   Calculating unit vorticity distributions ...
 Calculating wake trajectory ...
 Calculating source influence matrix ...

 Solving BL system ...

 Initializing BL ...
    side            1  ...
 MRCHUE: Inverse mode at  61     Hk =   4.198
 MRCHUE: Inverse mode at  62     Hk =   4.732
 MRCHUE: Inverse mode at  63     Hk =   5.255
 MRCHUE: Inverse mode at  64     Hk =   5.770
 MRCHUE: Inverse mode at  65     Hk =   6.279
 MRCHUE: Inverse mode at  66     Hk =   6.787
 MRCHUE: Inverse mode at  67     Hk =   7.297
 MRCHUE: Inverse mode at  68     Hk =   6.371
 MRCHUE: Inverse mode at  69     Hk =   4.261
 MRCHUE: Inverse mode at  70     Hk =   2.821
    side            2  ...
 MRCHUE: Inverse mode at  16     Hk =   4.805
 MRCHUE: Convergence failed at  17  side 2    Res =  0.7258E+01
 MRCHUE: Convergence failed at  18  side 2    Res =  0.2180E+01
 MRCHUE: Inverse mode at  19     Hk =   4.700
 MRCHUE: Inverse mode at  20     Hk =   2.500

 MRCHDU: Convergence failed at  17  side 2    Res =  0.5870E+01
 MRCHDU: Convergence failed at  18  side 2    Res =  0.5865E+01
 MRCHDU: Convergence failed at  19  side 2    Res =  0.1964E+03
 MRCHDU: Convergence failed at  20  side 2    Res =  0.1904E+02
 MRCHDU: Convergence failed at  21  side 2    Res =  0.8490E+01
 MRCHDU: Convergence failed at  22  side 2    Res =  0.6563E+01
 MRCHDU: Convergence failed at  23  side 2    Res =  0.3836E+02
 MRCHDU: Convergence failed at  24  side 2    Res =  0.1697E+02
 MRCHDU: Convergence failed at  25  side 2    Res =  0.2333E+02
 MRCHDU: Convergence failed at  26  side 2    Res =  0.2449E+02
 MRCHDU: Convergence failed at  27  side 2    Res =  0.3037E+02
 MRCHDU: Convergence failed at  28  side 2    Res =  0.3186E+02
 MRCHDU: Convergence failed at  29  side 2    Res =  0.1589E+03
 MRCHDU: Convergence failed at  30  side 2    Res =  0.6574E+02
 MRCHDU: Convergence failed at  31  side 2    Res =  0.4503E+02
 MRCHDU: Convergence failed at  32  side 2    Res =  0.1572E+03
 MRCHDU: Convergence failed at  33  side 2    Res =  0.1919E+03
 MRCHDU: Convergence failed at  34  side 2    Res =  0.4493E+02
 MRCHDU: Convergence failed at  35  side 2    Res =  0.4113E+02
 MRCHDU: Convergence failed at  36  side 2    Res =  0.3887E+02
 MRCHDU: Convergence failed at  37  side 2    Res =  0.2669E+02
 MRCHDU: Convergence failed at  38  side 2    Res =  0.4028E+02
 MRCHDU: Convergence failed at  39  side 2    Res =  0.4378E+02
 MRCHDU: Convergence failed at  40  side 2    Res =  0.4848E+02
 MRCHDU: Convergence failed at  41  side 2    Res =  0.5494E+02
 MRCHDU: Convergence failed at  42  side 2    Res =  0.6291E+02
 MRCHDU: Convergence failed at  43  side 2    Res =  0.7326E+02
 MRCHDU: Convergence failed at  44  side 2    Res =  0.8358E+02
 MRCHDU: Convergence failed at  45  side 2    Res =  0.9568E+02
 MRCHDU: Convergence failed at  46  side 2    Res =  0.1061E+03
 MRCHDU: Convergence failed at  47  side 2    Res =  0.1228E+03
 MRCHDU: Convergence failed at  48  side 2    Res =  0.1393E+03
 MRCHDU: Convergence failed at  49  side 2    Res =  0.1664E+03
 MRCHDU: Convergence failed at  50  side 2    Res =  0.2145E+03
 MRCHDU: Convergence failed at  51  side 2    Res =  0.2015E+02
 MRCHDU: Convergence failed at  52  side 2    Res =  0.2082E+02
 MRCHDU: Convergence failed at  53  side 2    Res =  0.7158E+03
 MRCHDU: Convergence failed at  54  side 2    Res =  0.2816E+03
 MRCHDU: Convergence failed at  55  side 2    Res =  0.1801E+03
 MRCHDU: Convergence failed at  56  side 2    Res =  0.1377E+03
 MRCHDU: Convergence failed at  57  side 2    Res =  0.1154E+03
 MRCHDU: Convergence failed at  58  side 2    Res =  0.1074E+03
 MRCHDU: Convergence failed at  59  side 2    Res =  0.1027E+03
 MRCHDU: Convergence failed at  60  side 2    Res =  0.1023E+03
 MRCHDU: Convergence failed at  61  side 2    Res =  0.1013E+03
 MRCHDU: Convergence failed at  62  side 2    Res =  0.1046E+03
 MRCHDU: Convergence failed at  63  side 2    Res =  0.1063E+03
 MRCHDU: Convergence failed at  64  side 2    Res =  0.1090E+03
 MRCHDU: Convergence failed at  65  side 2    Res =  0.1103E+03
 MRCHDU: Convergence failed at  66  side 2    Res =  0.1115E+03
 MRCHDU: Convergence failed at  67  side 2    Res =  0.1132E+03
 MRCHDU: Convergence failed at  68  side 2    Res =  0.1134E+03
 MRCHDU: Convergence failed at  69  side 2    Res =  0.1147E+03
 MRCHDU: Convergence failed at  70  side 2    Res =  0.1162E+03
 MRCHDU: Convergence failed at  71  side 2    Res =  0.1163E+03
 MRCHDU: Convergence failed at  72  side 2    Res =  0.1189E+03
 MRCHDU: Convergence failed at  73  side 2    Res =  0.1186E+03
 MRCHDU: Convergence failed at  74  side 2    Res =  0.1237E+03
 MRCHDU: Convergence failed at  75  side 2    Res =  0.1348E+03
 MRCHDU: Convergence failed at  76  side 2    Res =  0.1480E+03
 MRCHDU: Convergence failed at  77  side 2    Res =  0.1921E+03
 MRCHDU: Convergence failed at  78  side 2    Res =  0.4195E+03
 MRCHDU: Convergence failed at  79  side 2    Res =  0.2207E+02
 MRCHDU: Convergence failed at  80  side 2    Res =  0.5007E+03
 MRCHDU: Convergence failed at  81  side 2    Res =  0.4498E+03
 MRCHDU: Convergence failed at  82  side 2    Res =  0.2155E+04
 MRCHDU: Convergence failed at  83  side 2    Res =  0.1407E+03
 MRCHDU: Convergence failed at  84  side 2    Res =  0.6744E+02
 MRCHDU: Convergence failed at  85  side 2    Res =  0.8991E+02
 MRCHDU: Convergence failed at  86  side 2    Res =  0.5253E+02
 Side 1  free  transition at x/c =  0.9032   68
 Side 2  free  transition at x/c =  0.0494   19

   1   rms: 0.2688E+01   max: 0.4472E+02   D at    2  1   RLX: 0.034
       a = -4.000      CL = -2.3742
      Cm =  0.5774     CD =  0.00384   =>   CDf =  0.00187    CDp =  0.00197

 Side 1  free  transition at x/c =  0.9041   68
 Side 2  free  transition at x/c =  0.0833   22

   2   rms: 0.8301E+01   max: 0.2040E+03   C at   22  2   RLX: 0.007
       a = -4.000      CL = -2.3022
      Cm =  0.5637     CD =  0.00549   =>   CDf =  0.01495    CDp = -0.00945

 Side 1  free  transition at x/c =  0.9043   68
 Side 2  free  transition at x/c =  0.0510   19

   3   rms: 0.3339E+01   max: 0.8016E+02   C at   19  2   RLX: 0.019
       a = -4.000      CL = -2.2448
      Cm =  0.5472     CD =  0.00553   =>   CDf =  0.01508    CDp = -0.00956

 Side 1  free  transition at x/c =  0.9047   68
 Side 2  free  transition at x/c =  0.0475   19

   4   rms: 0.2214E+01   max: 0.4803E+02   C at   19  2   RLX: 0.031
       a = -4.000      CL = -2.1525
      Cm =  0.5202     CD =  0.00556   =>   CDf =  0.01497    CDp = -0.00940

 Side 1  free  transition at x/c =  0.9053   68
 Side 2  free  transition at x/c =  0.0430   19

   5   rms: 0.1102E+01   max: 0.4705E+01   C at   19  2   RLX: 0.227
       a = -4.000      CL = -1.5391
      Cm =  0.3420     CD =  0.00574   =>   CDf =  0.01464    CDp = -0.00890

 Side 1  free  transition at x/c =  0.9098   69
 Side 2  free  transition at x/c =  0.0379   18

   6   rms: 0.8416E+00   max: -.6969E+00   U at   86  2   RLX: 0.315
       a = -4.000      CL = -0.9561
      Cm =  0.1752     CD =  0.00621   =>   CDf =  0.01187    CDp = -0.00566

 Side 1  free  transition at x/c =  0.9145   69
 Side 2  free  transition at x/c =  0.0366   18

   7   rms: 0.6293E+00   max: -.4758E+00   U at   86  2   RLX: 0.493
       a = -4.000      CL = -0.4120
      Cm =  0.0211     CD =  0.00756   =>   CDf =  0.00945    CDp = -0.00189

 Side 1  free  transition at x/c =  0.9221   69
 Side 2  free  transition at x/c =  0.0352   18

   8   rms: 0.3866E+00   max: 0.4070E+00   D at  101  2
       a = -4.000      CL =  0.0694
      Cm = -0.1108     CD =  0.01150   =>   CDf =  0.00715    CDp =  0.00435

 Side 1  free  transition at x/c =  0.9386   71
 Side 2  free  transition at x/c =  0.0347   18

   9   rms: 0.2356E+00   max: 0.9491E+00   D at   18  2
       a = -4.000      CL =  0.0716
      Cm = -0.1105     CD =  0.01724   =>   CDf =  0.00461    CDp =  0.01263

 Side 1  free  transition at x/c =  0.9348   70
 Side 2  free  transition at x/c =  0.0359   18

  10   rms: 0.7944E-01   max: 0.2909E+00   D at   22  2
       a = -4.000      CL =  0.0642
      Cm = -0.1091     CD =  0.01701   =>   CDf =  0.00433    CDp =  0.01268

 Side 1  free  transition at x/c =  0.9304   70
 Side 2  free  transition at x/c =  0.0347   18

  11   rms: 0.1767E-01   max: -.7862E-01   D at   31  2
       a = -4.000      CL =  0.0651
      Cm = -0.1091     CD =  0.01710   =>   CDf =  0.00390    CDp =  0.01320

 Side 1  free  transition at x/c =  0.9312   70
 Side 2  free  transition at x/c =  0.0346   18

  12   rms: 0.3254E-03   max: -.2742E-02   D at   31  2
       a = -4.000      CL =  0.0650
      Cm = -0.1091     CD =  0.01712   =>   CDf =  0.00397    CDp =  0.01315

 Side 1  free  transition at x/c =  0.9312   70
 Side 2  free  transition at x/c =  0.0346   18

  13   rms: 0.3263E-05   max: 0.1304E-04   D at   21  2
       a = -4.000      CL =  0.0650
      Cm = -0.1091     CD =  0.01712   =>   CDf =  0.00397    CDp =  0.01315
 plradd ia,ip,cpol            1           0  1.51724496E-03

 Point added to stored polar  1
 Point written to save file  usa41_Re600k.base.pol                           
 Dump file unspecified or not available
 Calculating wake trajectory ...
 Calculating source influence matrix ...

 Solving BL system ...

 Side 1  free  transition at x/c =  0.9312   70
 Side 2  free  transition at x/c =  0.0346   18

   1   rms: 0.1235E+00   max: -.1311E+01   T at   18  2   RLX: 0.381
       a = -3.500      CL =  0.0872
      Cm = -0.1094     CD =  0.01636   =>   CDf =  0.00397    CDp =  0.01238

 Side 1  free  transition at x/c =  0.9241   70
 Side 2  free  transition at x/c =  0.0384   18

   2   rms: 0.2958E+00   max: -.8001E+00   D at   35  2   RLX: 0.625
       a = -3.500      CL =  0.1093
      Cm = -0.1104     CD =  0.01606   =>   CDf =  0.00361    CDp =  0.01246

 Side 1  free  transition at x/c =  0.9184   69
 Side 2  free  transition at x/c =  0.0385   18

   3   rms: 0.1257E+00   max: -.4009E+00   D at   32  2
       a = -3.500      CL =  0.1196
      Cm = -0.1089     CD =  0.01380   =>   CDf =  0.00420    CDp =  0.00961

 Side 1  free  transition at x/c =  0.9111   69
 Side 2  free  transition at x/c =  0.0382   18

   4   rms: 0.1181E+00   max: -.8163E+00   T at   18  2   RLX: 0.613
       a = -3.500      CL =  0.1227
      Cm = -0.1089     CD =  0.01632   =>   CDf =  0.00462    CDp =  0.01170

 Side 1  free  transition at x/c =  0.9122   70
 Side 2  free  transition at x/c =  0.0431   18
 idif Ue xi dudx           1  0.20637426      2.36284733E-03   87.341339    
 Uenew xinew           2  1.56074362E-02  1.78694725E-04

   5   rms: 0.2173E+00   max: 0.1255E+01   D at    2  1   RLX: 0.838
       a = -3.500      CL =  0.1203
      Cm = -0.1091     CD =  0.01267   =>   CDf =  0.00519    CDp =  0.00748

 Side 1  free  transition at x/c =  0.9126   69
 Side 2  free  transition at x/c =  0.0419   19

   6   rms: 0.1791E+00   max: 0.2459E+01   T at   19  2   RLX: 0.445
       a = -3.500      CL =  0.1210
      Cm = -0.1087     CD =  0.01262   =>   CDf =  0.00479    CDp =  0.00782

 MRCHDU: Convergence failed at  19  side 2    Res =  0.4065E+02
 MRCHDU: Convergence failed at  20  side 2    Res =  0.4666E+02
 MRCHDU: Convergence failed at  21  side 2    Res =  0.1302E+03
 MRCHDU: Convergence failed at  22  side 2    Res =  0.1372E+03
 MRCHDU: Convergence failed at  23  side 2    Res =  0.7100E+02
 MRCHDU: Convergence failed at  24  side 2    Res =  0.3031E+03
 MRCHDU: Convergence failed at  25  side 2    Res =  0.2741E+03
 MRCHDU: Convergence failed at  26  side 2    Res =  0.2141E+04
 MRCHDU: Convergence failed at  27  side 2    Res =  0.4089E+03
 MRCHDU: Convergence failed at  28  side 2    Res =  0.9222E+02
 MRCHDU: Convergence failed at  29  side 2    Res =  0.8137E+02
 MRCHDU: Convergence failed at  30  side 2    Res =  0.9309E+02
 MRCHDU: Convergence failed at  31  side 2    Res =  0.7524E+02
 MRCHDU: Convergence failed at  32  side 2    Res =  0.7733E+02
 MRCHDU: Convergence failed at  33  side 2    Res =  0.5234E+02
 MRCHDU: Convergence failed at  34  side 2    Res =  0.1196E+03
 MRCHDU: Convergence failed at  35  side 2    Res =  0.1252E+03
 MRCHDU: Convergence failed at  36  side 2    Res =  0.1286E+03
 MRCHDU: Convergence failed at  37  side 2    Res =  0.1274E+03
 MRCHDU: Convergence failed at  38  side 2    Res =  0.9976E+03
 MRCHDU: Convergence failed at  39  side 2    Res =  0.6590E+02
 MRCHDU: Convergence failed at  40  side 2    Res =  0.5001E+02
 MRCHDU: Convergence failed at  41  side 2    Res =  0.5227E+02
 MRCHDU: Convergence failed at  42  side 2    Res =  0.5467E+02
 MRCHDU: Convergence failed at  43  side 2    Res =  0.5716E+02
 MRCHDU: Convergence failed at  44  side 2    Res =  0.5983E+02
 MRCHDU: Convergence failed at  45  side 2    Res =  0.6267E+02
 MRCHDU: Convergence failed at  46  side 2    Res =  0.6585E+02
 MRCHDU: Convergence failed at  47  side 2    Res =  0.9142E+02
 MRCHDU: Convergence failed at  48  side 2    Res =  0.8956E+02
 MRCHDU: Convergence failed at  49  side 2    Res =  0.5223E+02
 MRCHDU: Convergence failed at  50  side 2    Res =  0.5335E+02
 MRCHDU: Convergence failed at  51  side 2    Res =  0.6031E+02
 MRCHDU: Convergence failed at  52  side 2    Res =  0.6237E+02
 MRCHDU: Convergence failed at  53  side 2    Res =  0.9702E+02
 MRCHDU: Convergence failed at  54  side 2    Res =  0.9327E+02
 MRCHDU: Convergence failed at  55  side 2    Res =  0.9004E+02
 MRCHDU: Convergence failed at  56  side 2    Res =  0.8749E+02
 MRCHDU: Convergence failed at  57  side 2    Res =  0.8568E+02
 MRCHDU: Convergence failed at  58  side 2    Res =  0.5521E+02
 MRCHDU: Convergence failed at  59  side 2    Res =  0.5559E+02
 MRCHDU: Convergence failed at  60  side 2    Res =  0.5568E+02
 MRCHDU: Convergence failed at  61  side 2    Res =  0.5563E+02
 MRCHDU: Convergence failed at  62  side 2    Res =  0.5537E+02
 MRCHDU: Convergence failed at  63  side 2    Res =  0.8608E+02
 MRCHDU: Convergence failed at  64  side 2    Res =  0.1568E+03
 MRCHDU: Convergence failed at  65  side 2    Res =  0.1587E+03
 MRCHDU: Convergence failed at  66  side 2    Res =  0.1607E+03
 MRCHDU: Convergence failed at  67  side 2    Res =  0.1624E+03
 MRCHDU: Convergence failed at  68  side 2    Res =  0.1631E+03
 MRCHDU: Convergence failed at  69  side 2    Res =  0.1627E+03
 MRCHDU: Convergence failed at  70  side 2    Res =  0.1622E+03
 MRCHDU: Convergence failed at  71  side 2    Res =  0.1610E+03
 MRCHDU: Convergence failed at  72  side 2    Res =  0.1597E+03
 MRCHDU: Convergence failed at  73  side 2    Res =  0.1582E+03
 MRCHDU: Convergence failed at  74  side 2    Res =  0.1577E+03
 MRCHDU: Convergence failed at  75  side 2    Res =  0.1588E+03
 MRCHDU: Convergence failed at  76  side 2    Res =  0.1614E+03
 MRCHDU: Convergence failed at  77  side 2    Res =  0.1679E+03
 MRCHDU: Convergence failed at  78  side 2    Res =  0.1080E+03
 MRCHDU: Convergence failed at  79  side 2    Res =  0.1108E+03
 MRCHDU: Convergence failed at  80  side 2    Res =  0.1127E+03
 MRCHDU: Convergence failed at  81  side 2    Res =  0.6676E+02
 MRCHDU: Convergence failed at  82  side 2    Res =  0.1488E+03
 MRCHDU: Convergence failed at  83  side 2    Res =  0.9014E+02
 MRCHDU: Convergence failed at  84  side 2    Res =  0.7028E+02
 MRCHDU: Convergence failed at  85  side 2    Res =  0.6793E+02
 MRCHDU: Convergence failed at  86  side 2    Res =  0.1666E+03
 Side 1  free  transition at x/c =  0.9128   69
 Side 2  free  transition at x/c =  0.0385   18

   7   rms: 0.1517E+01   max: 0.1140E+02   D at   88  2   RLX: 0.074
       a = -3.500      CL = -1.3010
      Cm =  0.3159     CD =  0.00413   =>   CDf =  0.00182    CDp =  0.00231

 Side 1  free  transition at x/c =  0.9175   69
 Side 2  free  transition at x/c =  0.0377   18

   8   rms: 0.9353E+00   max: -.6807E+01   C at   69  1   RLX: 0.073
       a = -3.500      CL = -0.8430
      Cm =  0.1676     CD =  0.05772   =>   CDf =  0.00214    CDp =  0.05558

 Side 1  free  transition at x/c =  0.9466   71
 Side 2  free  transition at x/c =  0.0376   18

   9   rms: 0.1060E+01   max: -.7810E+01   C at   71  1   RLX: 0.064
       a = -3.500      CL = -0.8592
      Cm =  0.1696     CD =  0.06955   =>   CDf =  0.00210    CDp =  0.06745

 Side 1  free  transition at x/c =  0.9568   72
 Side 2  free  transition at x/c =  0.0374   18

  10   rms: 0.7056E+00   max: 0.3784E+01   D at   75  1   RLX: 0.234
       a = -3.500      CL = -0.8794
      Cm =  0.1696     CD =  0.07455   =>   CDf =  0.00205    CDp =  0.07250

 MRCHDU: Convergence failed at  98  side 2    Res =  0.1255E+01
 MRCHDU: Convergence failed at  99  side 2    Res =  0.3768E+01
 MRCHDU: Convergence failed at 100  side 2    Res =  0.4425E+01
 MRCHDU: Convergence failed at 101  side 2    Res =  0.1893E+01
 Side 1  free  transition at x/c =  0.9750   73
 Side 2  free  transition at x/c =  0.0283   17

  11   rms: 0.5966E+00   max: -.1941E+01   C at  101  2   RLX: 0.258
       a = -3.500      CL = -0.7430
      Cm =  0.1412     CD =  0.07834   =>   CDf =  0.00199    CDp =  0.07635

 Side 1  free  transition at x/c =  0.9925   75
 Side 2  free  transition at x/c =  0.0284   17

  12   rms: 0.5201E+00   max: -.1931E+01   C at  102  2   RLX: 0.259
       a = -3.500      CL = -0.5922
      Cm =  0.1013     CD =  0.10377   =>   CDf =  0.00203    CDp =  0.10174

 Side 1 forced transition at x/c =  1.0000   76
 Side 2  free  transition at x/c =  0.0284   17

  13   rms: 0.1042E+01   max: -.6995E+01   D at   73  1   RLX: 0.071
       a = -3.500      CL = -0.5338
      Cm =  0.0833     CD =  0.15762   =>   CDf =  0.00205    CDp =  0.15556

 Side 1 forced transition at x/c =  1.0000   76
 Side 2  free  transition at x/c =  0.0284   17

  14   rms: 0.5088E+00   max: -.1831E+01   D at  107  2   RLX: 0.273
       a = -3.500      CL = -0.4550
      Cm =  0.0564     CD =  0.11448   =>   CDf =  0.00222    CDp =  0.11226

 MRCHDU: Convergence failed at  98  side 2    Res =  0.2523E+01
 MRCHDU: Convergence failed at  99  side 2    Res =  0.9988E+00
 MRCHDU: Convergence failed at 100  side 2    Res =  0.1413E+01
 MRCHDU: Convergence failed at 101  side 2    Res =  0.2115E+01
 MRCHDU: Convergence failed at 102  side 2    Res =  0.3382E+01
 MRCHDU: Convergence failed at 103  side 2    Res =  0.4536E+01
 MRCHDU: Convergence failed at 104  side 2    Res =  0.5010E+01
 MRCHDU: Convergence failed at 105  side 2    Res =  0.1267E+02
 MRCHDU: Convergence failed at 106  side 2    Res =  0.2233E+01
 MRCHDU: Convergence failed at 108  side 2    Res =  0.2289E+02
 Side 1 forced transition at x/c =  1.0000   76
 Side 2  free  transition at x/c =  0.0284   17

  15   rms: 0.4301E+00   max: -.1368E+01   D at  105  2   RLX: 0.366
       a = -3.500      CL = -0.3308
      Cm =  0.0216     CD =  0.09334   =>   CDf =  0.00235    CDp =  0.09098

 MRCHDU: Convergence failed at  97  side 2    Res =  0.1011E+01
 MRCHDU: Convergence failed at  98  side 2    Res =  0.1441E+01
 Side 1 forced transition at x/c =  1.0000   76
 Side 2  free  transition at x/c =  0.0285   17

  16   rms: 0.3961E+00   max: -.1815E+01   D at  106  2   RLX: 0.275
       a = -3.500      CL = -0.2513
      Cm = -0.0065     CD =  0.10811   =>   CDf =  0.00235    CDp =  0.10577

 Side 1 forced transition at x/c =  1.0000   76
 Side 2  free  transition at x/c =  0.0285   17

  17   rms: 0.3866E+00   max: -.1949E+01   D at  106  2   RLX: 0.257
       a = -3.500      CL = -0.2276
      Cm = -0.0188     CD =  0.10524   =>   CDf =  0.00231    CDp =  0.10293

 Side 1 forced transition at x/c =  1.0000   76
 Side 2  free  transition at x/c =  0.0284   17

  18   rms: 0.4073E+00   max: -.2212E+01   D at  106  2   RLX: 0.226
       a = -3.500      CL = -0.2308
      Cm = -0.0245     CD =  0.10400   =>   CDf =  0.00229    CDp =  0.10170

 Side 1 forced transition at x/c =  1.0000   76
 Side 2  free  transition at x/c =  0.0284   17

  19   rms: 0.4313E+00   max: -.2488E+01   D at  105  2   RLX: 0.201
       a = -3.500      CL = -0.2424
      Cm = -0.0279     CD =  0.09901   =>   CDf =  0.00228    CDp =  0.09673

 Side 1 forced transition at x/c =  1.0000   76
 Side 2  free  transition at x/c =  0.0283   17

  20   rms: 0.4307E+00   max: -.2614E+01   D at  105  2   RLX: 0.191
       a = -3.500      CL = -0.2447
      Cm = -0.0331     CD =  0.08917   =>   CDf =  0.00227    CDp =  0.08690

 Side 1 forced transition at x/c =  1.0000   76
 Side 2  free  transition at x/c =  0.0282   17

  21   rms: 0.4340E+00   max: -.2573E+01   D at  105  2   RLX: 0.194
       a = -3.500      CL = -0.2360
      Cm = -0.0401     CD =  0.07709   =>   CDf =  0.00224    CDp =  0.07485

 Side 1 forced transition at x/c =  1.0000   76
 Side 2  free  transition at x/c =  0.0281   17

  22   rms: 0.4027E+00   max: -.2024E+01   D at  100  2   RLX: 0.247
       a = -3.500      CL = -0.2103
      Cm = -0.0486     CD =  0.06036   =>   CDf =  0.00219    CDp =  0.05818

 MRCHDU: Convergence failed at 105  side 2    Res =  0.1301E+00
 MRCHDU: Convergence failed at 106  side 2    Res =  0.1443E+00
 MRCHDU: Convergence failed at 108  side 2    Res =  0.1228E+01
 Side 1 forced transition at x/c =  1.0000   76
 Side 2  free  transition at x/c =  0.0281   17

  23   rms: 0.5562E+00   max: -.3298E+01   D at  107  2   RLX: 0.152
       a = -3.500      CL = -0.2122
      Cm = -0.0554     CD =  0.06000   =>   CDf =  0.00208    CDp =  0.05792

 Side 1 forced transition at x/c =  1.0000   76
 Side 2  free  transition at x/c =  0.0269   17
 idif Ue xi dudx           1  0.18337329      2.76732445E-03   66.263748    
 Uenew xinew           2  2.66204868E-03  4.01735306E-05

  24   rms: 0.5515E+00   max: 0.2948E+01   D at   74  1   RLX: 0.176
       a = -3.500      CL = -0.1974
      Cm = -0.0678     CD =  0.05333   =>   CDf =  0.00199    CDp =  0.05134

 Side 1 forced transition at x/c =  1.0000   75
 Side 2  free  transition at x/c =  0.0233   18

  25   rms: 0.1765E+01   max: 0.2745E+02   T at    2  2   RLX: 0.038
       a = -3.500      CL = -0.2313
      Cm = -0.0635     CD =  0.05753   =>   CDf =  0.00193    CDp =  0.05559

 Side 1 forced transition at x/c =  1.0000   75
 Side 2  free  transition at x/c =  0.0227   18

  26   rms: 0.1100E+01   max: 0.6479E+01   D at   71  1   RLX: 0.186
       a = -3.500      CL = -0.3024
      Cm = -0.0578     CD =  0.04616   =>   CDf =  0.00190    CDp =  0.04426

 MRCHDU: Convergence failed at  42  side 2    Res =  0.9146E+00
 MRCHDU: Convergence failed at  43  side 2    Res =  0.1046E+01
 MRCHDU: Convergence failed at  44  side 2    Res =  0.3104E+01
 MRCHDU: Convergence failed at  45  side 2    Res =  0.2770E+03
 MRCHDU: Convergence failed at  46  side 2    Res =  0.2755E+01
 MRCHDU: Convergence failed at  47  side 2    Res =  0.1632E+01
 MRCHDU: Convergence failed at  48  side 2    Res =  0.1588E+01
 MRCHDU: Convergence failed at  49  side 2    Res =  0.1636E+01
 MRCHDU: Convergence failed at  50  side 2    Res =  0.1901E+01
 MRCHDU: Convergence failed at  51  side 2    Res =  0.2993E+01
 MRCHDU: Convergence failed at  52  side 2    Res =  0.3977E+01
 MRCHDU: Convergence failed at  53  side 2    Res =  0.5361E+01
 MRCHDU: Convergence failed at  54  side 2    Res =  0.7577E+01
 MRCHDU: Convergence failed at  55  side 2    Res =  0.1166E+02
 MRCHDU: Convergence failed at  56  side 2    Res =  0.1992E+02
 MRCHDU: Convergence failed at  57  side 2    Res =  0.7980E+02
 MRCHDU: Convergence failed at  58  side 2    Res =  0.1087E+02
 MRCHDU: Convergence failed at  59  side 2    Res =  0.8881E+01
 MRCHDU: Convergence failed at  60  side 2    Res =  0.6907E+01
 MRCHDU: Convergence failed at  61  side 2    Res =  0.6169E+01
 MRCHDU: Convergence failed at  62  side 2    Res =  0.5379E+01
 MRCHDU: Convergence failed at  63  side 2    Res =  0.4106E+01
 MRCHDU: Convergence failed at  64  side 2    Res =  0.4044E+01
 MRCHDU: Convergence failed at  65  side 2    Res =  0.3891E+01
 MRCHDU: Convergence failed at  66  side 2    Res =  0.4173E+01
 MRCHDU: Convergence failed at  67  side 2    Res =  0.4304E+01
 MRCHDU: Convergence failed at  68  side 2    Res =  0.4434E+01
 MRCHDU: Convergence failed at  69  side 2    Res =  0.4567E+01
 MRCHDU: Convergence failed at  70  side 2    Res =  0.4706E+01
 MRCHDU: Convergence failed at  71  side 2    Res =  0.4842E+01
 MRCHDU: Convergence failed at  72  side 2    Res =  0.5125E+01
 MRCHDU: Convergence failed at  73  side 2    Res =  0.7123E+01
 MRCHDU: Convergence failed at  74  side 2    Res =  0.1048E+02
 MRCHDU: Convergence failed at  75  side 2    Res =  0.1412E+02
 MRCHDU: Convergence failed at  76  side 2    Res =  0.2524E+02
 MRCHDU: Convergence failed at  77  side 2    Res =  0.1353E+02
 MRCHDU: Convergence failed at  78  side 2    Res =  0.7177E+01
 MRCHDU: Convergence failed at  79  side 2    Res =  0.6014E+01
 MRCHDU: Convergence failed at  80  side 2    Res =  0.3453E+01
 MRCHDU: Convergence failed at  81  side 2    Res =  0.4028E+01
 MRCHDU: Convergence failed at  82  side 2    Res =  0.4232E+01
 MRCHDU: Convergence failed at  83  side 2    Res =  0.5486E+01
 MRCHDU: Convergence failed at  84  side 2    Res =  0.5438E+01
 MRCHDU: Convergence failed at  85  side 2    Res =  0.5681E+01
 MRCHDU: Convergence failed at  86  side 2    Res =  0.7864E+01
 MRCHDU: Convergence failed at  87  side 2    Res =  0.2900E+03
 Side 1  free  transition at x/c =  0.9277   69
 Side 2  free  transition at x/c =  0.0200   17

  27   rms: 0.1302E+01   max: -.4659E+01   D at   13  2   RLX: 0.107
       a = -3.500      CL = -0.5183
      Cm =  0.0560     CD =  0.08302   =>   CDf =  0.00178    CDp =  0.08124

 MRCHDU: Convergence failed at  85  side 2    Res =  0.3268E+01
 MRCHDU: Convergence failed at  87  side 2    Res =  0.2625E+00
 MRCHDU: Convergence failed at  89  side 2    Res =  0.3840E+00
 MRCHDU: Convergence failed at  90  side 2    Res =  0.2713E+00
 MRCHDU: Convergence failed at  91  side 2    Res =  0.1838E+00
 MRCHDU: Convergence failed at  92  side 2    Res =  0.1769E+00
 MRCHDU: Convergence failed at  93  side 2    Res =  0.1076E+00
 Side 1  free  transition at x/c =  0.9297   69
 Side 2  free  transition at x/c =  0.0213   18

  28   rms: 0.4449E+00   max: -.1776E+01   T at   18  2   RLX: 0.281
       a = -3.500      CL = -0.3284
      Cm =  0.0067     CD =  0.01112   =>   CDf =  0.00724    CDp =  0.00388

 Side 1  free  transition at x/c =  0.9247   69
 Side 2  free  transition at x/c =  0.0233   18

  29   rms: 0.3383E+00   max: -.1223E+01   T at   18  2   RLX: 0.409
       a = -3.500      CL = -0.1416
      Cm = -0.0422     CD =  0.01281   =>   CDf =  0.00616    CDp =  0.00665

 Side 1  free  transition at x/c =  0.9242   70
 Side 2  free  transition at x/c =  0.0278   17

  30   rms: 0.5361E+00   max: -.2666E+01   T at   17  2   RLX: 0.188
       a = -3.500      CL = -0.0869
      Cm = -0.0554     CD =  0.01779   =>   CDf =  0.00520    CDp =  0.01259

 Side 1  free  transition at x/c =  0.9241   70
 Side 2  free  transition at x/c =  0.0284   17

  31   rms: 0.2021E+00   max: -.9266E+00   D at   74  1   RLX: 0.540
       a = -3.500      CL =  0.0319
      Cm = -0.0854     CD =  0.01517   =>   CDf =  0.00512    CDp =  0.01005

 Side 1  free  transition at x/c =  0.9261   70
 Side 2  free  transition at x/c =  0.0286   17

  32   rms: 0.1375E+00   max: -.8767E+00   D at   75  1   RLX: 0.570
       a = -3.500      CL =  0.1078
      Cm = -0.1042     CD =  0.01456   =>   CDf =  0.00494    CDp =  0.00962

 Side 1  free  transition at x/c =  0.9283   71
 Side 2  free  transition at x/c =  0.0326   17
 idif Ue xi dudx           1  0.20691331      2.31683254E-03   89.308701    
 Uenew xinew           2  1.18494732E-02  1.32679939E-04

  33   rms: 0.2343E+00   max: 0.1628E+01   D at   18  2   RLX: 0.703
       a = -3.500      CL =  0.1304
      Cm = -0.1103     CD =  0.01006   =>   CDf =  0.00552    CDp =  0.00454

 MRCHDU: Convergence failed at  19  side 2    Res =  0.1860E+02
 MRCHDU: Convergence failed at  20  side 2    Res =  0.1832E+02
 MRCHDU: Convergence failed at  21  side 2    Res =  0.4449E+01
 MRCHDU: Convergence failed at  22  side 2    Res =  0.4647E+01
 MRCHDU: Convergence failed at  23  side 2    Res =  0.6086E+01
 MRCHDU: Convergence failed at  24  side 2    Res =  0.8356E+01
 MRCHDU: Convergence failed at  25  side 2    Res =  0.3726E+02
 MRCHDU: Convergence failed at  26  side 2    Res =  0.2596E+02
 MRCHDU: Convergence failed at  27  side 2    Res =  0.3995E+02
 MRCHDU: Convergence failed at  28  side 2    Res =  0.5042E+02
 MRCHDU: Convergence failed at  29  side 2    Res =  0.1944E+02
 MRCHDU: Convergence failed at  30  side 2    Res =  0.2093E+02
 MRCHDU: Convergence failed at  31  side 2    Res =  0.2275E+02
 MRCHDU: Convergence failed at  32  side 2    Res =  0.2220E+02
 MRCHDU: Convergence failed at  33  side 2    Res =  0.2106E+02
 MRCHDU: Convergence failed at  34  side 2    Res =  0.9612E+02
 MRCHDU: Convergence failed at  35  side 2    Res =  0.2810E+02
 MRCHDU: Convergence failed at  36  side 2    Res =  0.3551E+02
 MRCHDU: Convergence failed at  37  side 2    Res =  0.7161E+02
 MRCHDU: Convergence failed at  38  side 2    Res =  0.1157E+03
 MRCHDU: Convergence failed at  39  side 2    Res =  0.9048E+02
 MRCHDU: Convergence failed at  40  side 2    Res =  0.8839E+02
 MRCHDU: Convergence failed at  41  side 2    Res =  0.8707E+02
 MRCHDU: Convergence failed at  42  side 2    Res =  0.9127E+02
 MRCHDU: Convergence failed at  43  side 2    Res =  0.9534E+02
 MRCHDU: Convergence failed at  44  side 2    Res =  0.1507E+03
 MRCHDU: Convergence failed at  45  side 2    Res =  0.1453E+03
 MRCHDU: Convergence failed at  46  side 2    Res =  0.1226E+03
 MRCHDU: Convergence failed at  47  side 2    Res =  0.1157E+03
 MRCHDU: Convergence failed at  48  side 2    Res =  0.1099E+03
 MRCHDU: Convergence failed at  49  side 2    Res =  0.1267E+03
 MRCHDU: Convergence failed at  50  side 2    Res =  0.1222E+03
 MRCHDU: Convergence failed at  51  side 2    Res =  0.1683E+03
 MRCHDU: Convergence failed at  52  side 2    Res =  0.4034E+03
 MRCHDU: Convergence failed at  53  side 2    Res =  0.2779E+02
 MRCHDU: Convergence failed at  54  side 2    Res =  0.2921E+02
 MRCHDU: Convergence failed at  55  side 2    Res =  0.3021E+02
 MRCHDU: Convergence failed at  56  side 2    Res =  0.2995E+02
 MRCHDU: Convergence failed at  57  side 2    Res =  0.3057E+02
 MRCHDU: Convergence failed at  58  side 2    Res =  0.3092E+02
 MRCHDU: Convergence failed at  59  side 2    Res =  0.2754E+02
 MRCHDU: Convergence failed at  60  side 2    Res =  0.3099E+02
 MRCHDU: Convergence failed at  61  side 2    Res =  0.3085E+02
 MRCHDU: Convergence failed at  62  side 2    Res =  0.3055E+02
 MRCHDU: Convergence failed at  63  side 2    Res =  0.3028E+02
 MRCHDU: Convergence failed at  64  side 2    Res =  0.3031E+02
 MRCHDU: Convergence failed at  65  side 2    Res =  0.2995E+02
 MRCHDU: Convergence failed at  66  side 2    Res =  0.2572E+02
 MRCHDU: Convergence failed at  67  side 2    Res =  0.2761E+02
 MRCHDU: Convergence failed at  68  side 2    Res =  0.2712E+02
 MRCHDU: Convergence failed at  69  side 2    Res =  0.6454E+02
 MRCHDU: Convergence failed at  70  side 2    Res =  0.7520E+02
 MRCHDU: Convergence failed at  71  side 2    Res =  0.2504E+02
 MRCHDU: Convergence failed at  72  side 2    Res =  0.2428E+02
 MRCHDU: Convergence failed at  73  side 2    Res =  0.3238E+02
 MRCHDU: Convergence failed at  74  side 2    Res =  0.1337E+03
 MRCHDU: Convergence failed at  75  side 2    Res =  0.2400E+02
 MRCHDU: Convergence failed at  76  side 2    Res =  0.2844E+02
 MRCHDU: Convergence failed at  77  side 2    Res =  0.3879E+02
 MRCHDU: Convergence failed at  78  side 2    Res =  0.2429E+03
 MRCHDU: Convergence failed at  79  side 2    Res =  0.3699E+02
 MRCHDU: Convergence failed at  80  side 2    Res =  0.2714E+03
 MRCHDU: Convergence failed at  81  side 2    Res =  0.2649E+03
 MRCHDU: Convergence failed at  82  side 2    Res =  0.2930E+02
 MRCHDU: Convergence failed at  83  side 2    Res =  0.3207E+02
 MRCHDU: Convergence failed at  84  side 2    Res =  0.2579E+02
 MRCHDU: Convergence failed at  85  side 2    Res =  0.3371E+02
 MRCHDU: Convergence failed at  86  side 2    Res =  0.4520E+02
 Side 1  free  transition at x/c =  0.9224   69
 Side 2  free  transition at x/c =  0.0353   18

  34   rms: 0.1179E+01   max: -.4077E+01   T at    2  2   RLX: 0.123
       a = -3.500      CL = -1.0037
      Cm =  0.2330     CD =  0.00471   =>   CDf =  0.00202    CDp =  0.00268

 MRCHDU: Convergence failed at  21  side 2    Res =  0.2455E+00
 MRCHDU: Convergence failed at  23  side 2    Res =  0.4007E+00
 MRCHDU: Convergence failed at  24  side 2    Res =  0.3657E+00
 MRCHDU: Convergence failed at  25  side 2    Res =  0.3004E+00
 MRCHDU: Convergence failed at  27  side 2    Res =  0.4218E+00
 MRCHDU: Convergence failed at  28  side 2    Res =  0.3591E+00
 MRCHDU: Convergence failed at  29  side 2    Res =  0.2586E+00
 Side 1  free  transition at x/c =  0.9275   71
 Side 2  free  transition at x/c =  0.0359   17
 idif Ue xi dudx           1  0.19486691      2.25996971E-03   86.225449    
 Uenew xinew           2  6.53736433E-03  7.58171082E-05

  35   rms: 0.5341E+00   max: -.7442E+00   D at   86  2   RLX: 0.442
       a = -3.500      CL = -0.2560
      Cm =  0.0181     CD =  0.02658   =>   CDf =  0.00244    CDp =  0.02414

 MRCHDU: Convergence failed at  31  side 2    Res =  0.1421E+00
 MRCHDU: Convergence failed at  32  side 2    Res =  0.4554E+00
 MRCHDU: Convergence failed at  35  side 2    Res =  0.1630E+01
 MRCHDU: Convergence failed at  38  side 2    Res =  0.1098E+01
 MRCHDU: Convergence failed at  41  side 2    Res =  0.4178E-02
 Side 1  free  transition at x/c =  0.9412   71
 Side 2  free  transition at x/c =  0.0364   18

  36   rms: 0.3558E+00   max: -.8003E+00   D at   87  2   RLX: 0.575
       a = -3.500      CL = -0.0059
      Cm = -0.0662     CD =  0.02230   =>   CDf =  0.00300    CDp =  0.01930

 Side 1  free  transition at x/c =  0.9312   70
 Side 2  free  transition at x/c =  0.0369   18

  37   rms: 0.1130E+01   max: -.5634E+01   D at   33  2   RLX: 0.089
       a = -3.500      CL =  0.0316
      Cm = -0.0800     CD =  0.02166   =>   CDf =  0.00287    CDp =  0.01879

 Side 1  free  transition at x/c =  0.9293   70
 Side 2  free  transition at x/c =  0.0362   18

  38   rms: 0.3967E+00   max: -.1350E+01   D at   27  2   RLX: 0.370
       a = -3.500      CL =  0.0447
      Cm = -0.0914     CD =  0.01758   =>   CDf =  0.00316    CDp =  0.01442

 Side 1  free  transition at x/c =  0.9178   69
 Side 2  free  transition at x/c =  0.0357   18

  39   rms: 0.4578E+00   max: -.1974E+01   D at   51  2   RLX: 0.253
       a = -3.500      CL =  0.0738
      Cm = -0.1006     CD =  0.01632   =>   CDf =  0.00324    CDp =  0.01309

 MRCHDU: Convergence failed at  43  side 2    Res =  0.4004E+00
 Side 1  free  transition at x/c =  0.9199   69
 Side 2  free  transition at x/c =  0.0366   18

  40   rms: 0.7439E+00   max: -.2504E+01   D at   88  2   RLX: 0.200
       a = -3.500      CL =  0.0276
      Cm = -0.1015     CD =  0.01559   =>   CDf =  0.00376    CDp =  0.01183

 Side 1  free  transition at x/c =  0.8995   68
 Side 2  free  transition at x/c =  0.0354   18

  41   rms: 0.1354E+01   max: -.4762E+01   D at   76  2   RLX: 0.105
       a = -3.500      CL = -0.0279
      Cm = -0.0945     CD =  0.01735   =>   CDf =  0.00371    CDp =  0.01364

 MRCHDU: Convergence failed at  62  side 2    Res =  0.4761E+00
 MRCHDU: Convergence failed at  63  side 2    Res =  0.1581E+00
 MRCHDU: Convergence failed at  64  side 2    Res =  0.8910E-01
 Side 1  free  transition at x/c =  0.8869   67
 Side 2  free  transition at x/c =  0.0344   18

  42   rms: 0.3255E+00   max: -.1526E+01   D at   80  2   RLX: 0.328
       a = -3.500      CL = -0.0373
      Cm = -0.0871     CD =  0.01680   =>   CDf =  0.00401    CDp =  0.01279

 Side 1  free  transition at x/c =  0.8871   67
 Side 2  free  transition at x/c =  0.0340   18

  43   rms: 0.2339E+00   max: -.1099E+01   D at   81  2   RLX: 0.455
       a = -3.500      CL = -0.0005
      Cm = -0.0930     CD =  0.01692   =>   CDf =  0.00399    CDp =  0.01293

 Side 1  free  transition at x/c =  0.8904   67
 Side 2  free  transition at x/c =  0.0355   18

  44   rms: 0.1756E+00   max: -.1105E+01   T at   18  2   RLX: 0.453
       a = -3.500      CL =  0.0473
      Cm = -0.0992     CD =  0.01666   =>   CDf =  0.00403    CDp =  0.01263

 TRCHEK2: N2 convergence failed.
 x:  0.06416  0.07675  0.07719  N:  8.774  9.000  9.020  Nx:  28.119   dN: 0.249E+01
 TRCHEK2: N2 convergence failed.
 x:  0.06416  0.07605  0.07719  N:  8.774  9.000  9.008  Nx:  29.338   dN:-0.197E+00
 TRCHEK2: N2 convergence failed.
 x:  0.06416  0.07387  0.07719  N:  8.774  9.000  9.057  Nx:  38.032   dN:-0.131E+00
 TRCHEK2: N2 convergence failed.
 x:  0.06416  0.07629  0.07719  N:  8.774  9.000  9.030  Nx:  24.778   dN: 0.914E-01
 TRCHEK2: N2 convergence failed.
 x:  0.06416  0.07505  0.07719  N:  8.774  9.000  9.028  Nx:  25.640   dN:-0.734E-01
 TRCHEK2: N2 convergence failed.
 x:  0.06416  0.07506  0.07719  N:  8.774  9.000  9.060  Nx:  25.020   dN: 0.322E+00
 TRCHEK2: N2 convergence failed.
 x:  0.06416  0.07624  0.07719  N:  8.774  9.000  9.031  Nx:  24.836   dN: 0.807E-01
 TRCHEK2: N2 convergence failed.
 x:  0.06416  0.07500  0.07719  N:  8.774  9.000  9.030  Nx:  28.957   dN:-0.204E-01
 TRCHEK2: N2 convergence failed.
 x:  0.06416  0.07631  0.07719  N:  8.774  9.000  9.030  Nx:  24.787   dN: 0.813E-01
 TRCHEK2: N2 convergence failed.
 x:  0.06416  0.07630  0.07719  N:  8.774  9.000  9.030  Nx:  24.821   dN: 0.103E+00
 TRCHEK2: N2 convergence failed.
 x:  0.06416  0.07627  0.07719  N:  8.774  9.000  9.004  Nx:  25.434   dN:-0.211E+00
 TRCHEK2: N2 convergence failed.
 x:  0.06416  0.07633  0.07719  N:  8.774  9.000  9.029  Nx:  24.773   dN: 0.815E-01
 TRCHEK2: N2 convergence failed.
 x:  0.06416  0.07628  0.07719  N:  8.774  9.000  9.004  Nx:  25.133   dN:-0.340E+01
 TRCHEK2: N2 convergence failed.
 x:  0.06416  0.07628  0.07719  N:  8.774  9.000  9.030  Nx:  25.009   dN: 0.761E+00
 TRCHEK2: N2 convergence failed.
 x:  0.06416  0.07620  0.07719  N:  8.774  9.000  9.005  Nx:  26.783   dN:-0.174E-01
 TRCHEK2: N2 convergence failed.
 x:  0.06416  0.07553  0.07719  N:  8.774  9.000  9.021  Nx:  34.327   dN:-0.125E-01
 TRCHEK2: N2 convergence failed.
 x:  0.06416  0.07618  0.07719  N:  8.774  9.000  9.006  Nx:  25.220   dN:-0.862E-01
 TRCHEK2: N2 convergence failed.
 x:  0.06416  0.07661  0.07719  N:  8.774  9.000  9.023  Nx:  24.889   dN: 0.887E-01
 TRCHEK2: N2 convergence failed.
 x:  0.06416  0.07606  0.07719  N:  8.774  9.000  9.035  Nx:  24.866   dN: 0.774E-01
 TRCHEK2: N2 convergence failed.
 x:  0.06416  0.07625  0.07719  N:  8.774  9.000  9.031  Nx:  24.835   dN: 0.809E-01
 TRCHEK2: N2 convergence failed.
 x:  0.06416  0.07531  0.07719  N:  8.774  9.000  9.024  Nx:  30.133   dN:-0.139E-01
 TRCHEK2: N2 convergence failed.
 x:  0.06416  0.07627  0.07719  N:  8.774  9.000  9.030  Nx:  24.838   dN: 0.814E-01
 TRCHEK2: N2 convergence failed.
 x:  0.06416  0.07647  0.07719  N:  8.774  9.000  9.026  Nx:  24.864   dN: 0.856E-01
 TRCHEK2: N2 convergence failed.
 x:  0.06416  0.07628  0.07719  N:  8.774  9.000  9.030  Nx:  24.841   dN: 0.816E-01
 TRCHEK2: N2 convergence failed.
 x:  0.06416  0.07628  0.07719  N:  8.774  9.000  9.030  Nx:  24.815   dN: 0.811E-01
 MRCHDU: Convergence failed at  20  side 2    Res =  0.4362E+02
 MRCHDU: Convergence failed at  21  side 2    Res =  0.3001E+02
 MRCHDU: Convergence failed at  22  side 2    Res =  0.4026E+03
 MRCHDU: Convergence failed at  23  side 2    Res =  0.6506E+02
 MRCHDU: Convergence failed at  24  side 2    Res =  0.4717E+02
 MRCHDU: Convergence failed at  25  side 2    Res =  0.1786E+03
 MRCHDU: Convergence failed at  26  side 2    Res =  0.8405E+03
 MRCHDU: Convergence failed at  27  side 2    Res =  0.6759E+03
 MRCHDU: Convergence failed at  28  side 2    Res =  0.1947E+03
 MRCHDU: Convergence failed at  29  side 2    Res =  0.1677E+03
 MRCHDU: Convergence failed at  30  side 2    Res =  0.1571E+03
 MRCHDU: Convergence failed at  31  side 2    Res =  0.1606E+03
 MRCHDU: Convergence failed at  32  side 2    Res =  0.1638E+03
 MRCHDU: Convergence failed at  33  side 2    Res =  0.1961E+04
 MRCHDU: Convergence failed at  34  side 2    Res =  0.7227E+04
 MRCHDU: Convergence failed at  35  side 2    Res =  0.1942E+04
 MRCHDU: Convergence failed at  36  side 2    Res =  0.7381E+03
 MRCHDU: Convergence failed at  37  side 2    Res =  0.5077E+03
 MRCHDU: Convergence failed at  38  side 2    Res =  0.4076E+03
 MRCHDU: Convergence failed at  39  side 2    Res =  0.3866E+03
 MRCHDU: Convergence failed at  40  side 2    Res =  0.3285E+03
 MRCHDU: Convergence failed at  41  side 2    Res =  0.3008E+03
 MRCHDU: Convergence failed at  42  side 2    Res =  0.2420E+03
 MRCHDU: Convergence failed at  43  side 2    Res =  0.2587E+03
 MRCHDU: Convergence failed at  44  side 2    Res =  0.5197E+03
 MRCHDU: Convergence failed at  45  side 2    Res =  0.5056E+03
 MRCHDU: Convergence failed at  46  side 2    Res =  0.5237E+03
 MRCHDU: Convergence failed at  47  side 2    Res =  0.5410E+03
 MRCHDU: Convergence failed at  48  side 2    Res =  0.5671E+03
 MRCHDU: Convergence failed at  49  side 2    Res =  0.5929E+03
 MRCHDU: Convergence failed at  50  side 2    Res =  0.6245E+03
 MRCHDU: Convergence failed at  51  side 2    Res =  0.6636E+03
 MRCHDU: Convergence failed at  52  side 2    Res =  0.7081E+03
 MRCHDU: Convergence failed at  53  side 2    Res =  0.7560E+03
 MRCHDU: Convergence failed at  54  side 2    Res =  0.8010E+03
 MRCHDU: Convergence failed at  55  side 2    Res =  0.8428E+03
 MRCHDU: Convergence failed at  56  side 2    Res =  0.9361E+03
 MRCHDU: Convergence failed at  57  side 2    Res =  0.2122E+04
 MRCHDU: Convergence failed at  58  side 2    Res =  0.1777E+04
 MRCHDU: Convergence failed at  59  side 2    Res =  0.1527E+04
 MRCHDU: Convergence failed at  60  side 2    Res =  0.1657E+03
 MRCHDU: Convergence failed at  61  side 2    Res =  0.1203E+03
 MRCHDU: Convergence failed at  62  side 2    Res =  0.1147E+03
 MRCHDU: Convergence failed at  63  side 2    Res =  0.1109E+03
 MRCHDU: Convergence failed at  64  side 2    Res =  0.2493E+04
 MRCHDU: Convergence failed at  65  side 2    Res =  0.2226E+04
 MRCHDU: Convergence failed at  66  side 2    Res =  0.8861E+04
 MRCHDU: Convergence failed at  67  side 2    Res =  0.1547E+03
 MRCHDU: Convergence failed at  68  side 2    Res =  0.6182E+04
 MRCHDU: Convergence failed at  69  side 2    Res =  0.4099E+04
 MRCHDU: Convergence failed at  70  side 2    Res =  0.3362E+04
 MRCHDU: Convergence failed at  71  side 2    Res =  0.3014E+04
 MRCHDU: Convergence failed at  72  side 2    Res =  0.2934E+04
 MRCHDU: Convergence failed at  73  side 2    Res =  0.3193E+03
 MRCHDU: Convergence failed at  74  side 2    Res =  0.3186E+03
 MRCHDU: Convergence failed at  75  side 2    Res =  0.3181E+03
 MRCHDU: Convergence failed at  76  side 2    Res =  0.3180E+03
 MRCHDU: Convergence failed at  77  side 2    Res =  0.3178E+03
 MRCHDU: Convergence failed at  78  side 2    Res =  0.3171E+03
 MRCHDU: Convergence failed at  79  side 2    Res =  0.3203E+03
 MRCHDU: Convergence failed at  80  side 2    Res =  0.1579E+03
 MRCHDU: Convergence failed at  81  side 2    Res =  0.9569E+04
 MRCHDU: Convergence failed at  82  side 2    Res =  0.2307E+04
 MRCHDU: Convergence failed at  83  side 2    Res =  0.1178E+04
 MRCHDU: Convergence failed at  84  side 2    Res =  0.7682E+03
 MRCHDU: Convergence failed at  85  side 2    Res =  0.6025E+03
 MRCHDU: Convergence failed at  86  side 2    Res =  0.5394E+03
 MRCHDU: Convergence failed at  88  side 2    Res =  0.1111E+01
 MRCHDU: Convergence failed at  89  side 2    Res =  0.8849E+00
 MRCHDU: Convergence failed at  90  side 2    Res =  0.7780E+00
 MRCHDU: Convergence failed at  91  side 2    Res =  0.6999E+00
 MRCHDU: Convergence failed at  92  side 2    Res =  0.6372E+00
 MRCHDU: Convergence failed at  93  side 2    Res =  0.5946E+00
 MRCHDU: Convergence failed at  94  side 2    Res =  0.5380E+00
 MRCHDU: Convergence failed at  95  side 2    Res =  0.4734E+00
 MRCHDU: Convergence failed at  96  side 2    Res =  0.3977E+00
 MRCHDU: Convergence failed at  97  side 2    Res =  0.3113E+00
 MRCHDU: Convergence failed at  98  side 2    Res =  0.2103E+00
 MRCHDU: Convergence failed at  99  side 2    Res =  0.9368E-01
 Side 1  free  transition at x/c =  0.8990   68
 Side 2  free  transition at x/c =  0.0576   20

  45   rms: 0.1411E+01   max: 0.4146E+01   D at   99  2   RLX: 0.362
       a = -3.500      CL = -0.7715
      Cm =  0.1821     CD =  0.00460   =>   CDf =  0.00171    CDp =  0.00290

 Side 1  free  transition at x/c =  0.9152   70
 Side 2  free  transition at x/c =  0.0622   19

  46   rms: 0.8081E+00   max: 0.7165E+01   T at   20  2   RLX: 0.124
       a = -3.500      CL = -0.4150
      Cm =  0.0623     CD =  0.05905   =>   CDf =  0.00216    CDp =  0.05689

 Side 1  free  transition at x/c =  0.9389   72
 Side 2  free  transition at x/c =  0.1235   24
 idif Ue xi dudx           1  0.20685931      2.62486935E-03   78.807465    
 Uenew xinew           2  3.47317681E-02  4.40716743E-04

  47   rms: 0.1746E+01   max: 0.1997E+02   T at   24  2   RLX: 0.075
       a = -3.500      CL = -0.5335
      Cm =  0.0654     CD =  0.05795   =>   CDf =  0.00205    CDp =  0.05590

 Side 1  free  transition at x/c =  0.9436   71
 Side 2  free  transition at x/c =  0.0909   22

  48   rms: 0.4370E+01   max: 0.4927E+02   T at   23  2   RLX: 0.030
       a = -3.500      CL = -0.7458
      Cm =  0.1202     CD =  0.06390   =>   CDf =  0.00204    CDp =  0.06186

 Side 1  free  transition at x/c =  0.9441   71
 Side 2  free  transition at x/c =  0.0521   20

  49   rms: 0.1291E+01   max: 0.1339E+02   T at   20  2   RLX: 0.112
       a = -3.500      CL = -0.8231
      Cm =  0.1352     CD =  0.06202   =>   CDf =  0.00204    CDp =  0.05997

 Side 1  free  transition at x/c =  0.9530   72
 Side 2  free  transition at x/c =  0.0405   19
 idif Ue xi dudx           1  0.21956383      2.91144848E-03   75.413948    
 Uenew xinew           2  1.38986064E-02  1.84297562E-04

  50   rms: 0.1054E+01   max: 0.7905E+01   T at   19  2   RLX: 0.123
       a = -3.500      CL = -0.8411
      Cm =  0.1187     CD =  0.05871   =>   CDf =  0.00196    CDp =  0.05675

 Side 1  free  transition at x/c =  0.9647   71
 Side 2  free  transition at x/c =  0.0285   18

  51   rms: 0.1569E+01   max: 0.1599E+02   C at   71  1   RLX: 0.039
       a = -3.500      CL = -1.0653
      Cm =  0.1843     CD =  0.09105   =>   CDf =  0.00207    CDp =  0.08898

 Side 1  free  transition at x/c =  0.9869   74
 Side 2  free  transition at x/c =  0.0285   18

  52   rms: 0.1897E+01   max: 0.8660E+01   D at   75  1   RLX: 0.075
       a = -3.500      CL = -1.0464
      Cm =  0.1999     CD =  0.10352   =>   CDf =  0.00217    CDp =  0.10136

 Side 1  free  transition at x/c =  0.9970   76
 Side 2  free  transition at x/c =  0.0279   17

  53   rms: 0.1041E+01   max: -.1366E+02   T at   18  2   RLX: 0.037
       a = -3.500      CL = -0.8236
      Cm =  0.1267     CD =  0.09511   =>   CDf =  0.00208    CDp =  0.09303

 Side 1  free  transition at x/c =  0.9975   76
 Side 2  free  transition at x/c =  0.0278   17

  54   rms: 0.5355E+00   max: 0.5701E+01   T at   18  2   RLX: 0.263
       a = -3.500      CL = -0.6714
      Cm =  0.0944     CD =  0.08059   =>   CDf =  0.00207    CDp =  0.07852

 Side 1 forced transition at x/c =  1.0000   76
 Side 2  free  transition at x/c =  0.0283   17

  55   rms: 0.5003E+00   max: -.1390E+01   D at   72  1   RLX: 0.360
       a = -3.500      CL = -0.4513
      Cm =  0.0367     CD =  0.06458   =>   CDf =  0.00208    CDp =  0.06250

 Side 1 forced transition at x/c =  1.0000   76
 Side 2  free  transition at x/c =  0.0284   17

  56   rms: 0.3822E+00   max: -.1378E+01   D at  106  2   RLX: 0.363
       a = -3.500      CL = -0.3148
      Cm = -0.0054     CD =  0.08134   =>   CDf =  0.00224    CDp =  0.07910

 Side 1 forced transition at x/c =  1.0000   76
 Side 2  free  transition at x/c =  0.0281   17

  57   rms: 0.3793E+00   max: -.1551E+01   D at  105  2   RLX: 0.322
       a = -3.500      CL = -0.2247
      Cm = -0.0419     CD =  0.07564   =>   CDf =  0.00219    CDp =  0.07344

 Side 1 forced transition at x/c =  1.0000   76
 Side 2  free  transition at x/c =  0.0284   17
 idif Ue xi dudx           1  0.34410924      5.36513329E-03   64.138062    
 Uenew xinew           2  0.16919507      2.63798237E-03

  58   rms: 0.1195E+01   max: 0.3428E+01   T at   26  2   RLX: 0.224
       a = -3.500      CL = -0.2995
      Cm = -0.0602     CD =  0.07802   =>   CDf =  0.00205    CDp =  0.07597

 MRCHDU: Convergence failed at  27  side 2    Res =  0.1366E+01
 MRCHDU: Convergence failed at  30  side 2    Res =  0.2023E+01
 MRCHDU: Convergence failed at  31  side 2    Res =  0.1222E+01
 MRCHDU: Convergence failed at  32  side 2    Res =  0.1486E+01
 MRCHDU: Convergence failed at  33  side 2    Res =  0.2124E+01
 MRCHDU: Convergence failed at  34  side 2    Res =  0.6662E+01
 MRCHDU: Convergence failed at  35  side 2    Res =  0.9719E+01
 MRCHDU: Convergence failed at  36  side 2    Res =  0.6601E+01
 MRCHDU: Convergence failed at  37  side 2    Res =  0.6747E+01
 MRCHDU: Convergence failed at  38  side 2    Res =  0.4531E+01
 MRCHDU: Convergence failed at  39  side 2    Res =  0.2228E+01
 MRCHDU: Convergence failed at  40  side 2    Res =  0.2286E+01
 MRCHDU: Convergence failed at  41  side 2    Res =  0.2227E+01
 MRCHDU: Convergence failed at  42  side 2    Res =  0.2097E+01
 MRCHDU: Convergence failed at  43  side 2    Res =  0.1586E+01
 MRCHDU: Convergence failed at  44  side 2    Res =  0.1789E+01
 MRCHDU: Convergence failed at  45  side 2    Res =  0.1926E+01
 MRCHDU: Convergence failed at  46  side 2    Res =  0.2174E+01
 MRCHDU: Convergence failed at  47  side 2    Res =  0.2393E+01
 MRCHDU: Convergence failed at  48  side 2    Res =  0.2792E+01
 MRCHDU: Convergence failed at  49  side 2    Res =  0.3260E+01
 MRCHDU: Convergence failed at  50  side 2    Res =  0.4127E+01
 MRCHDU: Convergence failed at  51  side 2    Res =  0.5082E+01
 MRCHDU: Convergence failed at  52  side 2    Res =  0.7251E+01
 MRCHDU: Convergence failed at  53  side 2    Res =  0.1157E+02
 MRCHDU: Convergence failed at  54  side 2    Res =  0.3309E+02
 MRCHDU: Convergence failed at  55  side 2    Res =  0.5622E+02
 MRCHDU: Convergence failed at  56  side 2    Res =  0.1484E+02
 MRCHDU: Convergence failed at  57  side 2    Res =  0.8236E+01
 MRCHDU: Convergence failed at  58  side 2    Res =  0.5670E+01
 MRCHDU: Convergence failed at  59  side 2    Res =  0.4503E+01
 MRCHDU: Convergence failed at  60  side 2    Res =  0.3740E+01
 MRCHDU: Convergence failed at  61  side 2    Res =  0.3162E+01
 MRCHDU: Convergence failed at  62  side 2    Res =  0.2776E+01
 MRCHDU: Convergence failed at  63  side 2    Res =  0.2474E+01
 MRCHDU: Convergence failed at  64  side 2    Res =  0.1967E+01
 MRCHDU: Convergence failed at  65  side 2    Res =  0.2084E+01
 MRCHDU: Convergence failed at  66  side 2    Res =  0.2268E+01
 MRCHDU: Convergence failed at  67  side 2    Res =  0.2440E+01
 MRCHDU: Convergence failed at  68  side 2    Res =  0.2654E+01
 MRCHDU: Convergence failed at  69  side 2    Res =  0.3036E+01
 MRCHDU: Convergence failed at  70  side 2    Res =  0.3501E+01
 MRCHDU: Convergence failed at  71  side 2    Res =  0.4206E+01
 MRCHDU: Convergence failed at  72  side 2    Res =  0.5426E+01
 MRCHDU: Convergence failed at  73  side 2    Res =  0.7821E+01
 MRCHDU: Convergence failed at  74  side 2    Res =  0.1471E+02
 MRCHDU: Convergence failed at  75  side 2    Res =  0.1678E+03
 MRCHDU: Convergence failed at  76  side 2    Res =  0.1558E+02
 MRCHDU: Convergence failed at  77  side 2    Res =  0.7711E+01
 MRCHDU: Convergence failed at  78  side 2    Res =  0.5223E+01
 MRCHDU: Convergence failed at  79  side 2    Res =  0.3971E+01
 MRCHDU: Convergence failed at  80  side 2    Res =  0.3095E+01
 MRCHDU: Convergence failed at  81  side 2    Res =  0.2504E+01
 MRCHDU: Convergence failed at  82  side 2    Res =  0.1874E+01
 MRCHDU: Convergence failed at  83  side 2    Res =  0.2040E+01
 MRCHDU: Convergence failed at  84  side 2    Res =  0.2271E+01
 MRCHDU: Convergence failed at  85  side 2    Res =  0.2560E+01
 MRCHDU: Convergence failed at  86  side 2    Res =  0.3155E+01
 MRCHDU: Convergence failed at  87  side 2    Res =  0.4097E+01
 Side 1 forced transition at x/c =  1.0000   75
 Side 2  free  transition at x/c =  0.0229   18

  59   rms: 0.5429E+00   max: 0.2231E+01   D at   71  1   RLX: 0.358
       a = -3.500      CL = -0.5317
      Cm =  0.0391     CD =  0.02631   =>   CDf =  0.00262    CDp =  0.02369

 Side 1  free  transition at x/c =  0.9498   70
 Side 2  free  transition at x/c =  0.0229   18

  60   rms: 0.4215E+00   max: -.1829E+01   T at   18  2   RLX: 0.273
       a = -3.500      CL = -0.3671
      Cm = -0.0034     CD =  0.02240   =>   CDf =  0.00440    CDp =  0.01800

 Side 1  free  transition at x/c =  0.9385   70
 Side 2  free  transition at x/c =  0.0227   18

  61   rms: 0.4166E+00   max: -.1175E+01   D at  105  2   RLX: 0.425
       a = -3.500      CL = -0.1685
      Cm = -0.0511     CD =  0.02118   =>   CDf =  0.00352    CDp =  0.01767

 Side 1  free  transition at x/c =  0.9383   71
 Side 2  free  transition at x/c =  0.0246   17

  62   rms: 0.3073E+00   max: -.8579E+00   D at   74  1   RLX: 0.583
       a = -3.500      CL =  0.0107
      Cm = -0.0871     CD =  0.01662   =>   CDf =  0.00379    CDp =  0.01283

 Side 1  free  transition at x/c =  0.9366   70
 Side 2  free  transition at x/c =  0.0267   17

  63   rms: 0.2829E+00   max: -.8229E+00   D at   37  2   RLX: 0.608
       a = -3.500      CL =  0.1066
      Cm = -0.1079     CD =  0.01534   =>   CDf =  0.00374    CDp =  0.01161

 Side 1  free  transition at x/c =  0.9329   70
 Side 2  free  transition at x/c =  0.0329   18

  64   rms: 0.1955E+00   max: 0.1757E+01   D at   19  2   RLX: 0.854
       a = -3.500      CL =  0.1325
      Cm = -0.1119     CD =  0.01065   =>   CDf =  0.00551    CDp =  0.00514

 MRCHDU: Convergence failed at  19  side 2    Res =  0.2621E+02
 MRCHDU: Convergence failed at  20  side 2    Res =  0.1300E+02
 MRCHDU: Convergence failed at  21  side 2    Res =  0.7577E+01
 MRCHDU: Convergence failed at  22  side 2    Res =  0.1479E+02
 MRCHDU: Convergence failed at  23  side 2    Res =  0.1701E+02
 MRCHDU: Convergence failed at  24  side 2    Res =  0.1698E+02
 MRCHDU: Convergence failed at  25  side 2    Res =  0.3376E+02
 MRCHDU: Convergence failed at  26  side 2    Res =  0.5691E+02
 MRCHDU: Convergence failed at  27  side 2    Res =  0.2934E+02
 MRCHDU: Convergence failed at  28  side 2    Res =  0.6278E+02
 MRCHDU: Convergence failed at  29  side 2    Res =  0.2468E+03
 MRCHDU: Convergence failed at  30  side 2    Res =  0.1899E+03
 MRCHDU: Convergence failed at  31  side 2    Res =  0.3295E+02
 MRCHDU: Convergence failed at  32  side 2    Res =  0.3181E+02
 MRCHDU: Convergence failed at  33  side 2    Res =  0.3266E+02
 MRCHDU: Convergence failed at  34  side 2    Res =  0.3324E+02
 MRCHDU: Convergence failed at  35  side 2    Res =  0.3174E+02
 MRCHDU: Convergence failed at  36  side 2    Res =  0.3470E+02
 MRCHDU: Convergence failed at  37  side 2    Res =  0.4212E+03
 MRCHDU: Convergence failed at  38  side 2    Res =  0.2539E+03
 MRCHDU: Convergence failed at  39  side 2    Res =  0.2037E+03
 MRCHDU: Convergence failed at  40  side 2    Res =  0.2076E+03
 MRCHDU: Convergence failed at  41  side 2    Res =  0.1276E+03
 MRCHDU: Convergence failed at  42  side 2    Res =  0.1395E+03
 MRCHDU: Convergence failed at  43  side 2    Res =  0.1108E+03
 MRCHDU: Convergence failed at  44  side 2    Res =  0.2053E+03
 MRCHDU: Convergence failed at  45  side 2    Res =  0.6712E+02
 MRCHDU: Convergence failed at  46  side 2    Res =  0.8016E+02
 MRCHDU: Convergence failed at  47  side 2    Res =  0.9152E+02
 MRCHDU: Convergence failed at  48  side 2    Res =  0.1085E+03
 MRCHDU: Convergence failed at  49  side 2    Res =  0.3430E+02
 MRCHDU: Convergence failed at  50  side 2    Res =  0.3247E+02
 MRCHDU: Convergence failed at  51  side 2    Res =  0.5041E+02
 MRCHDU: Convergence failed at  52  side 2    Res =  0.3978E+02
 MRCHDU: Convergence failed at  53  side 2    Res =  0.3840E+02
 MRCHDU: Convergence failed at  54  side 2    Res =  0.3968E+02
 MRCHDU: Convergence failed at  55  side 2    Res =  0.4098E+02
 MRCHDU: Convergence failed at  56  side 2    Res =  0.4218E+02
 MRCHDU: Convergence failed at  57  side 2    Res =  0.4320E+02
 MRCHDU: Convergence failed at  58  side 2    Res =  0.4394E+02
 MRCHDU: Convergence failed at  59  side 2    Res =  0.4446E+02
 MRCHDU: Convergence failed at  60  side 2    Res =  0.4476E+02
 MRCHDU: Convergence failed at  61  side 2    Res =  0.4496E+02
 MRCHDU: Convergence failed at  62  side 2    Res =  0.4496E+02
 MRCHDU: Convergence failed at  63  side 2    Res =  0.4495E+02
 MRCHDU: Convergence failed at  64  side 2    Res =  0.4486E+02
 MRCHDU: Convergence failed at  65  side 2    Res =  0.4476E+02
 MRCHDU: Convergence failed at  66  side 2    Res =  0.4457E+02
 MRCHDU: Convergence failed at  67  side 2    Res =  0.4436E+02
 MRCHDU: Convergence failed at  68  side 2    Res =  0.4406E+02
 MRCHDU: Convergence failed at  69  side 2    Res =  0.4368E+02
 MRCHDU: Convergence failed at  70  side 2    Res =  0.3425E+02
 MRCHDU: Convergence failed at  71  side 2    Res =  0.3447E+02
 MRCHDU: Convergence failed at  72  side 2    Res =  0.3468E+02
 MRCHDU: Convergence failed at  73  side 2    Res =  0.3034E+02
 MRCHDU: Convergence failed at  74  side 2    Res =  0.3027E+02
 MRCHDU: Convergence failed at  75  side 2    Res =  0.3771E+02
 MRCHDU: Convergence failed at  76  side 2    Res =  0.3503E+02
 MRCHDU: Convergence failed at  77  side 2    Res =  0.3419E+02
 MRCHDU: Convergence failed at  78  side 2    Res =  0.3069E+02
 MRCHDU: Convergence failed at  79  side 2    Res =  0.2965E+02
 MRCHDU: Convergence failed at  80  side 2    Res =  0.2894E+02
 MRCHDU: Convergence failed at  81  side 2    Res =  0.2903E+02
 MRCHDU: Convergence failed at  82  side 2    Res =  0.3069E+02
 MRCHDU: Convergence failed at  83  side 2    Res =  0.3561E+02
 MRCHDU: Convergence failed at  84  side 2    Res =  0.4449E+02
 MRCHDU: Convergence failed at  85  side 2    Res =  0.5353E+02
 MRCHDU: Convergence failed at  86  side 2    Res =  0.5384E+02
 Side 1  free  transition at x/c =  0.9189   69
 Side 2  free  transition at x/c =  0.0363   18

  65   rms: 0.1204E+01   max: 0.4597E+01   D at   88  2   RLX: 0.326
       a = -3.500      CL = -0.7455
      Cm =  0.1619     CD =  0.00543   =>   CDf =  0.00203    CDp =  0.00340

 MRCHDU: Convergence failed at  73  side 2    Res =  0.3019E+00
 MRCHDU: Convergence failed at  74  side 2    Res =  0.3472E+00
 MRCHDU: Convergence failed at  75  side 2    Res =  0.3862E+00
 MRCHDU: Convergence failed at  76  side 2    Res =  0.4219E+00
 MRCHDU: Convergence failed at  77  side 2    Res =  0.4562E+00
 MRCHDU: Convergence failed at  78  side 2    Res =  0.4875E+00
 MRCHDU: Convergence failed at  79  side 2    Res =  0.5174E+00
 MRCHDU: Convergence failed at  80  side 2    Res =  0.5435E+00
 MRCHDU: Convergence failed at  81  side 2    Res =  0.5619E+00
 MRCHDU: Convergence failed at  82  side 2    Res =  0.5766E+00
 MRCHDU: Convergence failed at  83  side 2    Res =  0.5870E+00
 MRCHDU: Convergence failed at  84  side 2    Res =  0.5930E+00
 MRCHDU: Convergence failed at  85  side 2    Res =  0.5501E+00
 MRCHDU: Convergence failed at  87  side 2    Res =  0.3403E+01
 MRCHDU: Convergence failed at  88  side 2    Res =  0.6260E+01
 MRCHDU: Convergence failed at  89  side 2    Res =  0.7345E+01
 Side 1  free  transition at x/c =  0.9380   71
 Side 2  free  transition at x/c =  0.0380   17

  66   rms: 0.3748E+00   max: -.8495E+00   D at   89  2   RLX: 0.571
       a = -3.500      CL = -0.0111
      Cm = -0.0621     CD =  0.03165   =>   CDf =  0.00217    CDp =  0.02948

 MRCHDU: Convergence failed at  77  side 1    Res =  0.2608E+01
 Side 1  free  transition at x/c =  0.9613   73
 Side 2  free  transition at x/c =  0.0385   17

  67   rms: 0.4202E+00   max: 0.3132E+01   C at   73  1   RLX: 0.286
       a = -3.500      CL =  0.0736
      Cm = -0.0994     CD =  0.04103   =>   CDf =  0.00211    CDp =  0.03892

 MRCHDU: Convergence failed at  84  side 2    Res =  0.1956E+00
 Side 1  free  transition at x/c =  0.9491   72
 Side 2  free  transition at x/c =  0.0429   18

  68   rms: 0.6123E+00   max: -.2283E+01   D at   71  2   RLX: 0.219
       a = -3.500      CL =  0.1754
      Cm = -0.1297     CD =  0.01956   =>   CDf =  0.00294    CDp =  0.01662

 MRCHDU: Convergence failed at  18  side 2    Res =  0.1290E+02
 MRCHDU: Convergence failed at  19  side 2    Res =  0.1953E+02
 MRCHDU: Convergence failed at  20  side 2    Res =  0.3105E+02
 MRCHDU: Convergence failed at  21  side 2    Res =  0.4539E+02
 MRCHDU: Convergence failed at  22  side 2    Res =  0.3408E+03
 MRCHDU: Convergence failed at  23  side 2    Res =  0.4914E+03
 MRCHDU: Convergence failed at  24  side 2    Res =  0.3905E+03
 MRCHDU: Convergence failed at  25  side 2    Res =  0.7844E+02
 MRCHDU: Convergence failed at  26  side 2    Res =  0.6182E+02
 MRCHDU: Convergence failed at  27  side 2    Res =  0.8773E+02
 MRCHDU: Convergence failed at  28  side 2    Res =  0.8930E+02
 MRCHDU: Convergence failed at  29  side 2    Res =  0.7072E+02
 MRCHDU: Convergence failed at  30  side 2    Res =  0.8584E+02
 MRCHDU: Convergence failed at  31  side 2    Res =  0.9294E+02
 MRCHDU: Convergence failed at  32  side 2    Res =  0.1037E+03
 MRCHDU: Convergence failed at  33  side 2    Res =  0.1194E+03
 MRCHDU: Convergence failed at  34  side 2    Res =  0.1756E+03
 MRCHDU: Convergence failed at  35  side 2    Res =  0.2118E+03
 MRCHDU: Convergence failed at  36  side 2    Res =  0.2607E+03
 MRCHDU: Convergence failed at  37  side 2    Res =  0.3089E+03
 MRCHDU: Convergence failed at  38  side 2    Res =  0.3507E+03
 MRCHDU: Convergence failed at  39  side 2    Res =  0.3726E+03
 MRCHDU: Convergence failed at  40  side 2    Res =  0.3695E+03
 MRCHDU: Convergence failed at  41  side 2    Res =  0.3429E+03
 MRCHDU: Convergence failed at  42  side 2    Res =  0.1947E+03
 MRCHDU: Convergence failed at  43  side 2    Res =  0.1810E+03
 MRCHDU: Convergence failed at  44  side 2    Res =  0.1681E+03
 MRCHDU: Convergence failed at  45  side 2    Res =  0.1561E+03
 MRCHDU: Convergence failed at  46  side 2    Res =  0.1445E+03
 MRCHDU: Convergence failed at  47  side 2    Res =  0.1345E+03
 MRCHDU: Convergence failed at  48  side 2    Res =  0.1248E+03
 MRCHDU: Convergence failed at  49  side 2    Res =  0.1163E+03
 MRCHDU: Convergence failed at  50  side 2    Res =  0.1178E+03
 MRCHDU: Convergence failed at  51  side 2    Res =  0.1220E+03
 MRCHDU: Convergence failed at  52  side 2    Res =  0.1262E+03
 MRCHDU: Convergence failed at  53  side 2    Res =  0.1300E+03
 MRCHDU: Convergence failed at  54  side 2    Res =  0.1325E+03
 MRCHDU: Convergence failed at  55  side 2    Res =  0.1365E+03
 MRCHDU: Convergence failed at  56  side 2    Res =  0.1407E+03
 MRCHDU: Convergence failed at  57  side 2    Res =  0.1449E+03
 MRCHDU: Convergence failed at  58  side 2    Res =  0.1492E+03
 MRCHDU: Convergence failed at  59  side 2    Res =  0.1535E+03
 MRCHDU: Convergence failed at  60  side 2    Res =  0.1578E+03
 MRCHDU: Convergence failed at  61  side 2    Res =  0.1624E+03
 MRCHDU: Convergence failed at  62  side 2    Res =  0.1672E+03
 MRCHDU: Convergence failed at  63  side 2    Res =  0.2624E+03
 MRCHDU: Convergence failed at  64  side 2    Res =  0.1792E+03
 MRCHDU: Convergence failed at  65  side 2    Res =  0.1859E+03
 MRCHDU: Convergence failed at  66  side 2    Res =  0.5304E+05
 MRCHDU: Convergence failed at  67  side 2    Res =  0.1879E+03
 MRCHDU: Convergence failed at  68  side 2    Res =  0.2927E+05
 MRCHDU: Convergence failed at  69  side 2    Res =  0.1854E+03
 MRCHDU: Convergence failed at  70  side 2    Res =  0.2185E+03
 MRCHDU: Convergence failed at  71  side 2    Res =  0.4649E+03
 MRCHDU: Convergence failed at  72  side 2    Res =  0.3237E+03
 MRCHDU: Convergence failed at  73  side 2    Res =  0.2342E+03
 MRCHDU: Convergence failed at  74  side 2    Res =  0.1836E+03
 MRCHDU: Convergence failed at  75  side 2    Res =  0.1761E+03
 MRCHDU: Convergence failed at  76  side 2    Res =  0.1733E+03
 MRCHDU: Convergence failed at  77  side 2    Res =  0.1718E+03
 MRCHDU: Convergence failed at  78  side 2    Res =  0.1708E+03
 MRCHDU: Convergence failed at  79  side 2    Res =  0.1677E+03
 MRCHDU: Convergence failed at  80  side 2    Res =  0.1623E+03
 MRCHDU: Convergence failed at  81  side 2    Res =  0.1545E+03
 MRCHDU: Convergence failed at  82  side 2    Res =  0.1469E+03
 MRCHDU: Convergence failed at  83  side 2    Res =  0.1399E+03
 MRCHDU: Convergence failed at  84  side 2    Res =  0.1326E+03
 MRCHDU: Convergence failed at  85  side 2    Res =  0.1661E+03
 Side 1  free  transition at x/c =  0.9367   71
 Side 2  free  transition at x/c =  0.0398   18

  69   rms: 0.1858E+01   max: 0.1251E+02   D at   87  2   RLX: 0.120
       a = -3.500      CL = -1.0389
      Cm =  0.2476     CD =  0.00408   =>   CDf =  0.00175    CDp =  0.00233

 Side 1  free  transition at x/c =  0.9479   72
 Side 2  free  transition at x/c =  0.0434   18
 idif Ue xi dudx           1  0.18466003      2.19881535E-03   83.981598    
 Uenew xinew           2  1.23140053E-03  1.46627426E-05

  70   rms: 0.1097E+01   max: 0.1651E+02   T at   18  2   RLX: 0.084
       a = -3.500      CL = -0.6187
      Cm =  0.1069     CD =  0.05759   =>   CDf =  0.00206    CDp =  0.05553

 Side 1  free  transition at x/c =  0.9713   73
 Side 2  free  transition at x/c =  0.0389   18

  71   rms: 0.4599E+01   max: 0.7905E+02   D at    2  2   RLX: 0.014
       a = -3.500      CL = -0.6266
      Cm =  0.1141     CD =  0.08020   =>   CDf =  0.00209    CDp =  0.07811

 Side 1  free  transition at x/c =  0.9734   73
 Side 2  free  transition at x/c =  0.0389   18

  72   rms: 0.7347E+00   max: -.4933E+01   C at   73  1   RLX: 0.101
       a = -3.500      CL = -0.6518
      Cm =  0.1182     CD =  0.08031   =>   CDf =  0.00208    CDp =  0.07823

 Side 1  free  transition at x/c =  0.9813   74
 Side 2  free  transition at x/c =  0.0778   21

  73   rms: 0.2193E+01   max: 0.1030E+02   T at   22  2   RLX: 0.146
       a = -3.500      CL = -0.6313
      Cm =  0.0811     CD =  0.10323   =>   CDf =  0.00199    CDp =  0.10124

 Side 1  free  transition at x/c =  0.9759   73
 Side 2  free  transition at x/c =  0.0485   19

  74   rms: 0.1705E+01   max: 0.2476E+02   T at   20  2   RLX: 0.021
       a = -3.500      CL = -0.8270
      Cm =  0.1208     CD =  0.06257   =>   CDf =  0.00196    CDp =  0.06061

 Side 1  free  transition at x/c =  0.9763   73
 Side 2  free  transition at x/c =  0.0402   19

  75   rms: 0.5820E+00   max: 0.4398E+01   T at   19  2   RLX: 0.341
       a = -3.500      CL = -0.6273
      Cm =  0.0736     CD =  0.05535   =>   CDf =  0.00198    CDp =  0.05338

 Side 1  free  transition at x/c =  0.9907   75
 Side 2  free  transition at x/c =  0.0328   18

  76   rms: 0.4022E+00   max: 0.1383E+01   D at   22  2   RLX: 0.622
       a = -3.500      CL = -0.1806
      Cm = -0.0403     CD =  0.04647   =>   CDf =  0.00201    CDp =  0.04446

 Side 1  free  transition at x/c =  0.9636   72
 Side 2  free  transition at x/c =  0.0320   18

  77   rms: 0.4025E+00   max: 0.1320E+01   T at   18  2   RLX: 0.387
       a = -3.500      CL = -0.0844
      Cm = -0.0762     CD =  0.04160   =>   CDf =  0.00197    CDp =  0.03963

 Side 1  free  transition at x/c =  0.9354   70
 Side 2  free  transition at x/c =  0.0293   18

  78   rms: 0.5416E+00   max: -.1628E+01   D at   88  2   RLX: 0.307
       a = -3.500      CL = -0.0843
      Cm = -0.0856     CD =  0.03860   =>   CDf =  0.00198    CDp =  0.03663

 Side 1  free  transition at x/c =  0.9215   69
 Side 2  free  transition at x/c =  0.0286   17

  79   rms: 0.4413E+00   max: -.1129E+01   D at   88  2   RLX: 0.443
       a = -3.500      CL = -0.1028
      Cm = -0.0836     CD =  0.07727   =>   CDf =  0.00206    CDp =  0.07521

 Side 1  free  transition at x/c =  0.9172   69
 Side 2  free  transition at x/c =  0.0286   17

  80   rms: 0.4376E+00   max: -.1214E+01   D at   88  2   RLX: 0.412
       a = -3.500      CL = -0.0666
      Cm = -0.0956     CD =  0.07547   =>   CDf =  0.00250    CDp =  0.07297

 Side 1  free  transition at x/c =  0.9097   69
 Side 2  free  transition at x/c =  0.0285   17

  81   rms: 0.4312E+00   max: -.1433E+01   D at   88  2   RLX: 0.349
       a = -3.500      CL = -0.0345
      Cm = -0.1022     CD =  0.04855   =>   CDf =  0.00313    CDp =  0.04541

 Side 1  free  transition at x/c =  0.9027   68
 Side 2  free  transition at x/c =  0.0279   17

  82   rms: 0.5999E+00   max: -.3735E+01   T at   17  2   RLX: 0.134
       a = -3.500      CL = -0.0077
      Cm = -0.1026     CD =  0.01902   =>   CDf =  0.00473    CDp =  0.01428

 Side 1  free  transition at x/c =  0.9044   68
 Side 2  free  transition at x/c =  0.0285   17

  83   rms: 0.9848E+00   max: -.5556E+01   T at   17  2   RLX: 0.090
       a = -3.500      CL =  0.0083
      Cm = -0.1028     CD =  0.01499   =>   CDf =  0.00516    CDp =  0.00983

 Side 1  free  transition at x/c =  0.9053   68
 Side 2  free  transition at x/c =  0.0287   18

  84   rms: 0.3098E+00   max: -.1045E+01   D at   14  2   RLX: 0.479
       a = -3.500      CL =  0.0645
      Cm = -0.1063     CD =  0.00918   =>   CDf =  0.00526    CDp =  0.00392

 MRCHDU: Convergence failed at  18  side 2    Res =  0.4897E+02
 MRCHDU: Convergence failed at  19  side 2    Res =  0.4333E+02
 MRCHDU: Convergence failed at  20  side 2    Res =  0.2649E+02
 MRCHDU: Convergence failed at  21  side 2    Res =  0.3271E+02
 MRCHDU: Convergence failed at  22  side 2    Res =  0.4045E+02
 MRCHDU: Convergence failed at  23  side 2    Res =  0.1629E+03
 MRCHDU: Convergence failed at  24  side 2    Res =  0.9454E+02
 MRCHDU: Convergence failed at  25  side 2    Res =  0.3755E+02
 MRCHDU: Convergence failed at  26  side 2    Res =  0.4436E+02
 MRCHDU: Convergence failed at  27  side 2    Res =  0.5459E+02
 MRCHDU: Convergence failed at  28  side 2    Res =  0.6020E+02
 MRCHDU: Convergence failed at  29  side 2    Res =  0.7964E+02
 MRCHDU: Convergence failed at  30  side 2    Res =  0.1225E+03
 MRCHDU: Convergence failed at  31  side 2    Res =  0.1409E+03
 MRCHDU: Convergence failed at  32  side 2    Res =  0.1182E+03
 MRCHDU: Convergence failed at  33  side 2    Res =  0.1026E+03
 MRCHDU: Convergence failed at  34  side 2    Res =  0.1030E+03
 MRCHDU: Convergence failed at  35  side 2    Res =  0.7816E+02
 MRCHDU: Convergence failed at  36  side 2    Res =  0.7823E+02
 MRCHDU: Convergence failed at  37  side 2    Res =  0.7846E+02
 MRCHDU: Convergence failed at  38  side 2    Res =  0.7927E+02
 MRCHDU: Convergence failed at  39  side 2    Res =  0.8236E+02
 MRCHDU: Convergence failed at  40  side 2    Res =  0.8574E+02
 MRCHDU: Convergence failed at  41  side 2    Res =  0.9006E+02
 MRCHDU: Convergence failed at  42  side 2    Res =  0.9424E+02
 MRCHDU: Convergence failed at  43  side 2    Res =  0.9513E+02
 MRCHDU: Convergence failed at  44  side 2    Res =  0.9922E+02
 MRCHDU: Convergence failed at  45  side 2    Res =  0.1032E+03
 MRCHDU: Convergence failed at  46  side 2    Res =  0.1068E+03
 MRCHDU: Convergence failed at  47  side 2    Res =  0.1100E+03
 MRCHDU: Convergence failed at  48  side 2    Res =  0.1144E+03
 MRCHDU: Convergence failed at  49  side 2    Res =  0.1192E+03
 MRCHDU: Convergence failed at  50  side 2    Res =  0.1246E+03
 MRCHDU: Convergence failed at  51  side 2    Res =  0.1355E+03
 MRCHDU: Convergence failed at  52  side 2    Res =  0.1432E+03
 MRCHDU: Convergence failed at  53  side 2    Res =  0.1778E+03
 MRCHDU: Convergence failed at  54  side 2    Res =  0.1901E+03
 MRCHDU: Convergence failed at  55  side 2    Res =  0.2022E+03
 MRCHDU: Convergence failed at  56  side 2    Res =  0.2168E+03
 MRCHDU: Convergence failed at  57  side 2    Res =  0.2306E+03
 MRCHDU: Convergence failed at  58  side 2    Res =  0.2416E+03
 MRCHDU: Convergence failed at  59  side 2    Res =  0.2524E+03
 MRCHDU: Convergence failed at  60  side 2    Res =  0.2633E+03
 MRCHDU: Convergence failed at  61  side 2    Res =  0.2697E+03
 MRCHDU: Convergence failed at  62  side 2    Res =  0.2788E+03
 MRCHDU: Convergence failed at  63  side 2    Res =  0.2838E+03
 MRCHDU: Convergence failed at  64  side 2    Res =  0.2917E+03
 MRCHDU: Convergence failed at  65  side 2    Res =  0.3006E+03
 MRCHDU: Convergence failed at  66  side 2    Res =  0.3138E+03
 MRCHDU: Convergence failed at  67  side 2    Res =  0.3308E+03
 MRCHDU: Convergence failed at  68  side 2    Res =  0.2820E+03
 MRCHDU: Convergence failed at  69  side 2    Res =  0.4203E+03
 MRCHDU: Convergence failed at  70  side 2    Res =  0.2909E+03
 MRCHDU: Convergence failed at  71  side 2    Res =  0.3293E+03
 MRCHDU: Convergence failed at  72  side 2    Res =  0.3527E+03
 MRCHDU: Convergence failed at  73  side 2    Res =  0.3724E+03
 MRCHDU: Convergence failed at  74  side 2    Res =  0.3350E+03
 MRCHDU: Convergence failed at  75  side 2    Res =  0.2572E+03
 MRCHDU: Convergence failed at  76  side 2    Res =  0.3085E+03
 MRCHDU: Convergence failed at  77  side 2    Res =  0.2687E+03
 MRCHDU: Convergence failed at  78  side 2    Res =  0.2637E+03
 MRCHDU: Convergence failed at  79  side 2    Res =  0.2615E+03
 MRCHDU: Convergence failed at  80  side 2    Res =  0.7761E+03
 MRCHDU: Convergence failed at  81  side 2    Res =  0.8475E+03
 MRCHDU: Convergence failed at  82  side 2    Res =  0.8678E+04
 MRCHDU: Convergence failed at  83  side 2    Res =  0.9169E+03
 MRCHDU: Convergence failed at  84  side 2    Res =  0.4398E+03
 MRCHDU: Convergence failed at  85  side 2    Res =  0.4915E+03
 MRCHDU: Convergence failed at  86  side 2    Res =  0.4112E+03
 MRCHDU: Convergence failed at  88  side 2    Res =  0.4029E-01
 Side 1  free  transition at x/c =  0.9095   69
 Side 2  free  transition at x/c =  0.0332   18

  85   rms: 0.2061E+01   max: 0.1180E+02   D at   88  2   RLX: 0.127
       a = -3.500      CL = -1.4166
      Cm =  0.3423     CD =  0.00374   =>   CDf =  0.00173    CDp =  0.00201

 MRCHDU: Convergence failed at  88  side 2    Res =  0.5775E+01
 Side 1  free  transition at x/c =  0.9147   69
 Side 2  free  transition at x/c =  0.0349   18

  86   rms: 0.5781E+00   max: -.2029E+01   C at   69  1   RLX: 0.246
       a = -3.500      CL = -0.5121
      Cm =  0.0704     CD =  0.04403   =>   CDf =  0.00213    CDp =  0.04190

 Side 1  free  transition at x/c =  0.9363   70
 Side 2  free  transition at x/c =  0.0361   18

  87   rms: 0.4613E+00   max: -.1083E+01   T at   70  1   RLX: 0.462
       a = -3.500      CL = -0.1902
      Cm = -0.0144     CD =  0.03925   =>   CDf =  0.00222    CDp =  0.03704

 MRCHDU: Convergence failed at  77  side 1    Res =  0.2455E+01
 Side 1 forced transition at x/c =  1.0000   77
 Side 2  free  transition at x/c =  0.0396   18
 idif Ue xi dudx           1  0.22978537      2.88951397E-03   79.523880    
 Uenew xinew           2  5.60930744E-02  7.05361366E-04

  88   rms: 0.4567E+00   max: 0.3612E+01   C at   77  1   RLX: 0.415
       a = -3.500      CL = -0.0916
      Cm = -0.0524     CD =  0.04544   =>   CDf =  0.00214    CDp =  0.04330

 TRCHEK2: N2 convergence failed.
 x:  0.05186  0.06231  0.06386  N:  8.679  9.000  9.026  Nx:  64.687   dN:-0.239E+00
 TRCHEK2: N2 convergence failed.
 x:  0.05186  0.05996  0.06386  N:  8.679  9.000  9.120  Nx:  87.712   dN:-0.454E+00
 TRCHEK2: N2 convergence failed.
 x:  0.05186  0.06242  0.06386  N:  8.679  9.000  9.023  Nx:  63.074   dN:-0.191E+00
 TRCHEK2: N2 convergence failed.
 x:  0.05186  0.06328  0.06386  N:  8.679  9.000  9.034  Nx:  52.217   dN: 0.436E+00
 TRCHEK2: N2 convergence failed.
 x:  0.05186  0.05994  0.06386  N:  8.679  9.000  9.120  Nx:  84.419   dN:-0.521E+00
 TRCHEK2: N2 convergence failed.
 x:  0.05186  0.06234  0.06386  N:  8.679  9.000  9.026  Nx:  62.414   dN:-0.287E+00
 TRCHEK2: N2 convergence failed.
 x:  0.05186  0.06328  0.06386  N:  8.679  9.000  9.034  Nx:  52.292   dN: 0.546E+00
 TRCHEK2: N2 convergence failed.
 x:  0.05186  0.05993  0.06386  N:  8.679  9.000  9.121  Nx:  77.977   dN:-0.614E+00
[...]
 x:  0.00000  0.00000  0.00000  N:    NaN  9.000    NaN  Nx:     NaN   dN:       NaN
 TRCHEK2: N2 convergence failed.
 x:  0.00000  0.00000  0.00000  N:    NaN  9.000    NaN  Nx:     NaN   dN:       NaN
 TRCHEK2: N2 convergence failed.
 x:  0.00000  0.00000  0.00000  N:    NaN  9.000    NaN  Nx:     NaN   dN:       NaN
 TRCHEK2: N2 convergence failed.
 x:  0.00000  0.00000  0.00000  N:    NaN  9.000    NaN  Nx:     NaN   dN:       NaN
 TRCHEK2: N2 convergence failed.
 x:  0.00000  0.00000  0.00000  N:    NaN  9.000    NaN  Nx:     NaN   dN:       NaN
 TRCHEK2: N2 convergence failed.
 x:  0.00000  0.00000  0.00000  N:    NaN  9.000    NaN  Nx:     NaN   dN:       NaN
 TRCHEK2: N2 convergence failed.
 x:  0.00000  0.00000  0.00000  N:    NaN  9.000    NaN  Nx:     NaN   dN:       NaN
 TRCHEK2: N2 convergence failed.
 x:  0.00000  0.00000  0.00000  N:    NaN  9.000    NaN  Nx:     NaN   dN:       NaN
 TRCHEK2: N2 convergence failed.
 x:  0.00000  0.00000  0.00000  N:    NaN  9.000    NaN  Nx:     NaN   dN:       NaN
 TRCHEK2: N2 convergence failed.
 x:  0.00000  0.00000  0.00000  N:    NaN  9.000    NaN  Nx:     NaN   dN:       NaN
 TRCHEK2: N2 convergence failed.
 x:  0.00000  0.00000  0.00000  N:    NaN  9.000    NaN  Nx:     NaN   dN:       NaN
 TRCHEK2: N2 convergence failed.
 x:  0.00000  0.00000  0.00000  N:    NaN  9.000    NaN  Nx:     NaN   dN:       NaN
 TRCHEK2: N2 convergence failed.
 x:  0.00000  0.00000  0.00000  N:    NaN  9.000    NaN  Nx:     NaN   dN:       NaN
 TRCHEK2: N2 convergence failed.
 x:  0.00000  0.00000  0.00000  N:    NaN  9.000    NaN  Nx:     NaN   dN:       NaN
 TRCHEK2: N2 convergence failed.
 x:  0.00000  0.00000  0.00000  N:    NaN  9.000    NaN  Nx:     NaN   dN:       NaN
 TRCHEK2: N2 convergence failed.
 x:  0.00000  0.00000  0.00000  N:    NaN  9.000    NaN  Nx:     NaN   dN:       NaN
 TRCHEK2: N2 convergence failed.
 x:  0.00000  0.00000  0.00000  N:    NaN  9.000    NaN  Nx:     NaN   dN:       NaN
 MRCHDU: Convergence failed at  20  side 1    Res =         NaN
 TRCHEK2: N2 convergence failed.
 x:  0.00000  0.00000  0.00000  N:    NaN  9.000    NaN  Nx:     NaN   dN:       NaN
 TRCHEK2: N2 convergence failed.
 x:  0.00000  0.00000  0.00000  N:    NaN  9.000    NaN  Nx:     NaN   dN:       NaN
 TRCHEK2: N2 convergence failed.
 x:  0.00000  0.00000  0.00000  N:    NaN  9.000    NaN  Nx:     NaN   dN:       NaN
 TRCHEK2: N2 convergence failed.
 x:  0.00000  0.00000  0.00000  N:    NaN  9.000    NaN  Nx:     NaN   dN:       NaN
 TRCHEK2: N2 convergence failed.
 x:  0.00000  0.00000  0.00000  N:    NaN  9.000    NaN  Nx:     NaN   dN:       NaN
 TRCHEK2: N2 convergence failed.
 x:  0.00000  0.00000  0.00000  N:    NaN  9.000    NaN  Nx:     NaN   dN:       NaN
 TRCHEK2: N2 convergence failed.
 x:  0.00000  0.00000  0.00000  N:    NaN  9.000    NaN  Nx:     NaN   dN:       NaN
 TRCHEK2: N2 convergence failed.
 x:  0.00000  0.00000  0.00000  N:    NaN  9.000    NaN  Nx:     NaN   dN:       NaN
 TRCHEK2: N2 convergence failed.
 x:  0.00000  0.00000  0.00000  N:    NaN  9.000    NaN  Nx:     NaN   dN:       NaN
 TRCHEK2: N2 convergence failed.
 x:  0.00000  0.00000  0.00000  N:    NaN  9.000    NaN  Nx:     NaN   dN:       NaN
 TRCHEK2: N2 convergence failed.
 x:  0.00000  0.00000  0.00000  N:    NaN  9.000    NaN  Nx:     NaN   dN:       NaN
 TRCHEK2: N2 convergence failed.
 x:  0.00000  0.00000  0.00000  N:    NaN  9.000    NaN  Nx:     NaN   dN:       NaN
 TRCHEK2: N2 convergence failed.
 x:  0.00000  0.00000  0.00000  N:    NaN  9.000    NaN  Nx:     NaN   dN:       NaN
 TRCHEK2: N2 convergence failed.
 x:  0.00000  0.00000  0.00000  N:    NaN  9.000    NaN  Nx:     NaN   dN:       NaN
 TRCHEK2: N2 convergence failed.
 x:  0.00000  0.00000  0.00000  N:    NaN  9.000    NaN  Nx:     NaN   dN:       NaN
 TRCHEK2: N2 convergence failed.
 x:  0.00000  0.00000  0.00000  N:    NaN  9.000    NaN  Nx:     NaN   dN:       NaN
 TRCHEK2: N2 convergence failed.
 x:  0.00000  0.00000  0.00000  N:    NaN  9.000    NaN  Nx:     NaN   dN:       NaN
 TRCHEK2: N2 convergence failed.
 x:  0.00000  0.00000  0.00000  N:    NaN  9.000    NaN  Nx:     NaN   dN:       NaN
 TRCHEK2: N2 convergence failed.
 x:  0.00000  0.00000  0.00000  N:    NaN  9.000    NaN  Nx:     NaN   dN:       NaN
 TRCHEK2: N2 convergence failed.
 x:  0.00000  0.00000  0.00000  N:    NaN  9.000    NaN  Nx:     NaN   dN:       NaN
 TRCHEK2: N2 convergence failed.
 x:  0.00000  0.00000  0.00000  N:    NaN  9.000    NaN  Nx:     NaN   dN:       NaN
 TRCHEK2: N2 convergence failed.
 x:  0.00000  0.00000  0.00000  N:    NaN  9.000    NaN  Nx:     NaN   dN:       NaN
 TRCHEK2: N2 convergence failed.
 x:  0.00000  0.00000  0.00000  N:    NaN  9.000    NaN  Nx:     NaN   dN:       NaN
 TRCHEK2: N2 convergence failed.
 x:  0.00000  0.00000  0.00000  N:    NaN  9.000    NaN  Nx:     NaN   dN:       NaN
 TRCHEK2: N2 convergence failed.
 x:  0.00000  0.00000  0.00000  N:    NaN  9.000    NaN  Nx:     NaN   dN:       NaN
 TRCHEK2: N2 convergence failed.
 x:  0.00000  0.00000  0.00000  N:    NaN  9.000    NaN  Nx:     NaN   dN:       NaN
 MRCHDU: Convergence failed at  21  side 1    Res =         NaN
 TRCHEK2: N2 convergence failed.
 x:  0.00000  0.00000  0.00000  N:    NaN  9.000    NaN  Nx:     NaN   dN:       NaN
 TRCHEK2: N2 convergence failed.
 x:  0.00000  0.00000  0.00000  N:    NaN  9.000    NaN  Nx:     NaN   dN:       NaN
 TRCHEK2: N2 convergence failed.
 x:  0.00000  0.00000  0.00000  N:    NaN  9.000    NaN  Nx:     NaN   dN:       NaN
 TRCHEK2: N2 convergence failed.
 x:  0.00000  0.00000  0.00000  N:    NaN  9.000    NaN  Nx:     NaN   dN:       NaN
 TRCHEK2: N2 convergence failed.
 x:  0.00000  0.00000  0.00000  N:    NaN  9.000    NaN  Nx:     NaN   dN:       NaN
 TRCHEK2: N2 convergence failed.
 x:  0.00000  0.00000  0.00000  N:    NaN  9.000    NaN  Nx:     NaN   dN:       NaN
 TRCHEK2: N2 convergence failed.
 x:  0.00000  0.00000  0.00000  N:    NaN  9.000    NaN  Nx:     NaN   dN:       NaN
 TRCHEK2: N2 convergence failed.
 x:  0.00000  0.00000  0.00000  N:    NaN  9.000    NaN  Nx:     NaN   dN:       NaN
 TRCHEK2: N2 convergence failed.
 x:  0.00000  0.00000  0.00000  N:    NaN  9.000    NaN  Nx:     NaN   dN:       NaN
 TRCHEK2: N2 convergence failed.
 x:  0.00000  0.00000  0.00000  N:    NaN  9.000    NaN  Nx:     NaN   dN:       NaN
 TRCHEK2: N2 convergence failed.
 x:  0.00000  0.00000  0.00000  N:    NaN  9.000    NaN  Nx:     NaN   dN:       NaN
 TRCHEK2: N2 convergence failed.
 x:  0.00000  0.00000  0.00000  N:    NaN  9.000    NaN  Nx:     NaN   dN:       NaN
 TRCHEK2: N2 convergence failed.
 x:  0.00000  0.00000  0.00000  N:    NaN  9.000    NaN  Nx:     NaN   dN:       NaN
 TRCHEK2: N2 convergence failed.
 x:  0.00000  0.00000  0.00000  N:    NaN  9.000    NaN  Nx:     NaN   dN:       NaN
 TRCHEK2: N2 convergence failed.
 x:  0.00000  0.00000  0.00000  N:    NaN  9.000    NaN  Nx:     NaN   dN:       NaN
 TRCHEK2: N2 convergence failed.
 x:  0.00000  0.00000  0.00000  N:    NaN  9.000    NaN  Nx:     NaN   dN:       NaN
 TRCHEK2: N2 convergence failed.
 x:  0.00000  0.00000  0.00000  N:    NaN  9.000    NaN  Nx:     NaN   dN:       NaN
 TRCHEK2: N2 convergence failed.
 x:  0.00000  0.00000  0.00000  N:    NaN  9.000    NaN  Nx:     NaN   dN:       NaN
 TRCHEK2: N2 convergence failed.
 x:  0.00000  0.00000  0.00000  N:    NaN  9.000    NaN  Nx:     NaN   dN:       NaN
 TRCHEK2: N2 convergence failed.
 x:  0.00000  0.00000  0.00000  N:    NaN  9.000    NaN  Nx:     NaN   dN:       NaN
 TRCHEK2: N2 convergence failed.
 x:  0.00000  0.00000  0.00000  N:    NaN  9.000    NaN  Nx:     NaN   dN:       NaN
 TRCHEK2: N2 convergence failed.
 x:  0.00000  0.00000  0.00000  N:    NaN  9.000    NaN  Nx:     NaN   dN:       NaN
 TRCHEK2: N2 convergence failed.
 x:  0.00000  0.00000  0.00000  N:    NaN  9.000    NaN  Nx:     NaN   dN:       NaN
 TRCHEK2: N2 convergence failed.
 x:  0.00000  0.00000  0.00000  N:    NaN  9.000    NaN  Nx:     NaN   dN:       NaN
 TRCHEK2: N2 convergence failed.
 x:  0.00000  0.00000  0.00000  N:    NaN  9.000    NaN  Nx:     NaN   dN:       NaN
 TRCHEK2: N2 convergence failed.
 x:  0.00000  0.00000  0.00000  N:    NaN  9.000    NaN  Nx:     NaN   dN:       NaN
 MRCHDU: Convergence failed at  22  side 1    Res =         NaN
 TRCHEK2: N2 convergence failed.
 x:  0.00000  0.00000  0.00000  N:    NaN  9.000    NaN  Nx:     NaN   dN:       NaN
 TRCHEK2: N2 convergence failed.
 x:  0.00000  0.00000  0.00000  N:    NaN  9.000    NaN  Nx:     NaN   dN:       NaN
 TRCHEK2: N2 convergence failed.
 x:  0.00000  0.00000  0.00000  N:    NaN  9.000    NaN  Nx:     NaN   dN:       NaN
 TRCHEK2: N2 convergence failed.
 x:  0.00000  0.00000  0.00000  N:    NaN  9.000    NaN  Nx:     NaN   dN:       NaN
 TRCHEK2: N2 convergence failed.
 x:  0.00000  0.00000  0.00000  N:    NaN  9.000    NaN  Nx:     NaN   dN:       NaN
 TRCHEK2: N2 convergence failed.
 x:  0.00000  0.00000  0.00000  N:    NaN  9.000    NaN  Nx:     NaN   dN:       NaN
 TRCHEK2: N2 convergence failed.
 x:  0.00000  0.00000  0.00000  N:    NaN  9.000    NaN  Nx:     NaN   dN:       NaN
 TRCHEK2: N2 convergence failed.
 x:  0.00000  0.00000  0.00000  N:    NaN  9.000    NaN  Nx:     NaN   dN:       NaN
 TRCHEK2: N2 convergence failed.
 x:  0.00000  0.00000  0.00000  N:    NaN  9.000    NaN  Nx:     NaN   dN:       NaN
 TRCHEK2: N2 convergence failed.
 x:  0.00000  0.00000  0.00000  N:    NaN  9.000    NaN  Nx:     NaN   dN:       NaN
 TRCHEK2: N2 convergence failed.
 x:  0.00000  0.00000  0.00000  N:    NaN  9.000    NaN  Nx:     NaN   dN:       NaN
 TRCHEK2: N2 convergence failed.
 x:  0.00000  0.00000  0.00000  N:    NaN  9.000    NaN  Nx:     NaN   dN:       NaN
 TRCHEK2: N2 convergence failed.
 x:  0.00000  0.00000  0.00000  N:    NaN  9.000    NaN  Nx:     NaN   dN:       NaN
 TRCHEK2: N2 convergence failed.
 x:  0.00000  0.00000  0.00000  N:    NaN  9.000    NaN  Nx:     NaN   dN:       NaN
 TRCHEK2: N2 convergence failed.
 x:  0.00000  0.00000  0.00000  N:    NaN  9.000    NaN  Nx:     NaN   dN:       NaN
 TRCHEK2: N2 convergence failed.
 x:  0.00000  0.00000  0.00000  N:    NaN  9.000    NaN  Nx:     NaN   dN:       NaN
 TRCHEK2: N2 convergence failed.
 x:  0.00000  0.00000  0.00000  N:    NaN  9.000    NaN  Nx:     NaN   dN:       NaN
 TRCHEK2: N2 convergence failed.
 x:  0.00000  0.00000  0.00000  N:    NaN  9.000    NaN  Nx:     NaN   dN:       NaN
 TRCHEK2: N2 convergence failed.
 x:  0.00000  0.00000  0.00000  N:    NaN  9.000    NaN  Nx:     NaN   dN:       NaN
 TRCHEK2: N2 convergence failed.
 x:  0.00000  0.00000  0.00000  N:    NaN  9.000    NaN  Nx:     NaN   dN:       NaN
 TRCHEK2: N2 convergence failed.
 x:  0.00000  0.00000  0.00000  N:    NaN  9.000    NaN  Nx:     NaN   dN:       NaN
 TRCHEK2: N2 convergence failed.
 x:  0.00000  0.00000  0.00000  N:    NaN  9.000    NaN  Nx:     NaN   dN:       NaN
 TRCHEK2: N2 convergence failed.
 x:  0.00000  0.00000  0.00000  N:    NaN  9.000    NaN  Nx:     NaN   dN:       NaN
 TRCHEK2: N2 convergence failed.
 x:  0.00000  0.00000  0.00000  N:    NaN  9.000    NaN  Nx:     NaN   dN:       NaN
 TRCHEK2: N2 convergence failed.
 x:  0.00000  0.00000  0.00000  N:    NaN  9.000    NaN  Nx:     NaN   dN:       NaN
 TRCHEK2: N2 convergence failed.
 x:  0.00000  0.00000  0.00000  N:    NaN  9.000    NaN  Nx:     NaN   dN:       NaN
 MRCHDU: Convergence failed at  23  side 1    Res =         NaN
 TRCHEK2: N2 convergence failed.
 x:  0.00000  0.00000  0.00000  N:    NaN  9.000    NaN  Nx:     NaN   dN:       NaN
 TRCHEK2: N2 convergence failed.
 x:  0.00000  0.00000  0.00000  N:    NaN  9.000    NaN  Nx:     NaN   dN:       NaN
 TRCHEK2: N2 convergence failed.
 x:  0.00000  0.00000  0.00000  N:    NaN  9.000    NaN  Nx:     NaN   dN:       NaN
 TRCHEK2: N2 convergence failed.
 x:  0.00000  0.00000  0.00000  N:    NaN  9.000    NaN  Nx:     NaN   dN:       NaN
 TRCHEK2: N2 convergence failed.
 x:  0.00000  0.00000  0.00000  N:    NaN  9.000    NaN  Nx:     NaN   dN:       NaN
 TRCHEK2: N2 convergence failed.
 x:  0.00000  0.00000  0.00000  N:    NaN  9.000    NaN  Nx:     NaN   dN:       NaN
 TRCHEK2: N2 convergence failed.
 x:  0.00000  0.00000  0.00000  N:    NaN  9.000    NaN  Nx:     NaN   dN:       NaN
 TRCHEK2: N2 convergence failed.
 x:  0.00000  0.00000  0.00000  N:    NaN  9.000    NaN  Nx:     NaN   dN:       NaN
 TRCHEK2: N2 convergence failed.
 x:  0.00000  0.00000  0.00000  N:    NaN  9.000    NaN  Nx:     NaN   dN:       NaN
 TRCHEK2: N2 convergence failed.
 x:  0.00000  0.00000  0.00000  N:    NaN  9.000    NaN  Nx:     NaN   dN:       NaN
 TRCHEK2: N2 convergence failed.
 x:  0.00000  0.00000  0.00000  N:    NaN  9.000    NaN  Nx:     NaN   dN:       NaN
 TRCHEK2: N2 convergence failed.
 x:  0.00000  0.00000  0.00000  N:    NaN  9.000    NaN  Nx:     NaN   dN:       NaN
 TRCHEK2: N2 convergence failed.
 x:  0.00000  0.00000  0.00000  N:    NaN  9.000    NaN  Nx:     NaN   dN:       NaN
 TRCHEK2: N2 convergence failed.
 x:  0.00000  0.00000  0.00000  N:    NaN  9.000    NaN  Nx:     NaN   dN:       NaN
 TRCHEK2: N2 convergence failed.
 x:  0.00000  0.00000  0.00000  N:    NaN  9.000    NaN  Nx:     NaN   dN:       NaN
 TRCHEK2: N2 convergence failed.
 x:  0.00000  0.00000  0.00000  N:    NaN  9.000    NaN  Nx:     NaN   dN:       NaN
 TRCHEK2: N2 convergence failed.
 x:  0.00000  0.00000  0.00000  N:    NaN  9.000    NaN  Nx:     NaN   dN:       NaN
 TRCHEK2: N2 convergence failed.
 x:  0.00000  0.00000  0.00000  N:    NaN  9.000    NaN  Nx:     NaN   dN:       NaN
 TRCHEK2: N2 convergence failed.
 x:  0.00000  0.00000  0.00000  N:    NaN  9.000    NaN  Nx:     NaN   dN:       NaN
 TRCHEK2: N2 convergence failed.
 x:  0.00000  0.00000  0.00000  N:    NaN  9.000    NaN  Nx:     NaN   dN:       NaN
 TRCHEK2: N2 convergence failed.
 x:  0.00000  0.00000  0.00000  N:    NaN  9.000    NaN  Nx:     NaN   dN:       NaN
 TRCHEK2: N2 convergence failed.
 x:  0.00000  0.00000  0.00000  N:    NaN  9.000    NaN  Nx:     NaN   dN:       NaN
 TRCHEK2: N2 convergence failed.
 x:  0.00000  0.00000  0.00000  N:    NaN  9.000    NaN  Nx:     NaN   dN:       NaN
 TRCHEK2: N2 convergence failed.
 x:  0.00000  0.00000  0.00000  N:    NaN  9.000    NaN  Nx:     NaN   dN:       NaN
 TRCHEK2: N2 convergence failed.
 x:  0.00000  0.00000  0.00000  N:    NaN  9.000    NaN  Nx:     NaN   dN:       NaN
 TRCHEK2: N2 convergence failed.
 x:  0.00000  0.00000  0.00000  N:    NaN  9.000    NaN  Nx:     NaN   dN:       NaN
 MRCHDU: Convergence failed at  24  side 1    Res =         NaN
 TRCHEK2: N2 convergence failed.
 x:  0.00000  0.00000  0.00000  N:    NaN  9.000    NaN  Nx:     NaN   dN:       NaN
 TRCHEK2: N2 convergence failed.
 x:  0.00000  0.00000  0.00000  N:    NaN  9.000    NaN  Nx:     NaN   dN:       NaN
 TRCHEK2: N2 convergence failed.
 x:  0.00000  0.00000  0.00000  N:    NaN  9.000    NaN  Nx:     NaN   dN:       NaN
 TRCHEK2: N2 convergence failed.
 x:  0.00000  0.00000  0.00000  N:    NaN  9.000    NaN  Nx:     NaN   dN:       NaN
 TRCHEK2: N2 convergence failed.
 x:  0.00000  0.00000  0.00000  N:    NaN  9.000    NaN  Nx:     NaN   dN:       NaN
 TRCHEK2: N2 convergence failed.
 x:  0.00000  0.00000  0.00000  N:    NaN  9.000    NaN  Nx:     NaN   dN:       NaN
 TRCHEK2: N2 convergence failed.
 x:  0.00000  0.00000  0.00000  N:    NaN  9.000    NaN  Nx:     NaN   dN:       NaN
 TRCHEK2: N2 convergence failed.
 x:  0.00000  0.00000  0.00000  N:    NaN  9.000    NaN  Nx:     NaN   dN:       NaN
 TRCHEK2: N2 convergence failed.
 x:  0.00000  0.00000  0.00000  N:    NaN  9.000    NaN  Nx:     NaN   dN:       NaN
 TRCHEK2: N2 convergence failed.
 x:  0.00000  0.00000  0.00000  N:    NaN  9.000    NaN  Nx:     NaN   dN:       NaN
 TRCHEK2: N2 convergence failed.
 x:  0.00000  0.00000  0.00000  N:    NaN  9.000    NaN  Nx:     NaN   dN:       NaN
 TRCHEK2: N2 convergence failed.
 x:  0.00000  0.00000  0.00000  N:    NaN  9.000    NaN  Nx:     NaN   dN:       NaN
 TRCHEK2: N2 convergence failed.
 x:  0.00000  0.00000  0.00000  N:    NaN  9.000    NaN  Nx:     NaN   dN:       NaN
 TRCHEK2: N2 convergence failed.
 x:  0.00000  0.00000  0.00000  N:    NaN  9.000    NaN  Nx:     NaN   dN:       NaN
 TRCHEK2: N2 convergence failed.
 x:  0.00000  0.00000  0.00000  N:    NaN  9.000    NaN  Nx:     NaN   dN:       NaN
 TRCHEK2: N2 convergence failed.
 x:  0.00000  0.00000  0.00000  N:    NaN  9.000    NaN  Nx:     NaN   dN:       NaN
 TRCHEK2: N2 convergence failed.
 x:  0.00000  0.00000  0.00000  N:    NaN  9.000    NaN  Nx:     NaN   dN:       NaN
 TRCHEK2: N2 convergence failed.
 x:  0.00000  0.00000  0.00000  N:    NaN  9.000    NaN  Nx:     NaN   dN:       NaN
 TRCHEK2: N2 convergence failed.
 x:  0.00000  0.00000  0.00000  N:    NaN  9.000    NaN  Nx:     NaN   dN:       NaN
 TRCHEK2: N2 convergence failed.
 x:  0.00000  0.00000  0.00000  N:    NaN  9.000    NaN  Nx:     NaN   dN:       NaN
 TRCHEK2: N2 convergence failed.
 x:  0.00000  0.00000  0.00000  N:    NaN  9.000    NaN  Nx:     NaN   dN:       NaN
 TRCHEK2: N2 convergence failed.
 x:  0.00000  0.00000  0.00000  N:    NaN  9.000    NaN  Nx:     NaN   dN:       NaN
 TRCHEK2: N2 convergence failed.
 x:  0.00000  0.00000  0.00000  N:    NaN  9.000    NaN  Nx:     NaN   dN:       NaN
 TRCHEK2: N2 convergence failed.
 x:  0.00000  0.00000  0.00000  N:    NaN  9.000    NaN  Nx:     NaN   dN:       NaN
 TRCHEK2: N2 convergence failed.
 x:  0.00000  0.00000  0.00000  N:    NaN  9.000    NaN  Nx:     NaN   dN:       NaN
 TRCHEK2: N2 convergence failed.
 x:  0.00000  0.00000  0.00000  N:    NaN  9.000    NaN  Nx:     NaN   dN:       NaN
 MRCHDU: Convergence failed at  25  side 1    Res =         NaN
 TRCHEK2: N2 convergence failed.
 x:  0.00000  0.00000  0.00000  N:    NaN  9.000    NaN  Nx:     NaN   dN:       NaN
 TRCHEK2: N2 convergence failed.
 x:  0.00000  0.00000  0.00000  N:    NaN  9.000    NaN  Nx:     NaN   dN:       NaN
 TRCHEK2: N2 convergence failed.
 x:  0.00000  0.00000  0.00000  N:    NaN  9.000    NaN  Nx:     NaN   dN:       NaN
 TRCHEK2: N2 convergence failed.
 x:  0.00000  0.00000  0.00000  N:    NaN  9.000    NaN  Nx:     NaN   dN:       NaN
 TRCHEK2: N2 convergence failed.
 x:  0.00000  0.00000  0.00000  N:    NaN  9.000    NaN  Nx:     NaN   dN:       NaN
 TRCHEK2: N2 convergence failed.
 x:  0.00000  0.00000  0.00000  N:    NaN  9.000    NaN  Nx:     NaN   dN:       NaN
 TRCHEK2: N2 convergence failed.
 x:  0.00000  0.00000  0.00000  N:    NaN  9.000    NaN  Nx:     NaN   dN:       NaN
 TRCHEK2: N2 convergence failed.
 x:  0.00000  0.00000  0.00000  N:    NaN  9.000    NaN  Nx:     NaN   dN:       NaN
 TRCHEK2: N2 convergence failed.
 x:  0.00000  0.00000  0.00000  N:    NaN  9.000    NaN  Nx:     NaN   dN:       NaN
 TRCHEK2: N2 convergence failed.
 x:  0.00000  0.00000  0.00000  N:    NaN  9.000    NaN  Nx:     NaN   dN:       NaN
 TRCHEK2: N2 convergence failed.
 x:  0.00000  0.00000  0.00000  N:    NaN  9.000    NaN  Nx:     NaN   dN:       NaN
 TRCHEK2: N2 convergence failed.
 x:  0.00000  0.00000  0.00000  N:    NaN  9.000    NaN  Nx:     NaN   dN:       NaN
 TRCHEK2: N2 convergence failed.
 x:  0.00000  0.00000  0.00000  N:    NaN  9.000    NaN  Nx:     NaN   dN:       NaN
 TRCHEK2: N2 convergence failed.
 x:  0.00000  0.00000  0.00000  N:    NaN  9.000    NaN  Nx:     NaN   dN:       NaN
 TRCHEK2: N2 convergence failed.
 x:  0.00000  0.00000  0.00000  N:    NaN  9.000    NaN  Nx:     NaN   dN:       NaN
 TRCHEK2: N2 convergence failed.
 x:  0.00000  0.00000  0.00000  N:    NaN  9.000    NaN  Nx:     NaN   dN:       NaN
 TRCHEK2: N2 convergence failed.
 x:  0.00000  0.00000  0.00000  N:    NaN  9.000    NaN  Nx:     NaN   dN:       NaN
 TRCHEK2: N2 convergence failed.
 x:  0.00000  0.00000  0.00000  N:    NaN  9.000    NaN  Nx:     NaN   dN:       NaN
 TRCHEK2: N2 convergence failed.
 x:  0.00000  0.00000  0.00000  N:    NaN  9.000    NaN  Nx:     NaN   dN:       NaN
 TRCHEK2: N2 convergence failed.

[TIMEOUT]
