
 ===================================================
  XFOIL Version 6.99
  Copyright (C) 2000   Mark Drela, Harold Youngren

  This software comes with ABSOLUTELY NO WARRANTY,
    subject to the GNU General Public License.

  Caveat computor
 ===================================================

 File  xfoil.def  not found

   QUIT    Exit program

  .OPER    Direct operating point(s)
  .MDES    Complex mapping design routine
  .QDES    Surface speed design routine
  .GDES    Geometry design routine

   SAVE f  Write airfoil to labeled coordinate file
   PSAV f  Write airfoil to plain coordinate file
   ISAV f  Write airfoil to ISES coordinate file
   MSAV f  Write airfoil to MSES coordinate file
   REVE    Reverse written-airfoil node ordering

   LOAD f  Read buffer airfoil from coordinate file
   NACA i  Set NACA 4,5-digit airfoil and buffer airfoil
   INTE    Set buffer airfoil by interpolating two airfoils
   NORM    Buffer airfoil normalization toggle
   XYCM rr Change CM reference location, currently  0.25000 0.00000

   BEND    Display structural properties of current airfoil

   PCOP    Set current-airfoil panel nodes directly from buffer airfoil points
   PANE    Set current-airfoil panel nodes ( 160 ) based on curvature
  .PPAR    Show/change paneling

  .PLOP    Plotting options

   WDEF f  Write  current-settings file
   RDEF f  Reread current-settings file
   NAME s  Specify new airfoil name
   NINC    Increment name version number

   Z       Zoom    | (available in all menus)
   U       Unzoom  | 

 XFOIL   c>  
 Labeled airfoil file.  Name:  USA 41 AIRFOIL                                  

 Number of input coordinate points:  33
 Counterclockwise ordering
 Max thickness =     0.066000  at x =   0.300
 Max camber    =     0.044119  at x =   0.400

  LE  x,y  =  -0.00016   0.00124  |   Chord =   1.00016
  TE  x,y  =   1.00000   0.00000  |

 Current airfoil nodes set from buffer airfoil nodes (  33 )

 WARNING: Poor input coordinate distribution
          Excessive panel angle   84.9  at i =  17
          Repaneling with PANE and/or PPAR suggested
           (doing GDES,CADD before repaneling _may_
            improve excessively coarse LE spacing

 XFOIL   c>  
 XFOIL   c>  
 Sharp trailing edge

 Paneling parameters used...
   Number of panel nodes       160
   Panel bunching parameter    1.000
   TE/LE panel density ratio   0.150
   Refined-area/LE panel density ratio    0.200
   Top    side refined area x/c limits  1.000 1.000
   Bottom side refined area x/c limits  1.000 1.000

 XFOIL   c>  
.OPERi   c>  
 Xtr/c     =  1.0000    top    side
 Xtr/c     =  1.0000    bottom side
 Ncrit     =    9.00   ( 0.070 % turb. level )
 Vacc      =  0.0100

 Klag  =  5.6000     Uxwt  =    1.00
 A     =  6.7000     B     =  0.7500       KCt = 0.01485
 CtiniK=  1.8000     CtiniX=  3.3000

..VPAR   c>  
..VPAR   c>  
.OPERi   c>  
 M  =    0.0000
 Re =    150000

.OPERv   c>  
.OPERv   c>  
.OPERv   c>  
 Polar  1 newly created for accumulation
 Airfoil archived with polar: USA 41 AIRFOIL                                  

Enter  polar save filename  OR  <return> for no file   s>  
 New polar save file available

Enter  polar dump filename  OR  <return> for no file   s>  
 Polar dump file will NOT be written

 Polar accumulation enabled

.OPERva   c>   Calculating unit vorticity distributions ...
 Calculating wake trajectory ...
 Calculating source influence matrix ...

 Solving BL system ...

 Initializing BL ...
    side            1  ...
 MRCHUE: Inverse mode at  61     Hk =   3.924
 MRCHUE: Inverse mode at  62     Hk =   4.191
 MRCHUE: Inverse mode at  63     Hk =   4.453
 MRCHUE: Inverse mode at  64     Hk =   4.709
 MRCHUE: Inverse mode at  65     Hk =   4.961
 MRCHUE: Inverse mode at  66     Hk =   5.212
 MRCHUE: Inverse mode at  67     Hk =   5.463
 MRCHUE: Inverse mode at  68     Hk =   5.715
 MRCHUE: Inverse mode at  69     Hk =   5.963
 MRCHUE: Inverse mode at  70     Hk =   6.209
 MRCHUE: Inverse mode at  71     Hk =   6.450
 MRCHUE: Inverse mode at  72     Hk =   6.667
 MRCHUE: Inverse mode at  73     Hk =   6.855
 MRCHUE: Inverse mode at  74     Hk =   7.018
 MRCHUE: Inverse mode at  75     Hk =   7.160
 MRCHUE: Inverse mode at  76     Hk =   7.246
    side            2  ...
 MRCHUE: Inverse mode at  16     Hk =   3.800
 MRCHUE: Convergence failed at  17  side 2    Res =  0.1334E+02
 MRCHUE: Convergence failed at  18  side 2    Res =  0.2287E+01
 MRCHUE: Inverse mode at  19     Hk =   5.075
 MRCHUE: Inverse mode at  20     Hk =   6.195
 MRCHUE: Inverse mode at  21     Hk =   7.224
 MRCHUE: Inverse mode at  22     Hk =   8.178
 MRCHUE: Inverse mode at  23     Hk =   9.062
 MRCHUE: Inverse mode at  24     Hk =   5.627
 MRCHUE: Inverse mode at  25     Hk =   3.451
 MRCHUE: Inverse mode at  26     Hk =   2.500
 MRCHUE: Inverse mode at  27     Hk =   2.500
 MRCHUE: Inverse mode at  28     Hk =   2.500
 MRCHUE: Inverse mode at  29     Hk =   2.500
 MRCHUE: Inverse mode at  30     Hk =   2.500

 MRCHDU: Convergence failed at  17  side 2    Res =  0.2412E+01
 MRCHDU: Convergence failed at  18  side 2    Res =  0.2414E+01
 MRCHDU: Convergence failed at  19  side 2    Res =  0.4209E+03
 MRCHDU: Convergence failed at  20  side 2    Res =  0.4307E+01
 MRCHDU: Convergence failed at  21  side 2    Res =  0.1178E+02
 MRCHDU: Convergence failed at  22  side 2    Res =  0.1295E+02
 MRCHDU: Convergence failed at  23  side 2    Res =  0.4413E+01
 MRCHDU: Convergence failed at  24  side 2    Res =  0.1079E+02
 MRCHDU: Convergence failed at  25  side 2    Res =  0.4707E+02
 MRCHDU: Convergence failed at  26  side 2    Res =  0.2227E+02
 MRCHDU: Convergence failed at  27  side 2    Res =  0.2379E+02
 MRCHDU: Convergence failed at  28  side 2    Res =  0.5484E+02
 MRCHDU: Convergence failed at  29  side 2    Res =  0.1101E+03
 MRCHDU: Convergence failed at  30  side 2    Res =  0.6866E+02
 MRCHDU: Convergence failed at  31  side 2    Res =  0.4237E+02
 MRCHDU: Convergence failed at  32  side 2    Res =  0.1609E+02
 MRCHDU: Convergence failed at  33  side 2    Res =  0.1501E+02
 MRCHDU: Convergence failed at  34  side 2    Res =  0.3145E+02
 MRCHDU: Convergence failed at  35  side 2    Res =  0.3292E+02
 MRCHDU: Convergence failed at  36  side 2    Res =  0.9088E+02
 MRCHDU: Convergence failed at  37  side 2    Res =  0.6189E+02
 MRCHDU: Convergence failed at  38  side 2    Res =  0.6802E+02
 MRCHDU: Convergence failed at  39  side 2    Res =  0.1937E+02
 MRCHDU: Convergence failed at  40  side 2    Res =  0.2016E+02
 MRCHDU: Convergence failed at  41  side 2    Res =  0.2123E+02
 MRCHDU: Convergence failed at  42  side 2    Res =  0.2242E+02
 MRCHDU: Convergence failed at  43  side 2    Res =  0.2375E+02
 MRCHDU: Convergence failed at  44  side 2    Res =  0.2449E+02
 MRCHDU: Convergence failed at  45  side 2    Res =  0.2561E+02
 MRCHDU: Convergence failed at  46  side 2    Res =  0.2622E+02
 MRCHDU: Convergence failed at  47  side 2    Res =  0.2742E+02
 MRCHDU: Convergence failed at  48  side 2    Res =  0.2838E+02
 MRCHDU: Convergence failed at  49  side 2    Res =  0.2967E+02
 MRCHDU: Convergence failed at  50  side 2    Res =  0.2167E+02
 MRCHDU: Convergence failed at  51  side 2    Res =  0.1447E+02
 MRCHDU: Convergence failed at  52  side 2    Res =  0.1608E+02
 MRCHDU: Convergence failed at  53  side 2    Res =  0.4749E+04
 MRCHDU: Convergence failed at  54  side 2    Res =  0.3132E+03
 MRCHDU: Convergence failed at  55  side 2    Res =  0.1672E+03
 MRCHDU: Convergence failed at  56  side 2    Res =  0.1199E+03
 MRCHDU: Convergence failed at  57  side 2    Res =  0.9770E+02
 MRCHDU: Convergence failed at  58  side 2    Res =  0.9133E+02
 MRCHDU: Convergence failed at  59  side 2    Res =  0.8827E+02
 MRCHDU: Convergence failed at  60  side 2    Res =  0.9010E+02
 MRCHDU: Convergence failed at  61  side 2    Res =  0.9109E+02
 MRCHDU: Convergence failed at  62  side 2    Res =  0.9796E+02
 MRCHDU: Convergence failed at  63  side 2    Res =  0.1029E+03
 MRCHDU: Convergence failed at  64  side 2    Res =  0.1096E+03
 MRCHDU: Convergence failed at  65  side 2    Res =  0.1140E+03
 MRCHDU: Convergence failed at  66  side 2    Res =  0.1184E+03
 MRCHDU: Convergence failed at  67  side 2    Res =  0.1235E+03
 MRCHDU: Convergence failed at  68  side 2    Res =  0.1260E+03
 MRCHDU: Convergence failed at  69  side 2    Res =  0.1302E+03
 MRCHDU: Convergence failed at  70  side 2    Res =  0.1348E+03
 MRCHDU: Convergence failed at  71  side 2    Res =  0.1358E+03
 MRCHDU: Convergence failed at  72  side 2    Res =  0.1420E+03
 MRCHDU: Convergence failed at  73  side 2    Res =  0.1414E+03
 MRCHDU: Convergence failed at  74  side 2    Res =  0.1533E+03
 MRCHDU: Convergence failed at  75  side 2    Res =  0.1832E+03
 MRCHDU: Convergence failed at  76  side 2    Res =  0.2281E+03
 MRCHDU: Convergence failed at  77  side 2    Res =  0.4082E+02
 MRCHDU: Convergence failed at  78  side 2    Res =  0.4673E+02
 MRCHDU: Convergence failed at  79  side 2    Res =  0.5613E+02
 MRCHDU: Convergence failed at  80  side 2    Res =  0.6796E+02
 MRCHDU: Convergence failed at  81  side 2    Res =  0.7084E+02
 MRCHDU: Convergence failed at  82  side 2    Res =  0.5331E+02
 MRCHDU: Convergence failed at  83  side 2    Res =  0.3881E+02
 MRCHDU: Convergence failed at  84  side 2    Res =  0.4970E+02
 MRCHDU: Convergence failed at  85  side 2    Res =  0.4130E+02
 MRCHDU: Convergence failed at  86  side 2    Res =  0.1662E+02
 Side 1 forced transition at x/c =  1.0000   76
 Side 2  free  transition at x/c =  0.1464   26
 idif Ue xi dudx           1  0.19310904      2.75230408E-03   70.162682    
 Uenew xinew           2  1.76481321E-03  2.51531601E-05

   1   rms: 0.2186E+01   max: -.3406E+02   D at    2  1   RLX: 0.015
       a = -4.000      CL = -2.4118
      Cm =  0.5826     CD =  0.00299   =>   CDf =  0.00415    CDp = -0.00116

 Side 1 forced transition at x/c =  1.0000   75
 Side 2 forced transition at x/c =  1.0000   87

   2   rms: 0.1700E+01   max: 0.2157E+02   D at    2  2   RLX: 0.052
       a = -4.000      CL = -2.2421
      Cm =  0.5399     CD =  0.00335   =>   CDf =  0.01158    CDp = -0.00823

 Side 1 forced transition at x/c =  1.0000   75
 Side 2 forced transition at x/c =  1.0000   87

   3   rms: 0.1101E+01   max: 0.3710E+01   D at   89  2   RLX: 0.235
       a = -4.000      CL = -1.6311
      Cm =  0.3604     CD =  0.00435   =>   CDf =  0.01108    CDp = -0.00673

 Side 1 forced transition at x/c =  1.0000   75
 Side 2 forced transition at x/c =  1.0000   87

   4   rms: 0.1012E+01   max: 0.3129E+01   D at   19  2   RLX: 0.332
       a = -4.000      CL = -1.0562
      Cm =  0.1896     CD =  0.00562   =>   CDf =  0.00884    CDp = -0.00322

 MRCHDU: Convergence failed at  21  side 2    Res =  0.1284E+01
 MRCHDU: Convergence failed at  22  side 2    Res =  0.1267E+02
 MRCHDU: Convergence failed at  23  side 2    Res =  0.5267E+01
 MRCHDU: Convergence failed at  24  side 2    Res =  0.1019E+02
 MRCHDU: Convergence failed at  25  side 2    Res =  0.1754E+01
 MRCHDU: Convergence failed at  26  side 2    Res =  0.1952E+01
 MRCHDU: Convergence failed at  27  side 2    Res =  0.2352E+01
 MRCHDU: Convergence failed at  28  side 2    Res =  0.2708E+01
 MRCHDU: Convergence failed at  29  side 2    Res =  0.2793E+01
 MRCHDU: Convergence failed at  30  side 2    Res =  0.3416E+01
 MRCHDU: Convergence failed at  31  side 2    Res =  0.3923E+01
 MRCHDU: Convergence failed at  32  side 2    Res =  0.4220E+01
 MRCHDU: Convergence failed at  33  side 2    Res =  0.4404E+01
 MRCHDU: Convergence failed at  34  side 2    Res =  0.4506E+01
 MRCHDU: Convergence failed at  35  side 2    Res =  0.4546E+01
 MRCHDU: Convergence failed at  36  side 2    Res =  0.4572E+01
 MRCHDU: Convergence failed at  37  side 2    Res =  0.4606E+01
 MRCHDU: Convergence failed at  38  side 2    Res =  0.3652E+01
 MRCHDU: Convergence failed at  39  side 2    Res =  0.3823E+01
 MRCHDU: Convergence failed at  40  side 2    Res =  0.3793E+01
 MRCHDU: Convergence failed at  41  side 2    Res =  0.5028E+01
 MRCHDU: Convergence failed at  42  side 2    Res =  0.5205E+01
 MRCHDU: Convergence failed at  43  side 2    Res =  0.5400E+01
 MRCHDU: Convergence failed at  44  side 2    Res =  0.5681E+01
 MRCHDU: Convergence failed at  45  side 2    Res =  0.5881E+01
 MRCHDU: Convergence failed at  46  side 2    Res =  0.6050E+01
 MRCHDU: Convergence failed at  47  side 2    Res =  0.6209E+01
 MRCHDU: Convergence failed at  48  side 2    Res =  0.5947E+01
 MRCHDU: Convergence failed at  49  side 2    Res =  0.6059E+01
 MRCHDU: Convergence failed at  50  side 2    Res =  0.5886E+01
 MRCHDU: Convergence failed at  51  side 2    Res =  0.6189E+01
 MRCHDU: Convergence failed at  52  side 2    Res =  0.6328E+01
 MRCHDU: Convergence failed at  53  side 2    Res =  0.6497E+01
 MRCHDU: Convergence failed at  54  side 2    Res =  0.7892E+01
 MRCHDU: Convergence failed at  55  side 2    Res =  0.7725E+01
 MRCHDU: Convergence failed at  56  side 2    Res =  0.7909E+01
 MRCHDU: Convergence failed at  57  side 2    Res =  0.8110E+01
 MRCHDU: Convergence failed at  58  side 2    Res =  0.8267E+01
 MRCHDU: Convergence failed at  59  side 2    Res =  0.8381E+01
 MRCHDU: Convergence failed at  60  side 2    Res =  0.8428E+01
 MRCHDU: Convergence failed at  61  side 2    Res =  0.8440E+01
 MRCHDU: Convergence failed at  62  side 2    Res =  0.8397E+01
 MRCHDU: Convergence failed at  63  side 2    Res =  0.8320E+01
 MRCHDU: Convergence failed at  64  side 2    Res =  0.8254E+01
 MRCHDU: Convergence failed at  65  side 2    Res =  0.8181E+01
 MRCHDU: Convergence failed at  66  side 2    Res =  0.8097E+01
 MRCHDU: Convergence failed at  67  side 2    Res =  0.8009E+01
 MRCHDU: Convergence failed at  68  side 2    Res =  0.7903E+01
 MRCHDU: Convergence failed at  69  side 2    Res =  0.6899E+01
 MRCHDU: Convergence failed at  70  side 2    Res =  0.6835E+01
 MRCHDU: Convergence failed at  71  side 2    Res =  0.6765E+01
 MRCHDU: Convergence failed at  72  side 2    Res =  0.6714E+01
 MRCHDU: Convergence failed at  73  side 2    Res =  0.6630E+01
 MRCHDU: Convergence failed at  74  side 2    Res =  0.6300E+01
 MRCHDU: Convergence failed at  75  side 2    Res =  0.6197E+01
 MRCHDU: Convergence failed at  76  side 2    Res =  0.6070E+01
 MRCHDU: Convergence failed at  77  side 2    Res =  0.5910E+01
 MRCHDU: Convergence failed at  78  side 2    Res =  0.5702E+01
 MRCHDU: Convergence failed at  79  side 2    Res =  0.4323E+01
 MRCHDU: Convergence failed at  80  side 2    Res =  0.4938E+01
 MRCHDU: Convergence failed at  81  side 2    Res =  0.5728E+01
 MRCHDU: Convergence failed at  82  side 2    Res =  0.7092E+01
 MRCHDU: Convergence failed at  83  side 2    Res =  0.6493E+01
 MRCHDU: Convergence failed at  84  side 2    Res =  0.6391E+01
 MRCHDU: Convergence failed at  85  side 2    Res =  0.5902E+01
 MRCHDU: Convergence failed at  86  side 2    Res =  0.5938E+01
 MRCHDU: Convergence failed at  87  side 2    Res =  0.9906E+02
 Side 1 forced transition at x/c =  1.0000   75
 Side 2  free  transition at x/c =  0.0975   24

   5   rms: 0.1223E+01   max: 0.1630E+01   D at   93  2   RLX: 0.191
       a = -4.000      CL = -1.6139
      Cm =  0.3573     CD =  0.00659   =>   CDf =  0.00349    CDp =  0.00310

 Side 1 forced transition at x/c =  1.0000   75
 Side 2  free  transition at x/c =  0.0717   22

   6   rms: 0.8888E+00   max: 0.2775E+01   D at   23  2   RLX: 0.344
       a = -4.000      CL = -1.0163
      Cm =  0.1803     CD =  0.01017   =>   CDf =  0.01576    CDp = -0.00558

 MRCHDU: Convergence failed at  22  side 2    Res =  0.8371E+02
 MRCHDU: Convergence failed at  23  side 2    Res =  0.1031E+02
 MRCHDU: Convergence failed at  24  side 2    Res =  0.2969E+02
 MRCHDU: Convergence failed at  25  side 2    Res =  0.6834E+02
 MRCHDU: Convergence failed at  26  side 2    Res =  0.1312E+02
 MRCHDU: Convergence failed at  27  side 2    Res =  0.1171E+02
 MRCHDU: Convergence failed at  28  side 2    Res =  0.5405E+02
 MRCHDU: Convergence failed at  29  side 2    Res =  0.4190E+02
 MRCHDU: Convergence failed at  30  side 2    Res =  0.2988E+02
 MRCHDU: Convergence failed at  31  side 2    Res =  0.2436E+02
 MRCHDU: Convergence failed at  32  side 2    Res =  0.2285E+02
 MRCHDU: Convergence failed at  33  side 2    Res =  0.2168E+02
 MRCHDU: Convergence failed at  34  side 2    Res =  0.2233E+02
 MRCHDU: Convergence failed at  35  side 2    Res =  0.2304E+02
 MRCHDU: Convergence failed at  36  side 2    Res =  0.2390E+02
 MRCHDU: Convergence failed at  37  side 2    Res =  0.2569E+02
 MRCHDU: Convergence failed at  38  side 2    Res =  0.2749E+02
 MRCHDU: Convergence failed at  39  side 2    Res =  0.2946E+02
 MRCHDU: Convergence failed at  40  side 2    Res =  0.3122E+02
 MRCHDU: Convergence failed at  41  side 2    Res =  0.3266E+02
 MRCHDU: Convergence failed at  42  side 2    Res =  0.3250E+02
 MRCHDU: Convergence failed at  43  side 2    Res =  0.3130E+02
 MRCHDU: Convergence failed at  44  side 2    Res =  0.3013E+02
 MRCHDU: Convergence failed at  45  side 2    Res =  0.2928E+02
 MRCHDU: Convergence failed at  46  side 2    Res =  0.2887E+02
 MRCHDU: Convergence failed at  47  side 2    Res =  0.3091E+02
 MRCHDU: Convergence failed at  48  side 2    Res =  0.3073E+02
 MRCHDU: Convergence failed at  49  side 2    Res =  0.3059E+02
 MRCHDU: Convergence failed at  50  side 2    Res =  0.2960E+02
 MRCHDU: Convergence failed at  51  side 2    Res =  0.2950E+02
 MRCHDU: Convergence failed at  52  side 2    Res =  0.2935E+02
 MRCHDU: Convergence failed at  53  side 2    Res =  0.2916E+02
 MRCHDU: Convergence failed at  54  side 2    Res =  0.2900E+02
 MRCHDU: Convergence failed at  55  side 2    Res =  0.2889E+02
 MRCHDU: Convergence failed at  56  side 2    Res =  0.2878E+02
 MRCHDU: Convergence failed at  57  side 2    Res =  0.2875E+02
 MRCHDU: Convergence failed at  58  side 2    Res =  0.2874E+02
 MRCHDU: Convergence failed at  59  side 2    Res =  0.2887E+02
 MRCHDU: Convergence failed at  60  side 2    Res =  0.2907E+02
 MRCHDU: Convergence failed at  61  side 2    Res =  0.2932E+02
 MRCHDU: Convergence failed at  62  side 2    Res =  0.2971E+02
 MRCHDU: Convergence failed at  63  side 2    Res =  0.3006E+02
 MRCHDU: Convergence failed at  64  side 2    Res =  0.3044E+02
 MRCHDU: Convergence failed at  65  side 2    Res =  0.3081E+02
 MRCHDU: Convergence failed at  66  side 2    Res =  0.3121E+02
 MRCHDU: Convergence failed at  67  side 2    Res =  0.3175E+02
 MRCHDU: Convergence failed at  68  side 2    Res =  0.3215E+02
 MRCHDU: Convergence failed at  69  side 2    Res =  0.3256E+02
 MRCHDU: Convergence failed at  70  side 2    Res =  0.3298E+02
 MRCHDU: Convergence failed at  71  side 2    Res =  0.3354E+02
 MRCHDU: Convergence failed at  72  side 2    Res =  0.3399E+02
 MRCHDU: Convergence failed at  73  side 2    Res =  0.3449E+02
 MRCHDU: Convergence failed at  74  side 2    Res =  0.3500E+02
 MRCHDU: Convergence failed at  75  side 2    Res =  0.3572E+02
 MRCHDU: Convergence failed at  76  side 2    Res =  0.3642E+02
 MRCHDU: Convergence failed at  77  side 2    Res =  0.3722E+02
 MRCHDU: Convergence failed at  78  side 2    Res =  0.3823E+02
 MRCHDU: Convergence failed at  79  side 2    Res =  0.3959E+02
 MRCHDU: Convergence failed at  80  side 2    Res =  0.4130E+02
 MRCHDU: Convergence failed at  81  side 2    Res =  0.4314E+02
 MRCHDU: Convergence failed at  82  side 2    Res =  0.4476E+02
 MRCHDU: Convergence failed at  83  side 2    Res =  0.4568E+02
 MRCHDU: Convergence failed at  84  side 2    Res =  0.4620E+02
 MRCHDU: Convergence failed at  85  side 2    Res =  0.4628E+02
 MRCHDU: Convergence failed at  86  side 2    Res =  0.4597E+02
 MRCHDU: Convergence failed at  87  side 2    Res =  0.3858E+02
 Side 1 forced transition at x/c =  1.0000   75
 Side 2  free  transition at x/c =  0.0622   21

   7   rms: 0.1213E+01   max: 0.3076E+01   D at   91  2   RLX: 0.459
       a = -4.000      CL = -0.9997
      Cm =  0.2139     CD =  0.01135   =>   CDf =  0.00327    CDp =  0.00808

 MRCHDU: Convergence failed at  89  side 2    Res =  0.9168E+01
 MRCHDU: Convergence failed at  90  side 2    Res =  0.4579E+01
 MRCHDU: Convergence failed at  91  side 2    Res =  0.4093E+01
 MRCHDU: Convergence failed at  92  side 2    Res =  0.2634E+02
 MRCHDU: Convergence failed at  93  side 2    Res =  0.4027E+01
 MRCHDU: Convergence failed at  94  side 2    Res =  0.5455E+01
 MRCHDU: Convergence failed at  95  side 2    Res =  0.8886E+01
 Side 1 forced transition at x/c =  1.0000   76
 Side 2  free  transition at x/c =  0.0710   21

   8   rms: 0.4322E+00   max: -.2620E+01   T at   21  2   RLX: 0.191
       a = -4.000      CL = -0.5161
      Cm =  0.0647     CD =  0.07004   =>   CDf =  0.00387    CDp =  0.06617

 Side 1 forced transition at x/c =  1.0000   76
 Side 2  free  transition at x/c =  0.0821   22

   9   rms: 0.6500E+01   max: -.9137E+02   T at   22  2   RLX: 0.005
       a = -4.000      CL = -0.4754
      Cm =  0.0564     CD =  0.08875   =>   CDf =  0.00393    CDp =  0.08482

 Side 1 forced transition at x/c =  1.0000   76
 Side 2  free  transition at x/c =  0.0895   22

  10   rms: 0.2527E+01   max: -.2984E+02   T at   22  2   RLX: 0.017
       a = -4.000      CL = -0.4753
      Cm =  0.0559     CD =  0.08885   =>   CDf =  0.00396    CDp =  0.08489

 Side 1 forced transition at x/c =  1.0000   76
 Side 2  free  transition at x/c =  0.0868   22

  11   rms: 0.3409E+00   max: -.2279E+01   T at   22  2   RLX: 0.219
       a = -4.000      CL = -0.4078
      Cm =  0.0378     CD =  0.07800   =>   CDf =  0.00394    CDp =  0.07406

 Side 1 forced transition at x/c =  1.0000   76
 Side 2  free  transition at x/c =  0.0863   22

  12   rms: 0.2875E+00   max: -.7772E+00   D at   83  2   RLX: 0.643
       a = -4.000      CL = -0.2291
      Cm = -0.0123     CD =  0.06099   =>   CDf =  0.00394    CDp =  0.05705

 Side 1 forced transition at x/c =  1.0000   76
 Side 2  free  transition at x/c =  0.0878   22

  13   rms: 0.2608E+00   max: -.8201E+00   D at  101  2   RLX: 0.610
       a = -4.000      CL = -0.2375
      Cm = -0.0271     CD =  0.06283   =>   CDf =  0.00385    CDp =  0.05898

 Side 1 forced transition at x/c =  1.0000   76
 Side 2  free  transition at x/c =  0.0890   22
 idif Ue xi dudx           1  0.18828790      2.96211243E-03   63.565414    
 Uenew xinew           2  1.49354255E-02  2.34961510E-04

  14   rms: 0.2943E+00   max: 0.1318E+01   D at   72  1   RLX: 0.641
       a = -4.000      CL = -0.3530
      Cm = -0.0173     CD =  0.06829   =>   CDf =  0.00354    CDp =  0.06476

 MRCHDU: Convergence failed at  61  side 2    Res =  0.5695E+00
 MRCHDU: Convergence failed at  63  side 2    Res =  0.1394E+01
 MRCHDU: Convergence failed at  64  side 2    Res =  0.2695E+01
 MRCHDU: Convergence failed at  65  side 2    Res =  0.4731E+01
 MRCHDU: Convergence failed at  66  side 2    Res =  0.1417E+02
 MRCHDU: Convergence failed at  67  side 2    Res =  0.5970E+01
 MRCHDU: Convergence failed at  68  side 2    Res =  0.1947E+01
 MRCHDU: Convergence failed at  69  side 2    Res =  0.2108E+01
 MRCHDU: Convergence failed at  70  side 2    Res =  0.2388E+01
 MRCHDU: Convergence failed at  71  side 2    Res =  0.2724E+01
 MRCHDU: Convergence failed at  72  side 2    Res =  0.3123E+01
 MRCHDU: Convergence failed at  73  side 2    Res =  0.3608E+01
 MRCHDU: Convergence failed at  74  side 2    Res =  0.4187E+01
 MRCHDU: Convergence failed at  75  side 2    Res =  0.4892E+01
 MRCHDU: Convergence failed at  76  side 2    Res =  0.6380E+01
 MRCHDU: Convergence failed at  77  side 2    Res =  0.8380E+01
 MRCHDU: Convergence failed at  78  side 2    Res =  0.1106E+02
 MRCHDU: Convergence failed at  79  side 2    Res =  0.1597E+02
 MRCHDU: Convergence failed at  80  side 2    Res =  0.2738E+02
 MRCHDU: Convergence failed at  81  side 2    Res =  0.4581E+02
 MRCHDU: Convergence failed at  82  side 2    Res =  0.2689E+02
 MRCHDU: Convergence failed at  83  side 2    Res =  0.2131E+02
 MRCHDU: Convergence failed at  84  side 2    Res =  0.1489E+02
 MRCHDU: Convergence failed at  85  side 2    Res =  0.1351E+02
 MRCHDU: Convergence failed at  86  side 2    Res =  0.1290E+02
 MRCHDU: Convergence failed at  87  side 2    Res =  0.2042E+02
 Side 1 forced transition at x/c =  1.0000   75
 Side 2  free  transition at x/c =  0.0641   22

  15   rms: 0.3744E+01   max: -.2467E+02   T at   22  2   RLX: 0.020
       a = -4.000      CL = -0.5431
      Cm =  0.0618     CD =  0.08372   =>   CDf =  0.00325    CDp =  0.08047

 Side 1 forced transition at x/c =  1.0000   76
 Side 2  free  transition at x/c =  0.0645   21

  16   rms: 0.2180E+01   max: -.2997E+02   T at   21  2   RLX: 0.017
       a = -4.000      CL = -0.5185
      Cm =  0.0518     CD =  0.08771   =>   CDf =  0.00328    CDp =  0.08442

 Side 1 forced transition at x/c =  1.0000   76
 Side 2  free  transition at x/c =  0.0648   21

  17   rms: 0.2829E+00   max: -.2233E+01   T at   21  2   RLX: 0.224
       a = -4.000      CL = -0.4614
      Cm =  0.0364     CD =  0.08900   =>   CDf =  0.00331    CDp =  0.08569

 MRCHDU: Convergence failed at  21  side 2    Res =  0.2293E+00
 Side 1 forced transition at x/c =  1.0000   76
 Side 2  free  transition at x/c =  0.0677   21
 idif Ue xi dudx           1  0.17952998      2.83277035E-03   63.376114    
 Uenew xinew           2  6.69374922E-03  1.05619431E-04

  18   rms: 0.5055E+00   max: 0.7129E+01   T at   21  2   RLX: 0.210
       a = -4.000      CL = -0.4153
      Cm =  0.0062     CD =  0.06727   =>   CDf =  0.00345    CDp =  0.06382

 Side 1 forced transition at x/c =  1.0000   75
 Side 2  free  transition at x/c =  0.0615   21

  19   rms: 0.2703E+00   max: -.2483E+01   D at    2  2   RLX: 0.201
       a = -4.000      CL = -0.4388
      Cm =  0.0216     CD =  0.07926   =>   CDf =  0.00326    CDp =  0.07600

 Side 1 forced transition at x/c =  1.0000   76
 Side 2  free  transition at x/c =  0.0620   20

  20   rms: 0.1937E+00   max: 0.8677E+00   T at   22  2   RLX: 0.708
       a = -4.000      CL = -0.3656
      Cm = -0.0008     CD =  0.07024   =>   CDf =  0.00324    CDp =  0.06700

 Side 1  free  transition at x/c =  0.9869   75
 Side 2  free  transition at x/c =  0.0638   20

  21   rms: 0.5158E+00   max: 0.1676E+01   T at   22  2   RLX: 0.471
       a = -4.000      CL = -0.1905
      Cm = -0.0594     CD =  0.07685   =>   CDf =  0.00326    CDp =  0.07360

 Side 1  free  transition at x/c =  0.9830   74
 Side 2  free  transition at x/c =  0.0628   20
 idif Ue xi dudx           1  0.18328549      2.76792049E-03   66.217758    
 Uenew xinew           2  2.69966992E-03  4.07695770E-05

  22   rms: 0.5596E+00   max: 0.2440E+01   D at   21  2   RLX: 0.615
       a = -4.000      CL = -0.1585
      Cm = -0.0677     CD =  0.03320   =>   CDf =  0.00670    CDp =  0.02649

 MRCHDU: Convergence failed at  29  side 2    Res =  0.3468E+02
 MRCHDU: Convergence failed at  30  side 2    Res =  0.6386E+02
 MRCHDU: Convergence failed at  31  side 2    Res =  0.5237E+02
 MRCHDU: Convergence failed at  32  side 2    Res =  0.5067E+02
 MRCHDU: Convergence failed at  33  side 2    Res =  0.6373E+02
 MRCHDU: Convergence failed at  34  side 2    Res =  0.8701E+02
 MRCHDU: Convergence failed at  35  side 2    Res =  0.1155E+03
 MRCHDU: Convergence failed at  36  side 2    Res =  0.1543E+03
 MRCHDU: Convergence failed at  37  side 2    Res =  0.2039E+03
 MRCHDU: Convergence failed at  38  side 2    Res =  0.2857E+03
 MRCHDU: Convergence failed at  39  side 2    Res =  0.4199E+03
 MRCHDU: Convergence failed at  40  side 2    Res =  0.6619E+03
 MRCHDU: Convergence failed at  41  side 2    Res =  0.1051E+04
 MRCHDU: Convergence failed at  42  side 2    Res =  0.2499E+04
 MRCHDU: Convergence failed at  43  side 2    Res =  0.1069E+05
 MRCHDU: Convergence failed at  44  side 2    Res =  0.7167E+04
 MRCHDU: Convergence failed at  45  side 2    Res =  0.3177E+04
 MRCHDU: Convergence failed at  46  side 2    Res =  0.2217E+04
 MRCHDU: Convergence failed at  47  side 2    Res =  0.1798E+04
 MRCHDU: Convergence failed at  48  side 2    Res =  0.1611E+04
 MRCHDU: Convergence failed at  49  side 2    Res =  0.1501E+04
 MRCHDU: Convergence failed at  50  side 2    Res =  0.1485E+04
 MRCHDU: Convergence failed at  51  side 2    Res =  0.1542E+04
 MRCHDU: Convergence failed at  52  side 2    Res =  0.1694E+04
 MRCHDU: Convergence failed at  53  side 2    Res =  0.1983E+04
 MRCHDU: Convergence failed at  54  side 2    Res =  0.2506E+04
 MRCHDU: Convergence failed at  55  side 2    Res =  0.3661E+04
 MRCHDU: Convergence failed at  56  side 2    Res =  0.9247E+04
 MRCHDU: Convergence failed at  57  side 2    Res =  0.3774E+04
 MRCHDU: Convergence failed at  58  side 2    Res =  0.3522E+04
 MRCHDU: Convergence failed at  59  side 2    Res =  0.8937E+04
 MRCHDU: Convergence failed at  60  side 2    Res =  0.2035E+04
 MRCHDU: Convergence failed at  61  side 2    Res =  0.2983E+04
 MRCHDU: Convergence failed at  62  side 2    Res =  0.2011E+04
 MRCHDU: Convergence failed at  63  side 2    Res =  0.2272E+04
 MRCHDU: Convergence failed at  64  side 2    Res =  0.2601E+04
 MRCHDU: Convergence failed at  65  side 2    Res =  0.2859E+04
 MRCHDU: Convergence failed at  66  side 2    Res =  0.3207E+04
 MRCHDU: Convergence failed at  67  side 2    Res =  0.3561E+04
 MRCHDU: Convergence failed at  68  side 2    Res =  0.3780E+04
 MRCHDU: Convergence failed at  69  side 2    Res =  0.4023E+04
 MRCHDU: Convergence failed at  70  side 2    Res =  0.3949E+04
 MRCHDU: Convergence failed at  71  side 2    Res =  0.3467E+04
 MRCHDU: Convergence failed at  72  side 2    Res =  0.1176E+04
 MRCHDU: Convergence failed at  73  side 2    Res =  0.4950E+03
 MRCHDU: Convergence failed at  74  side 2    Res =  0.2730E+03
 MRCHDU: Convergence failed at  75  side 2    Res =  0.2492E+03
 MRCHDU: Convergence failed at  76  side 2    Res =  0.2317E+03
 MRCHDU: Convergence failed at  77  side 2    Res =  0.2215E+03
 MRCHDU: Convergence failed at  78  side 2    Res =  0.2135E+03
 MRCHDU: Convergence failed at  79  side 2    Res =  0.2049E+03
 MRCHDU: Convergence failed at  80  side 2    Res =  0.1861E+03
 MRCHDU: Convergence failed at  81  side 2    Res =  0.1701E+03
 MRCHDU: Convergence failed at  82  side 2    Res =  0.1669E+03
 MRCHDU: Convergence failed at  83  side 2    Res =  0.1582E+03
 MRCHDU: Convergence failed at  84  side 2    Res =  0.1701E+03
 MRCHDU: Convergence failed at  85  side 2    Res =  0.1751E+03
 MRCHDU: Convergence failed at  86  side 2    Res =  0.1934E+03
 MRCHDU: Convergence failed at  87  side 2    Res =  0.4089E+04
 Side 1  free  transition at x/c =  0.9833   73
 Side 2 forced transition at x/c =  1.0000   87

  23   rms: 0.2627E+01   max: -.1573E+02   T at    2  2   RLX: 0.032
       a = -4.000      CL = -1.2830
      Cm =  0.3031     CD =  0.00864   =>   CDf =  0.00250    CDp =  0.00614

 Side 1  free  transition at x/c =  0.9888   75
 Side 2  free  transition at x/c =  0.3943   44
 idif Ue xi dudx           1  0.19806102      2.94470787E-03   67.259987    
 Uenew xinew           2  1.46328779E-02  2.17556953E-04

  24   rms: 0.1390E+02   max: 0.1724E+03   T at    2  1   RLX: 0.006
       a = -4.000      CL = -1.1327
      Cm =  0.2234     CD =  0.06209   =>   CDf =  0.00274    CDp =  0.05935

 Side 1  free  transition at x/c =  0.9851   73
 Side 2  free  transition at x/c =  0.3264   40

  25   rms: 0.2064E+02   max: 0.4435E+03   T at   40  2   RLX: 0.003
       a = -4.000      CL = -1.1573
      Cm =  0.2270     CD =  0.06106   =>   CDf =  0.00282    CDp =  0.05824

 Side 1  free  transition at x/c =  0.9805   73
 Side 2  free  transition at x/c =  0.2281   33

  26   rms: 0.1043E+02   max: 0.2350E+03   T at   33  2   RLX: 0.006
       a = -4.000      CL = -1.1912
      Cm =  0.2435     CD =  0.06889   =>   CDf =  0.00287    CDp =  0.06602

 Side 1  free  transition at x/c =  0.9822   73
 Side 2  free  transition at x/c =  0.1843   30

  27   rms: 0.4983E+01   max: 0.1182E+03   T at   30  2   RLX: 0.013
       a = -4.000      CL = -1.2151
      Cm =  0.2478     CD =  0.07308   =>   CDf =  0.00291    CDp =  0.07018

 Side 1  free  transition at x/c =  0.9849   73
 Side 2  free  transition at x/c =  0.1476   27

  28   rms: 0.1575E+02   max: -.1998E+03   T at   28  2   RLX: 0.003
       a = -4.000      CL = -1.2628
      Cm =  0.2690     CD =  0.08046   =>   CDf =  0.00294    CDp =  0.07752

 Side 1  free  transition at x/c =  0.9885   74
 Side 2  free  transition at x/c =  0.1346   26

  29   rms: 0.3002E+02   max: 0.4260E+03   T at   28  2   RLX: 0.004
       a = -4.000      CL = -1.2310
      Cm =  0.2540     CD =  0.08189   =>   CDf =  0.00298    CDp =  0.07891

 Side 1  free  transition at x/c =  0.9860   73
 Side 2  free  transition at x/c =  0.1320   26

  30   rms: 0.2015E+01   max: -.2207E+02   T at   73  1   RLX: 0.023
       a = -4.000      CL = -1.3243
      Cm =  0.2778     CD =  0.07844   =>   CDf =  0.00294    CDp =  0.07550

 Side 1 forced transition at x/c =  1.0000   75
 Side 2  free  transition at x/c =  0.1143   25

  31   rms: 0.1746E+01   max: -.1730E+02   T at   25  2   RLX: 0.029
       a = -4.000      CL = -1.2898
      Cm =  0.2732     CD =  0.07724   =>   CDf =  0.00298    CDp =  0.07426

 Side 1 forced transition at x/c =  1.0000   75
 Side 2  free  transition at x/c =  0.1119   25

  32   rms: 0.1507E+01   max: -.7073E+01   D at   74  1   RLX: 0.071
       a = -4.000      CL = -1.1815
      Cm =  0.2464     CD =  0.07306   =>   CDf =  0.00314    CDp =  0.06992

 Side 1 forced transition at x/c =  1.0000   75
 Side 2  free  transition at x/c =  0.1125   25

  33   rms: 0.1034E+01   max: -.8055E+01   C at   75  1   RLX: 0.062
       a = -4.000      CL = -1.1095
      Cm =  0.2234     CD =  0.08878   =>   CDf =  0.00358    CDp =  0.08519

 Side 1 forced transition at x/c =  1.0000   75
 Side 2  free  transition at x/c =  0.1128   25

  34   rms: 0.6217E+00   max: -.1952E+01   D at   73  1   RLX: 0.256
       a = -4.000      CL = -0.8831
      Cm =  0.1575     CD =  0.08208   =>   CDf =  0.00397    CDp =  0.07811

 MRCHDU: Convergence failed at  99  side 2    Res =  0.1294E+02
 MRCHDU: Convergence failed at 100  side 2    Res =  0.1805E+01
 MRCHDU: Convergence failed at 101  side 2    Res =  0.1431E+01
 MRCHDU: Convergence failed at 102  side 2    Res =  0.3213E+01
 MRCHDU: Convergence failed at 103  side 2    Res =  0.7960E+01
 Side 1 forced transition at x/c =  1.0000   76
 Side 2  free  transition at x/c =  0.1059   23

  35   rms: 0.5730E+00   max: 0.2521E+01   T at   24  2   RLX: 0.266
       a = -4.000      CL = -0.6730
      Cm =  0.1006     CD =  0.08349   =>   CDf =  0.00443    CDp =  0.07906

 Side 1 forced transition at x/c =  1.0000   76
 Side 2  free  transition at x/c =  0.1051   23

  36   rms: 0.4512E+00   max: -.1433E+01   C at  101  2   RLX: 0.349
       a = -4.000      CL = -0.4678
      Cm =  0.0441     CD =  0.08319   =>   CDf =  0.00463    CDp =  0.07855

 Side 1 forced transition at x/c =  1.0000   76
 Side 2  free  transition at x/c =  0.1042   23

  37   rms: 0.3794E+00   max: -.1451E+01   D at  107  2   RLX: 0.345
       a = -4.000      CL = -0.3576
      Cm =  0.0124     CD =  0.09397   =>   CDf =  0.00471    CDp =  0.08926

 MRCHDU: Convergence failed at 104  side 2    Res =  0.1699E+01
 MRCHDU: Convergence failed at 105  side 2    Res =  0.3482E+02
 Side 1 forced transition at x/c =  1.0000   76
 Side 2  free  transition at x/c =  0.0969   23

  38   rms: 0.3720E+00   max: -.1711E+01   D at  105  2   RLX: 0.292
       a = -4.000      CL = -0.3273
      Cm =  0.0002     CD =  0.09914   =>   CDf =  0.00471    CDp =  0.09443

 Side 1 forced transition at x/c =  1.0000   76
 Side 2  free  transition at x/c =  0.0930   23

  39   rms: 0.1053E+01   max: 0.7784E+01   T at   23  2   RLX: 0.193
       a = -4.000      CL = -0.3695
      Cm = -0.0113     CD =  0.12069   =>   CDf =  0.00468    CDp =  0.11602

 Side 1 forced transition at x/c =  1.0000   76
 Side 2  free  transition at x/c =  0.0890   22

  40   rms: 0.1536E+01   max: -.1334E+02   T at   22  2   RLX: 0.037
       a = -4.000      CL = -0.3116
      Cm = -0.0332     CD =  0.11604   =>   CDf =  0.00462    CDp =  0.11141

 Side 1 forced transition at x/c =  1.0000   76
 Side 2  free  transition at x/c =  0.0864   22

  41   rms: 0.3359E+00   max: -.1502E+01   D at  105  2   RLX: 0.333
       a = -4.000      CL = -0.2931
      Cm = -0.0374     CD =  0.07344   =>   CDf =  0.00447    CDp =  0.06898

 MRCHDU: Convergence failed at 108  side 2    Res =  0.4600E+01
 Side 1 forced transition at x/c =  1.0000   76
 Side 2  free  transition at x/c =  0.0874   22

  42   rms: 0.7367E+00   max: 0.6172E+01   D at  108  2   RLX: 0.185
       a = -4.000      CL = -0.1987
      Cm = -0.0443     CD =  0.06610   =>   CDf =  0.00422    CDp =  0.06188

 MRCHDU: Convergence failed at 108  side 2    Res =  0.1223E+01
 Side 1 forced transition at x/c =  1.0000   76
 Side 2  free  transition at x/c =  0.0860   22

  43   rms: 0.9311E+00   max: -.4395E+01   D at  106  2   RLX: 0.114
       a = -4.000      CL = -0.2857
      Cm = -0.0387     CD =  0.07899   =>   CDf =  0.00383    CDp =  0.07516

 Side 1 forced transition at x/c =  1.0000   76
 Side 2  free  transition at x/c =  0.0837   22

  44   rms: 0.4051E+00   max: -.2402E+01   D at  102  2   RLX: 0.208
       a = -4.000      CL = -0.3192
      Cm = -0.0370     CD =  0.06728   =>   CDf =  0.00404    CDp =  0.06324

 MRCHDU: Convergence failed at 107  side 2    Res =  0.3722E+01
 MRCHDU: Convergence failed at 108  side 2    Res =  0.1764E+01
 Side 1 forced transition at x/c =  1.0000   76
 Side 2  free  transition at x/c =  0.0784   22

  45   rms: 0.2951E+00   max: -.1604E+01   D at  104  2   RLX: 0.312
       a = -4.000      CL = -0.3391
      Cm = -0.0212     CD =  0.07341   =>   CDf =  0.00399    CDp =  0.06942

 Side 1 forced transition at x/c =  1.0000   76
 Side 2  free  transition at x/c =  0.0789   22

  46   rms: 0.3227E+00   max: -.1456E+01   D at  103  2   RLX: 0.343
       a = -4.000      CL = -0.3062
      Cm = -0.0335     CD =  0.06404   =>   CDf =  0.00390    CDp =  0.06014

 MRCHDU: Convergence failed at 108  side 2    Res =  0.2239E+01
 Side 1 forced transition at x/c =  1.0000   76
 Side 2  free  transition at x/c =  0.0783   22

  47   rms: 0.2868E+00   max: 0.1481E+01   D at   73  1   RLX: 0.494
       a = -4.000      CL = -0.2686
      Cm = -0.0358     CD =  0.05921   =>   CDf =  0.00367    CDp =  0.05554

 MRCHDU: Convergence failed at 108  side 2    Res =  0.8834E+01
 Side 1 forced transition at x/c =  1.0000   76
 Side 2  free  transition at x/c =  0.0787   22

  48   rms: 0.5172E+00   max: -.3340E+01   T at   22  2   RLX: 0.150
       a = -4.000      CL = -0.2465
      Cm = -0.0349     CD =  0.06907   =>   CDf =  0.00340    CDp =  0.06567

 Side 1 forced transition at x/c =  1.0000   76
 Side 2  free  transition at x/c =  0.0802   22

  49   rms: 0.7287E+01   max: -.8624E+02   T at   22  2   RLX: 0.006
       a = -4.000      CL = -0.2533
      Cm = -0.0266     CD =  0.07321   =>   CDf =  0.00335    CDp =  0.06986

 Side 1 forced transition at x/c =  1.0000   76
 Side 2  free  transition at x/c =  0.0808   22

  50   rms: 0.3868E+00   max: 0.3441E+01   T at   22  2   RLX: 0.433
       a = -4.000      CL = -0.3390
      Cm = -0.0155     CD =  0.06963   =>   CDf =  0.00340    CDp =  0.06622

 Side 1 forced transition at x/c =  1.0000   76
 Side 2  free  transition at x/c =  0.0688   21

  51   rms: 0.1860E+00   max: -.8678E+00   D at  105  2   RLX: 0.576
       a = -4.000      CL = -0.3220
      Cm = -0.0182     CD =  0.05766   =>   CDf =  0.00328    CDp =  0.05437

 Side 1  free  transition at x/c =  0.9817   74
 Side 2  free  transition at x/c =  0.0698   21

  52   rms: 0.1858E+00   max: -.2661E+01   T at   21  2   RLX: 0.188
       a = -4.000      CL = -0.2815
      Cm = -0.0264     CD =  0.05665   =>   CDf =  0.00318    CDp =  0.05347

 Side 1  free  transition at x/c =  0.9778   74
 Side 2  free  transition at x/c =  0.0717   21

  53   rms: 0.1657E+00   max: -.1458E+01   T at   21  2   RLX: 0.343
       a = -4.000      CL = -0.2376
      Cm = -0.0354     CD =  0.05147   =>   CDf =  0.00316    CDp =  0.04831

 Side 1  free  transition at x/c =  0.9744   73
 Side 2  free  transition at x/c =  0.0726   21

  54   rms: 0.1251E+00   max: -.6814E+00   D at   21  2   RLX: 0.734
       a = -4.000      CL = -0.1709
      Cm = -0.0497     CD =  0.03940   =>   CDf =  0.00323    CDp =  0.03618

 Side 1  free  transition at x/c =  0.9664   73
 Side 2  free  transition at x/c =  0.0765   21

  55   rms: 0.2169E+00   max: 0.7180E+00   T at   22  2   RLX: 0.889
       a = -4.000      CL = -0.1004
      Cm = -0.0733     CD =  0.03295   =>   CDf =  0.00332    CDp =  0.02963

 MRCHDU: Convergence failed at  34  side 2    Res =  0.1321E+03
 MRCHDU: Convergence failed at  35  side 2    Res =  0.3116E+04
 MRCHDU: Convergence failed at  36  side 2    Res =  0.5413E+03
 MRCHDU: Convergence failed at  37  side 2    Res =  0.1792E+03
 MRCHDU: Convergence failed at  38  side 2    Res =  0.1050E+03
 MRCHDU: Convergence failed at  39  side 2    Res =  0.1060E+03
 MRCHDU: Convergence failed at  40  side 2    Res =  0.8848E+02
 MRCHDU: Convergence failed at  41  side 2    Res =  0.7054E+02
 MRCHDU: Convergence failed at  42  side 2    Res =  0.7736E+02
 MRCHDU: Convergence failed at  43  side 2    Res =  0.1013E+04
 MRCHDU: Convergence failed at  44  side 2    Res =  0.1855E+03
 MRCHDU: Convergence failed at  45  side 2    Res =  0.2250E+04
 MRCHDU: Convergence failed at  46  side 2    Res =  0.4822E+03
 MRCHDU: Convergence failed at  47  side 2    Res =  0.1121E+04
 MRCHDU: Convergence failed at  48  side 2    Res =  0.4353E+03
 MRCHDU: Convergence failed at  49  side 2    Res =  0.2930E+03
 MRCHDU: Convergence failed at  50  side 2    Res =  0.3274E+03
 MRCHDU: Convergence failed at  51  side 2    Res =  0.3228E+03
 MRCHDU: Convergence failed at  52  side 2    Res =  0.2780E+03
 MRCHDU: Convergence failed at  53  side 2    Res =  0.2863E+03
 MRCHDU: Convergence failed at  54  side 2    Res =  0.2841E+03
 MRCHDU: Convergence failed at  55  side 2    Res =  0.2824E+03
 MRCHDU: Convergence failed at  56  side 2    Res =  0.2804E+03
 MRCHDU: Convergence failed at  57  side 2    Res =  0.2782E+03
 MRCHDU: Convergence failed at  58  side 2    Res =  0.2730E+03
 MRCHDU: Convergence failed at  59  side 2    Res =  0.2517E+03
 MRCHDU: Convergence failed at  60  side 2    Res =  0.1762E+03
 MRCHDU: Convergence failed at  61  side 2    Res =  0.1632E+03
 MRCHDU: Convergence failed at  62  side 2    Res =  0.1629E+03
 MRCHDU: Convergence failed at  63  side 2    Res =  0.2137E+03
 MRCHDU: Convergence failed at  64  side 2    Res =  0.2081E+03
 MRCHDU: Convergence failed at  65  side 2    Res =  0.2022E+03
 MRCHDU: Convergence failed at  66  side 2    Res =  0.1982E+03
 MRCHDU: Convergence failed at  67  side 2    Res =  0.1952E+03
 MRCHDU: Convergence failed at  68  side 2    Res =  0.1930E+03
 MRCHDU: Convergence failed at  69  side 2    Res =  0.1917E+03
 MRCHDU: Convergence failed at  70  side 2    Res =  0.1903E+03
 MRCHDU: Convergence failed at  71  side 2    Res =  0.1893E+03
 MRCHDU: Convergence failed at  72  side 2    Res =  0.1881E+03
 MRCHDU: Convergence failed at  73  side 2    Res =  0.1859E+03
 MRCHDU: Convergence failed at  74  side 2    Res =  0.1827E+03
 MRCHDU: Convergence failed at  75  side 2    Res =  0.1784E+03
 MRCHDU: Convergence failed at  76  side 2    Res =  0.1195E+03
 MRCHDU: Convergence failed at  77  side 2    Res =  0.1507E+03
 MRCHDU: Convergence failed at  78  side 2    Res =  0.1477E+03
 MRCHDU: Convergence failed at  79  side 2    Res =  0.1459E+03
 MRCHDU: Convergence failed at  80  side 2    Res =  0.1445E+03
 MRCHDU: Convergence failed at  81  side 2    Res =  0.1647E+03
 MRCHDU: Convergence failed at  82  side 2    Res =  0.1651E+03
 MRCHDU: Convergence failed at  83  side 2    Res =  0.1675E+03
 MRCHDU: Convergence failed at  84  side 2    Res =  0.1441E+03
 MRCHDU: Convergence failed at  85  side 2    Res =  0.1483E+03
 MRCHDU: Convergence failed at  86  side 2    Res =  0.1536E+03
 MRCHDU: Convergence failed at 108  side 2    Res =  0.1664E+01
 Side 1  free  transition at x/c =  0.9674   73
 Side 2  free  transition at x/c =  0.2455   33

  56   rms: 0.2641E+01   max: 0.5036E+02   T at   33  2   RLX: 0.016
       a = -4.000      CL = -0.9432
      Cm =  0.2209     CD =  0.00879   =>   CDf =  0.00262    CDp =  0.00617

 Side 1  free  transition at x/c =  0.9696   73
 Side 2  free  transition at x/c =  0.2041   30

  57   rms: 0.3790E+02   max: -.4768E+03   T at   31  2   RLX: 0.001
       a = -4.000      CL = -0.8037
      Cm =  0.1675     CD =  0.07233   =>   CDf =  0.00294    CDp =  0.06939

 Side 1  free  transition at x/c =  0.9712   73
 Side 2  free  transition at x/c =  0.1911   30

  58   rms: 0.7660E+01   max: 0.1162E+03   T at   31  2   RLX: 0.013
       a = -4.000      CL = -0.7994
      Cm =  0.1558     CD =  0.07268   =>   CDf =  0.00296    CDp =  0.06972

 Side 1  free  transition at x/c =  0.9728   73
 Side 2  free  transition at x/c =  0.1812   29

  59   rms: 0.4050E+01   max: 0.7788E+02   T at   29  2   RLX: 0.019
       a = -4.000      CL = -0.8755
      Cm =  0.1696     CD =  0.06840   =>   CDf =  0.00292    CDp =  0.06548

 Side 1  free  transition at x/c =  0.9767   74
 Side 2  free  transition at x/c =  0.1458   26

  60   rms: 0.5962E+01   max: 0.9951E+02   T at   26  2   RLX: 0.009
       a = -4.000      CL = -0.9495
      Cm =  0.1957     CD =  0.07521   =>   CDf =  0.00293    CDp =  0.07227

 Side 1  free  transition at x/c =  0.9794   74
 Side 2  free  transition at x/c =  0.1253   25
 idif Ue xi dudx           1  0.20241410      3.13937664E-03   64.475891    
 Uenew xinew           2  2.65786201E-02  4.12225723E-04

  61   rms: 0.3841E+01   max: 0.7684E+02   T at   25  2   RLX: 0.020
       a = -4.000      CL = -0.9793
      Cm =  0.1988     CD =  0.07839   =>   CDf =  0.00289    CDp =  0.07550

 Side 1  free  transition at x/c =  0.9846   73
 Side 2  free  transition at x/c =  0.1074   25

  62   rms: 0.4031E+01   max: 0.5098E+02   T at   25  2   RLX: 0.029
       a = -4.000      CL = -1.0547
      Cm =  0.2111     CD =  0.08044   =>   CDf =  0.00293    CDp =  0.07751

 Side 1  free  transition at x/c =  0.9947   74
 Side 2  free  transition at x/c =  0.1032   24

  63   rms: 0.2402E+01   max: 0.2987E+02   T at   24  2   RLX: 0.033
       a = -4.000      CL = -1.0981
      Cm =  0.2229     CD =  0.08750   =>   CDf =  0.00292    CDp =  0.08458

 Side 1 forced transition at x/c =  1.0000   75
 Side 2  free  transition at x/c =  0.0883   23

  64   rms: 0.1566E+01   max: -.1025E+02   T at   23  2   RLX: 0.049
       a = -4.000      CL = -1.0898
      Cm =  0.2264     CD =  0.08496   =>   CDf =  0.00297    CDp =  0.08199

 Side 1 forced transition at x/c =  1.0000   75
 Side 2  free  transition at x/c =  0.0856   23

  65   rms: 0.1367E+01   max: -.7225E+01   D at   74  1   RLX: 0.069
       a = -4.000      CL = -1.0215
      Cm =  0.2074     CD =  0.08752   =>   CDf =  0.00322    CDp =  0.08430

 Side 1 forced transition at x/c =  1.0000   75
 Side 2  free  transition at x/c =  0.0866   23

  66   rms: 0.7536E+00   max: -.3661E+01   D at   73  1   RLX: 0.137
       a = -4.000      CL = -0.8967
      Cm =  0.1688     CD =  0.09081   =>   CDf =  0.00371    CDp =  0.08710

 Side 1 forced transition at x/c =  1.0000   76
 Side 2  free  transition at x/c =  0.0874   22

  67   rms: 0.6064E+00   max: -.3894E+01   D at    2  1   RLX: 0.128
       a = -4.000      CL = -0.8021
      Cm =  0.1388     CD =  0.11021   =>   CDf =  0.00412    CDp =  0.10610

 Side 1 forced transition at x/c =  1.0000   76
 Side 2  free  transition at x/c =  0.0878   22

  68   rms: 0.5176E+00   max: -.2237E+01   D at  108  2   RLX: 0.224
       a = -4.000      CL = -0.6678
      Cm =  0.0988     CD =  0.09684   =>   CDf =  0.00430    CDp =  0.09253

 Side 1 forced transition at x/c =  1.0000   76
 Side 2  free  transition at x/c =  0.0884   22

  69   rms: 0.4608E+00   max: -.2086E+01   D at  108  2   RLX: 0.240
       a = -4.000      CL = -0.5454
      Cm =  0.0626     CD =  0.10709   =>   CDf =  0.00456    CDp =  0.10253

 Side 1 forced transition at x/c =  1.0000   76
 Side 2  free  transition at x/c =  0.0891   22

  70   rms: 0.4132E+00   max: -.1283E+01   T at  108  2   RLX: 0.390
       a = -4.000      CL = -0.3807
      Cm =  0.0177     CD =  0.08363   =>   CDf =  0.00471    CDp =  0.07891

 Side 1 forced transition at x/c =  1.0000   76
 Side 2  free  transition at x/c =  0.0905   22

  71   rms: 0.3828E+00   max: -.1214E+01   D at  105  2   RLX: 0.412
       a = -4.000      CL = -0.2676
      Cm = -0.0146     CD =  0.08798   =>   CDf =  0.00474    CDp =  0.08325

 Side 1 forced transition at x/c =  1.0000   76
 Side 2  free  transition at x/c =  0.0914   22

  72   rms: 0.5435E+00   max: -.3066E+01   D at  106  2   RLX: 0.163
       a = -4.000      CL = -0.2913
      Cm = -0.0208     CD =  0.12870   =>   CDf =  0.00455    CDp =  0.12415

 MRCHDU: Convergence failed at 107  side 2    Res =  0.1032E+01
 MRCHDU: Convergence failed at 108  side 2    Res =  0.1074E+01
 Side 1 forced transition at x/c =  1.0000   76
 Side 2  free  transition at x/c =  0.0887   22

  73   rms: 0.3447E+01   max: 0.2764E+02   D at  108  2   RLX: 0.026
       a = -4.000      CL = -0.2248
      Cm = -0.0299     CD =  0.11755   =>   CDf =  0.00469    CDp =  0.11286

 Side 1 forced transition at x/c =  1.0000   76
 Side 2  free  transition at x/c =  0.0865   22

  74   rms: 0.3595E+00   max: -.1817E+01   D at  103  2   RLX: 0.275
       a = -4.000      CL = -0.2583
      Cm = -0.0310     CD =  0.08903   =>   CDf =  0.00445    CDp =  0.08459

 MRCHDU: Convergence failed at 106  side 2    Res =  0.5699E+01
 MRCHDU: Convergence failed at 107  side 2    Res =  0.2068E+02
 MRCHDU: Convergence failed at 108  side 2    Res =  0.4544E+01
 Side 1 forced transition at x/c =  1.0000   76
 Side 2  free  transition at x/c =  0.0863   22

  75   rms: 0.4881E+00   max: -.2781E+01   D at  103  2   RLX: 0.180
       a = -4.000      CL = -0.2983
      Cm = -0.0329     CD =  0.09381   =>   CDf =  0.00440    CDp =  0.08941

 Side 1 forced transition at x/c =  1.0000   76
 Side 2  free  transition at x/c =  0.0801   22
 idif Ue xi dudx           1  0.22686537      3.28648090E-03   69.029877    
 Uenew xinew           2  3.86104807E-02  5.59329987E-04

  76   rms: 0.1564E+02   max: 0.1732E+03   T at   22  2   RLX: 0.009
       a = -4.000      CL = -0.3972
      Cm = -0.0256     CD =  0.12060   =>   CDf =  0.00437    CDp =  0.11623

 Side 1 forced transition at x/c =  1.0000   75
 Side 2  free  transition at x/c =  0.0741   22

  77   rms: 0.4300E+00   max: -.3263E+01   D at  109  2   RLX: 0.153
       a = -4.000      CL = -0.3656
      Cm = -0.0437     CD =  0.08889   =>   CDf =  0.00448    CDp =  0.08441

 Side 1 forced transition at x/c =  1.0000   75
 Side 2  free  transition at x/c =  0.0726   22

  78   rms: 0.3642E+00   max: -.2393E+01   D at  108  2   RLX: 0.209
       a = -4.000      CL = -0.3407
      Cm = -0.0479     CD =  0.07710   =>   CDf =  0.00442    CDp =  0.07268

 Side 1 forced transition at x/c =  1.0000   75
 Side 2  free  transition at x/c =  0.0739   22

  79   rms: 0.3387E+00   max: -.1834E+01   D at  108  2   RLX: 0.273
       a = -4.000      CL = -0.3090
      Cm = -0.0523     CD =  0.06753   =>   CDf =  0.00427    CDp =  0.06326

 Side 1 forced transition at x/c =  1.0000   75
 Side 2  free  transition at x/c =  0.0751   22

  80   rms: 0.3031E+00   max: 0.1445E+01   D at   73  1   RLX: 0.385
       a = -4.000      CL = -0.2961
      Cm = -0.0528     CD =  0.05888   =>   CDf =  0.00403    CDp =  0.05485

 Side 1 forced transition at x/c =  1.0000   75
 Side 2  free  transition at x/c =  0.0755   22

  81   rms: 0.3063E+00   max: 0.1749E+01   D at   71  1   RLX: 0.609
       a = -4.000      CL = -0.3397
      Cm = -0.0310     CD =  0.06169   =>   CDf =  0.00374    CDp =  0.05795

 MRCHDU: Convergence failed at  70  side 2    Res =  0.9438E+00
 MRCHDU: Convergence failed at  71  side 2    Res =  0.1244E+01
 MRCHDU: Convergence failed at  72  side 2    Res =  0.1480E+01
 MRCHDU: Convergence failed at  73  side 2    Res =  0.1672E+01
 MRCHDU: Convergence failed at  74  side 2    Res =  0.1837E+01
 MRCHDU: Convergence failed at  75  side 2    Res =  0.1993E+01
 MRCHDU: Convergence failed at  76  side 2    Res =  0.2097E+01
 MRCHDU: Convergence failed at  77  side 2    Res =  0.2137E+01
 MRCHDU: Convergence failed at  78  side 2    Res =  0.2124E+01
 MRCHDU: Convergence failed at  79  side 2    Res =  0.2136E+01
 MRCHDU: Convergence failed at  80  side 2    Res =  0.2113E+01
 MRCHDU: Convergence failed at  81  side 2    Res =  0.1936E+01
 MRCHDU: Convergence failed at  82  side 2    Res =  0.1826E+01
 MRCHDU: Convergence failed at  83  side 2    Res =  0.1664E+01
 MRCHDU: Convergence failed at  84  side 2    Res =  0.1466E+01
 MRCHDU: Convergence failed at  85  side 2    Res =  0.1580E+01
 MRCHDU: Convergence failed at  86  side 2    Res =  0.1848E+01
 MRCHDU: Convergence failed at  87  side 2    Res =  0.2082E+01
 Side 1 forced transition at x/c =  1.0000   75
 Side 2  free  transition at x/c =  0.0649   22

  82   rms: 0.2344E+00   max: -.1172E+01   T at   22  2   RLX: 0.426
       a = -4.000      CL = -0.3937
      Cm =  0.0027     CD =  0.06733   =>   CDf =  0.00340    CDp =  0.06394

 Side 1 forced transition at x/c =  1.0000   76
 Side 2  free  transition at x/c =  0.0659   21

  83   rms: 0.2298E+00   max: -.2001E+01   T at    2  1   RLX: 0.250
       a = -4.000      CL = -0.3749
      Cm = -0.0014     CD =  0.07177   =>   CDf =  0.00330    CDp =  0.06847

 Side 1 forced transition at x/c =  1.0000   76
 Side 2  free  transition at x/c =  0.0672   21

  84   rms: 0.1658E+00   max: -.9397E+00   T at   21  2   RLX: 0.532
       a = -4.000      CL = -0.3255
      Cm = -0.0118     CD =  0.06578   =>   CDf =  0.00328    CDp =  0.06251

 Side 1  free  transition at x/c =  0.9984   76
 Side 2  free  transition at x/c =  0.0698   21

  85   rms: 0.1579E+00   max: -.1202E+01   T at   21  2   RLX: 0.416
       a = -4.000      CL = -0.2752
      Cm = -0.0245     CD =  0.06576   =>   CDf =  0.00328    CDp =  0.06248

 Side 1  free  transition at x/c =  0.9945   75
 Side 2  free  transition at x/c =  0.0719   21

  86   rms: 0.1351E+00   max: -.6655E+00   D at   21  2   RLX: 0.751
       a = -4.000      CL = -0.2194
      Cm = -0.0398     CD =  0.05706   =>   CDf =  0.00335    CDp =  0.05371

 Side 1  free  transition at x/c =  0.9890   75
 Side 2  free  transition at x/c =  0.0764   21

  87   rms: 0.2226E+00   max: 0.9048E+00   T at   22  2   RLX: 0.914
       a = -4.000      CL = -0.1347
      Cm = -0.0681     CD =  0.05342   =>   CDf =  0.00348    CDp =  0.04995

 Side 1  free  transition at x/c =  0.9863   74
 Side 2  free  transition at x/c =  0.0775   21

  88   rms: 0.5762E+00   max: 0.2261E+01   D at   29  2   RLX: 0.663
       a = -4.000      CL = -0.1399
      Cm = -0.0705     CD =  0.03634   =>   CDf =  0.00686    CDp =  0.02949

 MRCHDU: Convergence failed at  28  side 2    Res =  0.5986E+01
 MRCHDU: Convergence failed at  29  side 2    Res =  0.1444E+03
 MRCHDU: Convergence failed at  30  side 2    Res =  0.5700E+02
 MRCHDU: Convergence failed at  31  side 2    Res =  0.1238E+03
 MRCHDU: Convergence failed at  32  side 2    Res =  0.6527E+02
 MRCHDU: Convergence failed at  33  side 2    Res =  0.6084E+02
 MRCHDU: Convergence failed at  34  side 2    Res =  0.5953E+03
 MRCHDU: Convergence failed at  35  side 2    Res =  0.6393E+02
 MRCHDU: Convergence failed at  36  side 2    Res =  0.6120E+02
 MRCHDU: Convergence failed at  37  side 2    Res =  0.5563E+02
 MRCHDU: Convergence failed at  38  side 2    Res =  0.9118E+03
 MRCHDU: Convergence failed at  39  side 2    Res =  0.7038E+03
 MRCHDU: Convergence failed at  40  side 2    Res =  0.6031E+03
 MRCHDU: Convergence failed at  41  side 2    Res =  0.5448E+03
 MRCHDU: Convergence failed at  42  side 2    Res =  0.5091E+03
 MRCHDU: Convergence failed at  43  side 2    Res =  0.4856E+03
 MRCHDU: Convergence failed at  44  side 2    Res =  0.4695E+03
 MRCHDU: Convergence failed at  45  side 2    Res =  0.4583E+03
 MRCHDU: Convergence failed at  46  side 2    Res =  0.4510E+03
 MRCHDU: Convergence failed at  47  side 2    Res =  0.4506E+03
 MRCHDU: Convergence failed at  48  side 2    Res =  0.4554E+03
 MRCHDU: Convergence failed at  49  side 2    Res =  0.4651E+03
 MRCHDU: Convergence failed at  50  side 2    Res =  0.4783E+03
 MRCHDU: Convergence failed at  51  side 2    Res =  0.4955E+03
 MRCHDU: Convergence failed at  52  side 2    Res =  0.5167E+03
 MRCHDU: Convergence failed at  53  side 2    Res =  0.5400E+03
 MRCHDU: Convergence failed at  54  side 2    Res =  0.5599E+03
 MRCHDU: Convergence failed at  55  side 2    Res =  0.5730E+03
 MRCHDU: Convergence failed at  56  side 2    Res =  0.5702E+03
 MRCHDU: Convergence failed at  57  side 2    Res =  0.5446E+03
 MRCHDU: Convergence failed at  58  side 2    Res =  0.5221E+03
 MRCHDU: Convergence failed at  59  side 2    Res =  0.5308E+03
 MRCHDU: Convergence failed at  60  side 2    Res =  0.5376E+03
 MRCHDU: Convergence failed at  61  side 2    Res =  0.5403E+03
 MRCHDU: Convergence failed at  62  side 2    Res =  0.5404E+03
 MRCHDU: Convergence failed at  63  side 2    Res =  0.3037E+03
 MRCHDU: Convergence failed at  64  side 2    Res =  0.2909E+03
 MRCHDU: Convergence failed at  65  side 2    Res =  0.2798E+03
 MRCHDU: Convergence failed at  66  side 2    Res =  0.2694E+03
 MRCHDU: Convergence failed at  67  side 2    Res =  0.2600E+03
 MRCHDU: Convergence failed at  68  side 2    Res =  0.2520E+03
 MRCHDU: Convergence failed at  69  side 2    Res =  0.2448E+03
 MRCHDU: Convergence failed at  70  side 2    Res =  0.2382E+03
 MRCHDU: Convergence failed at  71  side 2    Res =  0.2317E+03
 MRCHDU: Convergence failed at  72  side 2    Res =  0.2251E+03
 MRCHDU: Convergence failed at  73  side 2    Res =  0.2187E+03
 MRCHDU: Convergence failed at  74  side 2    Res =  0.2115E+03
 MRCHDU: Convergence failed at  75  side 2    Res =  0.2077E+03
 MRCHDU: Convergence failed at  76  side 2    Res =  0.2041E+03
 MRCHDU: Convergence failed at  77  side 2    Res =  0.1997E+03
 MRCHDU: Convergence failed at  78  side 2    Res =  0.1945E+03
 MRCHDU: Convergence failed at  79  side 2    Res =  0.1581E+03
 MRCHDU: Convergence failed at  80  side 2    Res =  0.1516E+03
 MRCHDU: Convergence failed at  81  side 2    Res =  0.1474E+03
 MRCHDU: Convergence failed at  82  side 2    Res =  0.1472E+03
 MRCHDU: Convergence failed at  83  side 2    Res =  0.1493E+03
 MRCHDU: Convergence failed at  84  side 2    Res =  0.1532E+03
 MRCHDU: Convergence failed at  85  side 2    Res =  0.1591E+03
 MRCHDU: Convergence failed at  86  side 2    Res =  0.2244E+03
 Side 1  free  transition at x/c =  0.9832   74
 Side 2  free  transition at x/c =  0.2105   31

  89   rms: 0.3062E+01   max: 0.4126E+02   T at   31  2   RLX: 0.030
       a = -4.000      CL = -1.1945
      Cm =  0.2826     CD =  0.00870   =>   CDf =  0.00266    CDp =  0.00605

 Side 1  free  transition at x/c =  0.9889   75
 Side 2  free  transition at x/c =  0.1871   29

  90   rms: 0.5949E+01   max: 0.1224E+03   T at   29  2   RLX: 0.011
       a = -4.000      CL = -1.0038
      Cm =  0.2044     CD =  0.08262   =>   CDf =  0.00304    CDp =  0.07958

 Side 1  free  transition at x/c =  0.9929   75
 Side 2  free  transition at x/c =  0.1543   27
 idif Ue xi dudx           1  0.19722314      3.02648544E-03   65.165733    
 Uenew xinew           2  1.95063539E-02  2.99334526E-04

  91   rms: 0.3879E+01   max: 0.8201E+02   T at   27  2   RLX: 0.018
       a = -4.000      CL = -1.0370
      Cm =  0.2092     CD =  0.08584   =>   CDf =  0.00300    CDp =  0.08284

 Side 1  free  transition at x/c =  0.9971   75
 Side 2  free  transition at x/c =  0.1292   26

  92   rms: 0.3251E+01   max: 0.7278E+02   T at   26  2   RLX: 0.021
       a = -4.000      CL = -1.1118
      Cm =  0.2288     CD =  0.09120   =>   CDf =  0.00306    CDp =  0.08814

 Side 1 forced transition at x/c =  1.0000   75
 Side 2  free  transition at x/c =  0.1061   24

  93   rms: 0.2955E+01   max: 0.2879E+02   T at   25  2   RLX: 0.052
       a = -4.000      CL = -1.1032
      Cm =  0.2218     CD =  0.08168   =>   CDf =  0.00309    CDp =  0.07859

 Side 1 forced transition at x/c =  1.0000   75
 Side 2  free  transition at x/c =  0.1034   24

  94   rms: 0.1266E+01   max: -.6517E+01   D at   74  1   RLX: 0.077
       a = -4.000      CL = -1.0550
      Cm =  0.2046     CD =  0.07829   =>   CDf =  0.00327    CDp =  0.07502

 Side 1 forced transition at x/c =  1.0000   75
 Side 2  free  transition at x/c =  0.1041   24

  95   rms: 0.7535E+00   max: -.4113E+01   D at   73  1   RLX: 0.122
       a = -4.000      CL = -0.9377
      Cm =  0.1677     CD =  0.08326   =>   CDf =  0.00370    CDp =  0.07957

 Side 1 forced transition at x/c =  1.0000   75
 Side 2  free  transition at x/c =  0.1043   24

  96   rms: 0.5233E+00   max: -.1523E+01   C at  109  2   RLX: 0.328
       a = -4.000      CL = -0.6803
      Cm =  0.0950     CD =  0.07275   =>   CDf =  0.00420    CDp =  0.06855

 MRCHDU: Convergence failed at 101  side 2    Res =  0.2486E+01
 MRCHDU: Convergence failed at 102  side 2    Res =  0.8952E+00
 MRCHDU: Convergence failed at 103  side 2    Res =  0.2071E+01
 Side 1 forced transition at x/c =  1.0000   76
 Side 2  free  transition at x/c =  0.1038   23

  97   rms: 0.4323E+00   max: -.1269E+01   C at  103  2   RLX: 0.394
       a = -4.000      CL = -0.4525
      Cm =  0.0334     CD =  0.06991   =>   CDf =  0.00447    CDp =  0.06544

 Side 1 forced transition at x/c =  1.0000   76
 Side 2  free  transition at x/c =  0.1037   23

  98   rms: 0.3655E+00   max: -.1557E+01   D at  107  2   RLX: 0.321
       a = -4.000      CL = -0.3532
      Cm =  0.0037     CD =  0.09024   =>   CDf =  0.00454    CDp =  0.08570

 MRCHDU: Convergence failed at 104  side 2    Res =  0.8852E+00
 Side 1 forced transition at x/c =  1.0000   76
 Side 2  free  transition at x/c =  0.1004   23

  99   rms: 0.3518E+00   max: -.1751E+01   D at  107  2   RLX: 0.285
       a = -4.000      CL = -0.3071
      Cm = -0.0117     CD =  0.08917   =>   CDf =  0.00451    CDp =  0.08466

 Side 1 forced transition at x/c =  1.0000   76
 Side 2  free  transition at x/c =  0.0967   23

 100   rms: 0.3706E+00   max: -.1961E+01   D at  104  2   RLX: 0.255
       a = -4.000      CL = -0.2906
      Cm = -0.0214     CD =  0.08673   =>   CDf =  0.00444    CDp =  0.08229

 Side 1 forced transition at x/c =  1.0000   76
 Side 2  free  transition at x/c =  0.0936   23

 101   rms: 0.5846E+00   max: 0.3303E+01   T at   23  2   RLX: 0.235
       a = -4.000      CL = -0.3112
      Cm = -0.0326     CD =  0.08900   =>   CDf =  0.00436    CDp =  0.08464

 MRCHDU: Convergence failed at 105  side 2    Res =  0.1104E+00
 Side 1 forced transition at x/c =  1.0000   76
 Side 2  free  transition at x/c =  0.0895   22

 102   rms: 0.3002E+00   max: -.1430E+01   D at  106  2   RLX: 0.350
       a = -4.000      CL = -0.2851
      Cm = -0.0432     CD =  0.06981   =>   CDf =  0.00421    CDp =  0.06560

 Side 1 forced transition at x/c =  1.0000   76
 Side 2  free  transition at x/c =  0.0863   22

 103   rms: 0.2784E+00   max: -.1330E+01   D at  106  2   RLX: 0.376
       a = -4.000      CL = -0.2747
      Cm = -0.0452     CD =  0.06576   =>   CDf =  0.00401    CDp =  0.06175

 Side 1 forced transition at x/c =  1.0000   76
 Side 2  free  transition at x/c =  0.0818   22
 idif Ue xi dudx           1  0.24252649      3.93152237E-03   61.687679    
 Uenew xinew           2  7.42948800E-02  1.20437145E-03

 104   rms: 0.4759E+00   max: 0.3760E+01   T at   22  2   RLX: 0.388
       a = -4.000      CL = -0.3175
      Cm = -0.0506     CD =  0.05748   =>   CDf =  0.00371    CDp =  0.05377

 Side 1 forced transition at x/c =  1.0000   75
 Side 2  free  transition at x/c =  0.0769   22

 105   rms: 0.3604E+00   max: 0.1673E+01   D at   70  1   RLX: 0.600
       a = -4.000      CL = -0.3796
      Cm = -0.0173     CD =  0.07228   =>   CDf =  0.00356    CDp =  0.06872

 MRCHDU: Convergence failed at  60  side 2    Res =  0.8797E+00
 MRCHDU: Convergence failed at  61  side 2    Res =  0.1022E+01
 MRCHDU: Convergence failed at  62  side 2    Res =  0.1423E+01
 MRCHDU: Convergence failed at  63  side 2    Res =  0.2636E+01
 MRCHDU: Convergence failed at  64  side 2    Res =  0.8704E+01
 MRCHDU: Convergence failed at  65  side 2    Res =  0.1930E+01
 MRCHDU: Convergence failed at  66  side 2    Res =  0.1274E+01
 MRCHDU: Convergence failed at  67  side 2    Res =  0.1628E+01
 MRCHDU: Convergence failed at  68  side 2    Res =  0.1892E+01
 MRCHDU: Convergence failed at  69  side 2    Res =  0.2206E+01
 MRCHDU: Convergence failed at  70  side 2    Res =  0.2598E+01
 MRCHDU: Convergence failed at  71  side 2    Res =  0.3149E+01
 MRCHDU: Convergence failed at  72  side 2    Res =  0.3822E+01
 MRCHDU: Convergence failed at  73  side 2    Res =  0.4692E+01
 MRCHDU: Convergence failed at  74  side 2    Res =  0.5756E+01
 MRCHDU: Convergence failed at  75  side 2    Res =  0.7106E+01
 MRCHDU: Convergence failed at  76  side 2    Res =  0.8443E+01
 MRCHDU: Convergence failed at  77  side 2    Res =  0.1027E+02
 MRCHDU: Convergence failed at  78  side 2    Res =  0.1196E+02
 MRCHDU: Convergence failed at  79  side 2    Res =  0.1268E+02
 MRCHDU: Convergence failed at  80  side 2    Res =  0.1292E+02
 MRCHDU: Convergence failed at  81  side 2    Res =  0.1312E+02
 MRCHDU: Convergence failed at  82  side 2    Res =  0.1167E+02
 MRCHDU: Convergence failed at  83  side 2    Res =  0.8750E+01
 MRCHDU: Convergence failed at  84  side 2    Res =  0.7222E+01
 MRCHDU: Convergence failed at  85  side 2    Res =  0.5633E+01
 MRCHDU: Convergence failed at  86  side 2    Res =  0.4238E+01
 MRCHDU: Convergence failed at  87  side 2    Res =  0.3901E+01
 Side 1 forced transition at x/c =  1.0000   75
 Side 2  free  transition at x/c =  0.0640   21

 106   rms: 0.1556E+01   max: -.8522E+01   T at   22  2   RLX: 0.059
       a = -4.000      CL = -0.5488
      Cm =  0.0623     CD =  0.07818   =>   CDf =  0.00323    CDp =  0.07495

 Side 1 forced transition at x/c =  1.0000   75
 Side 2  free  transition at x/c =  0.0635   21

 107   rms: 0.4865E+00   max: 0.5685E+01   T at   22  2   RLX: 0.264
       a = -4.000      CL = -0.4723
      Cm =  0.0299     CD =  0.08233   =>   CDf =  0.00323    CDp =  0.07909

 Side 1 forced transition at x/c =  1.0000   75
 Side 2  free  transition at x/c =  0.0631   21

 108   rms: 0.4733E+00   max: 0.2287E+01   T at   22  2   RLX: 0.549
       a = -4.000      CL = -0.2577
      Cm = -0.0539     CD =  0.06389   =>   CDf =  0.00320    CDp =  0.06069

 Side 1  free  transition at x/c =  0.9899   74
 Side 2  free  transition at x/c =  0.0626   21

 109   rms: 0.4380E+00   max: 0.1708E+01   D at   34  2   RLX: 0.878
       a = -4.000      CL = -0.1747
      Cm = -0.0630     CD =  0.04336   =>   CDf =  0.00598    CDp =  0.03738

 MRCHDU: Convergence failed at  32  side 2    Res =  0.2221E+03
 MRCHDU: Convergence failed at  33  side 2    Res =  0.2378E+03
 MRCHDU: Convergence failed at  34  side 2    Res =  0.1284E+03
 MRCHDU: Convergence failed at  35  side 2    Res =  0.9894E+02
 MRCHDU: Convergence failed at  36  side 2    Res =  0.8637E+02
 MRCHDU: Convergence failed at  37  side 2    Res =  0.7929E+02
 MRCHDU: Convergence failed at  38  side 2    Res =  0.1758E+04
 MRCHDU: Convergence failed at  39  side 2    Res =  0.1514E+03
 MRCHDU: Convergence failed at  40  side 2    Res =  0.1123E+03
 MRCHDU: Convergence failed at  41  side 2    Res =  0.1065E+03
 MRCHDU: Convergence failed at  42  side 2    Res =  0.3502E+03
 MRCHDU: Convergence failed at  43  side 2    Res =  0.4090E+03
 MRCHDU: Convergence failed at  44  side 2    Res =  0.4724E+03
 MRCHDU: Convergence failed at  45  side 2    Res =  0.5417E+03
 MRCHDU: Convergence failed at  46  side 2    Res =  0.6195E+03
 MRCHDU: Convergence failed at  47  side 2    Res =  0.6986E+03
 MRCHDU: Convergence failed at  48  side 2    Res =  0.7839E+03
 MRCHDU: Convergence failed at  49  side 2    Res =  0.8559E+03
 MRCHDU: Convergence failed at  50  side 2    Res =  0.9094E+03
 MRCHDU: Convergence failed at  51  side 2    Res =  0.9267E+03
 MRCHDU: Convergence failed at  52  side 2    Res =  0.9133E+03
 MRCHDU: Convergence failed at  53  side 2    Res =  0.8970E+03
 MRCHDU: Convergence failed at  54  side 2    Res =  0.8843E+03
 MRCHDU: Convergence failed at  55  side 2    Res =  0.8792E+03
 MRCHDU: Convergence failed at  56  side 2    Res =  0.9204E+03
 MRCHDU: Convergence failed at  57  side 2    Res =  0.9624E+03
 MRCHDU: Convergence failed at  58  side 2    Res =  0.1010E+04
 MRCHDU: Convergence failed at  59  side 2    Res =  0.1074E+04
 MRCHDU: Convergence failed at  60  side 2    Res =  0.1157E+04
 MRCHDU: Convergence failed at  61  side 2    Res =  0.1268E+04
 MRCHDU: Convergence failed at  62  side 2    Res =  0.1417E+04
 MRCHDU: Convergence failed at  63  side 2    Res =  0.1513E+04
 MRCHDU: Convergence failed at  64  side 2    Res =  0.1545E+04
 MRCHDU: Convergence failed at  65  side 2    Res =  0.1576E+04
 MRCHDU: Convergence failed at  66  side 2    Res =  0.1621E+04
 MRCHDU: Convergence failed at  67  side 2    Res =  0.2924E+04
 MRCHDU: Convergence failed at  68  side 2    Res =  0.2126E+04
 MRCHDU: Convergence failed at  69  side 2    Res =  0.1666E+04
 MRCHDU: Convergence failed at  70  side 2    Res =  0.1323E+04
 MRCHDU: Convergence failed at  71  side 2    Res =  0.1093E+04
 MRCHDU: Convergence failed at  72  side 2    Res =  0.9198E+03
 MRCHDU: Convergence failed at  73  side 2    Res =  0.7864E+03
 MRCHDU: Convergence failed at  74  side 2    Res =  0.6720E+03
 MRCHDU: Convergence failed at  75  side 2    Res =  0.5795E+03
 MRCHDU: Convergence failed at  76  side 2    Res =  0.4993E+03
 MRCHDU: Convergence failed at  77  side 2    Res =  0.4282E+03
 MRCHDU: Convergence failed at  78  side 2    Res =  0.3711E+03
 MRCHDU: Convergence failed at  79  side 2    Res =  0.3246E+03
 MRCHDU: Convergence failed at  80  side 2    Res =  0.2441E+03
 MRCHDU: Convergence failed at  81  side 2    Res =  0.2226E+03
 MRCHDU: Convergence failed at  82  side 2    Res =  0.2132E+03
 MRCHDU: Convergence failed at  83  side 2    Res =  0.2095E+03
 MRCHDU: Convergence failed at  84  side 2    Res =  0.2120E+03
 MRCHDU: Convergence failed at  85  side 2    Res =  0.2185E+03
 MRCHDU: Convergence failed at  86  side 2    Res =  0.2500E+03
 Side 1  free  transition at x/c =  0.9804   74
 Side 2  free  transition at x/c =  0.3138   38

 110   rms: 0.4298E+01   max: 0.5634E+02   C at   38  2   RLX: 0.024
       a = -4.000      CL = -1.2117
      Cm =  0.2855     CD =  0.00882   =>   CDf =  0.00257    CDp =  0.00625

 Side 1  free  transition at x/c =  0.9851   74
 Side 2  free  transition at x/c =  0.2560   34
 idif Ue xi dudx           1  0.17625830      2.73239613E-03   64.506859    
 Uenew xinew           2  3.38351936E-04  5.24520874E-06

 111   rms: 0.5656E+01   max: 0.1296E+03   T at   34  2   RLX: 0.010
       a = -4.000      CL = -1.0357
      Cm =  0.2066     CD =  0.07174   =>   CDf =  0.00286    CDp =  0.06888

 Side 1  free  transition at x/c =  0.9884   74
 Side 2  free  transition at x/c =  0.2078   32

 112   rms: 0.1794E+03   max: -.3199E+04   D at    2  2   RLX: 0.000
       a = -4.000      CL = -1.0533
      Cm =  0.2161     CD =  0.07782   =>   CDf =  0.00301    CDp =  0.07480

 Side 1  free  transition at x/c =  0.9883   75
 Side 2  free  transition at x/c =  0.2076   31
 idif Ue xi dudx           1  0.18482414      2.76541710E-03   66.834091    
 Uenew xinew           2  2.55748560E-03  3.82661819E-05

 113   rms: 0.3878E+02   max: 0.6758E+03   T at    2  1   RLX: 0.002
       a = -4.000      CL = -1.0537
      Cm =  0.2145     CD =  0.07713   =>   CDf =  0.00290    CDp =  0.07423

 Side 1  free  transition at x/c =  0.9882   74
 Side 2  free  transition at x/c =  0.2046   31

 114   rms: 0.3546E+02   max: 0.5427E+03   D at    2  2   RLX: 0.002
       a = -4.000      CL = -1.0486
      Cm =  0.2100     CD =  0.07803   =>   CDf =  0.00296    CDp =  0.07507

 Side 1  free  transition at x/c =  0.9869   74
 Side 2  free  transition at x/c =  0.2035   31

 115   rms: 0.7798E+02   max: -.7276E+03   T at   32  2   RLX: 0.001
       a = -4.000      CL = -1.0733
      Cm =  0.2206     CD =  0.07804   =>   CDf =  0.00295    CDp =  0.07510

 Side 1  free  transition at x/c =  0.9896   74
 Side 2  free  transition at x/c =  0.1743   29

 116   rms: 0.9160E+01   max: 0.1505E+03   T at   29  2   RLX: 0.005
       a = -4.000      CL = -1.0867
      Cm =  0.2280     CD =  0.08490   =>   CDf =  0.00298    CDp =  0.08192

 Side 1  free  transition at x/c =  0.9923   74
 Side 2  free  transition at x/c =  0.1515   28

 117   rms: 0.6905E+01   max: 0.1187E+03   T at   28  2   RLX: 0.013
       a = -4.000      CL = -1.0931
      Cm =  0.2213     CD =  0.08522   =>   CDf =  0.00301    CDp =  0.08221

 Side 1  free  transition at x/c =  0.9936   74
 Side 2  free  transition at x/c =  0.1403   27

 118   rms: 0.4077E+01   max: 0.8506E+02   T at   27  2   RLX: 0.018
       a = -4.000      CL = -1.1706
      Cm =  0.2361     CD =  0.08404   =>   CDf =  0.00298    CDp =  0.08107

 Side 1  free  transition at x/c =  0.9978   75
 Side 2  free  transition at x/c =  0.1141   25

 119   rms: 0.3306E+01   max: 0.7509E+02   T at   25  2   RLX: 0.020
       a = -4.000      CL = -1.2658
      Cm =  0.2611     CD =  0.08978   =>   CDf =  0.00298    CDp =  0.08680

 Side 1 forced transition at x/c =  1.0000   75
 Side 2  free  transition at x/c =  0.0915   23

 120   rms: 0.2623E+01   max: 0.2633E+02   T at   24  2   RLX: 0.056
       a = -4.000      CL = -1.2658
      Cm =  0.2581     CD =  0.07865   =>   CDf =  0.00301    CDp =  0.07563

 Side 1 forced transition at x/c =  1.0000   75
 Side 2  free  transition at x/c =  0.0875   23

 121   rms: 0.1344E+01   max: -.6986E+01   D at   70  1   RLX: 0.072
       a = -4.000      CL = -1.2066
      Cm =  0.2368     CD =  0.07994   =>   CDf =  0.00324    CDp =  0.07671

 Side 1 forced transition at x/c =  1.0000   75
 Side 2  free  transition at x/c =  0.0881   23

 122   rms: 0.7905E+00   max: -.4135E+01   D at   73  1   RLX: 0.121
       a = -4.000      CL = -1.0747
      Cm =  0.1966     CD =  0.08528   =>   CDf =  0.00366    CDp =  0.08162

 Side 1 forced transition at x/c =  1.0000   75
 Side 2  free  transition at x/c =  0.0885   23

 123   rms: 0.5787E+00   max: -.1687E+01   C at  109  2   RLX: 0.296
       a = -4.000      CL = -0.7981
      Cm =  0.1211     CD =  0.07781   =>   CDf =  0.00410    CDp =  0.07371

 MRCHDU: Convergence failed at 102  side 2    Res =  0.3525E+02
 MRCHDU: Convergence failed at 103  side 2    Res =  0.1124E+01
 MRCHDU: Convergence failed at 104  side 2    Res =  0.1982E+01
 MRCHDU: Convergence failed at 105  side 2    Res =  0.7311E+01
 Side 1 forced transition at x/c =  1.0000   75
 Side 2  free  transition at x/c =  0.0899   23

 124   rms: 0.4883E+00   max: -.1421E+01   C at  102  2   RLX: 0.352
       a = -4.000      CL = -0.5510
      Cm =  0.0563     CD =  0.07488   =>   CDf =  0.00452    CDp =  0.07036

 Side 1 forced transition at x/c =  1.0000   76
 Side 2  free  transition at x/c =  0.0905   22

 125   rms: 0.4039E+00   max: -.1200E+01   D at  107  2   RLX: 0.417
       a = -4.000      CL = -0.3667
      Cm =  0.0051     CD =  0.07911   =>   CDf =  0.00457    CDp =  0.07454

 Side 1 forced transition at x/c =  1.0000   76
 Side 2  free  transition at x/c =  0.0914   22

 126   rms: 0.3563E+00   max: -.1626E+01   D at  107  2   RLX: 0.307
       a = -4.000      CL = -0.3178
      Cm = -0.0153     CD =  0.10244   =>   CDf =  0.00452    CDp =  0.09791

 Side 1 forced transition at x/c =  1.0000   76
 Side 2  free  transition at x/c =  0.0915   22

 127   rms: 0.3552E+00   max: -.2014E+01   D at  107  2   RLX: 0.248
       a = -4.000      CL = -0.3044
      Cm = -0.0259     CD =  0.10280   =>   CDf =  0.00446    CDp =  0.09834

 Side 1 forced transition at x/c =  1.0000   76
 Side 2  free  transition at x/c =  0.0906   22

 128   rms: 0.3536E+00   max: -.2379E+01   D at  107  2   RLX: 0.210
       a = -4.000      CL = -0.2982
      Cm = -0.0337     CD =  0.09654   =>   CDf =  0.00442    CDp =  0.09212

 Side 1 forced transition at x/c =  1.0000   76
 Side 2  free  transition at x/c =  0.0859   22

 129   rms: 0.3637E+00   max: -.2481E+01   D at  107  2   RLX: 0.202
       a = -4.000      CL = -0.3061
      Cm = -0.0357     CD =  0.08899   =>   CDf =  0.00439    CDp =  0.08460

 Side 1 forced transition at x/c =  1.0000   76
 Side 2  free  transition at x/c =  0.0817   22

 130   rms: 0.4289E+00   max: 0.2547E+01   T at   22  2   RLX: 0.197
       a = -4.000      CL = -0.3208
      Cm = -0.0373     CD =  0.08250   =>   CDf =  0.00432    CDp =  0.07818

 Side 1 forced transition at x/c =  1.0000   76
 Side 2  free  transition at x/c =  0.0788   22

 131   rms: 0.7766E+00   max: -.4960E+01   T at   22  2   RLX: 0.101
       a = -4.000      CL = -0.3183
      Cm = -0.0251     CD =  0.09706   =>   CDf =  0.00423    CDp =  0.09283

 Side 1 forced transition at x/c =  1.0000   76
 Side 2  free  transition at x/c =  0.0814   22

 132   rms: 0.3109E+00   max: -.1692E+01   D at  104  2   RLX: 0.296
       a = -4.000      CL = -0.3087
      Cm = -0.0280     CD =  0.07587   =>   CDf =  0.00424    CDp =  0.07163

 Side 1 forced transition at x/c =  1.0000   76
 Side 2  free  transition at x/c =  0.0811   22

 133   rms: 0.3024E+00   max: -.1627E+01   D at  104  2   RLX: 0.307
       a = -4.000      CL = -0.2857
      Cm = -0.0370     CD =  0.07093   =>   CDf =  0.00408    CDp =  0.06685

 Side 1 forced transition at x/c =  1.0000   76
 Side 2  free  transition at x/c =  0.0802   22
 idif Ue xi dudx           1  0.25307709      4.10532951E-03   61.645988    
 Uenew xinew           2  8.49591792E-02  1.37817860E-03

 134   rms: 0.8261E+00   max: 0.6036E+01   T at   22  2   RLX: 0.249
       a = -4.000      CL = -0.3168
      Cm = -0.0535     CD =  0.06417   =>   CDf =  0.00381    CDp =  0.06036

 MRCHDU: Convergence failed at 107  side 2    Res =  0.2184E-01
 MRCHDU: Convergence failed at 108  side 2    Res =  0.4536E+00
 MRCHDU: Convergence failed at 109  side 2    Res =  0.2375E+00
 Side 1 forced transition at x/c =  1.0000   75
 Side 2  free  transition at x/c =  0.0779   22

 135   rms: 0.3095E+00   max: -.1414E+01   D at  106  2   RLX: 0.353
       a = -4.000      CL = -0.3305
      Cm = -0.0419     CD =  0.06967   =>   CDf =  0.00368    CDp =  0.06599

 Side 1 forced transition at x/c =  1.0000   75
 Side 2  free  transition at x/c =  0.0760   22

 136   rms: 0.4369E+00   max: 0.2192E+01   T at   22  2   RLX: 0.457
       a = -4.000      CL = -0.3594
      Cm = -0.0166     CD =  0.06379   =>   CDf =  0.00354    CDp =  0.06025

 MRCHDU: Convergence failed at  81  side 2    Res =  0.2523E+01
 MRCHDU: Convergence failed at  82  side 2    Res =  0.2324E+01
 MRCHDU: Convergence failed at  83  side 2    Res =  0.2382E+01
 MRCHDU: Convergence failed at  84  side 2    Res =  0.2611E+01
 MRCHDU: Convergence failed at  85  side 2    Res =  0.3310E+01
 MRCHDU: Convergence failed at  86  side 2    Res =  0.3581E+01
 MRCHDU: Convergence failed at  87  side 2    Res =  0.5568E+01
 Side 1 forced transition at x/c =  1.0000   75
 Side 2  free  transition at x/c =  0.0658   22

 137   rms: 0.2136E+00   max: -.1348E+01   T at   22  2   RLX: 0.371
       a = -4.000      CL = -0.3819
      Cm =  0.0036     CD =  0.06124   =>   CDf =  0.00311    CDp =  0.05813

[...]
       a = 11.500      CL =  2.9834
      Cm = -0.6741     CD =  0.03790   =>   CDf =  0.00321    CDp =  0.03469

 MRCHDU: Convergence failed at  23  side 1    Res =  0.1460E+00
 MRCHDU: Convergence failed at  24  side 1    Res =  0.1195E+00
 MRCHDU: Convergence failed at  25  side 1    Res =  0.9226E-01
 MRCHDU: Convergence failed at  26  side 1    Res =  0.3022E+00
 MRCHDU: Convergence failed at  27  side 1    Res =  0.2911E+00
 MRCHDU: Convergence failed at  28  side 1    Res =  0.2842E+00
 MRCHDU: Convergence failed at  29  side 1    Res =  0.2782E+00
 MRCHDU: Convergence failed at  30  side 1    Res =  0.2707E+00
 MRCHDU: Convergence failed at  31  side 1    Res =  0.2619E+00
 MRCHDU: Convergence failed at  32  side 1    Res =  0.2529E+00
 MRCHDU: Convergence failed at  33  side 1    Res =  0.2448E+00
 MRCHDU: Convergence failed at  34  side 1    Res =  0.2380E+00
 MRCHDU: Convergence failed at  35  side 1    Res =  0.2323E+00
 MRCHDU: Convergence failed at  36  side 1    Res =  0.2273E+00
 MRCHDU: Convergence failed at  37  side 1    Res =  0.2230E+00
 MRCHDU: Convergence failed at  38  side 1    Res =  0.2191E+00
 MRCHDU: Convergence failed at  39  side 1    Res =  0.2153E+00
 MRCHDU: Convergence failed at  40  side 1    Res =  0.2115E+00
 MRCHDU: Convergence failed at  41  side 1    Res =  0.2077E+00
 MRCHDU: Convergence failed at  42  side 1    Res =  0.2039E+00
 MRCHDU: Convergence failed at  43  side 1    Res =  0.2002E+00
 MRCHDU: Convergence failed at  44  side 1    Res =  0.1966E+00
 MRCHDU: Convergence failed at  45  side 1    Res =  0.1931E+00
 MRCHDU: Convergence failed at  46  side 1    Res =  0.1899E+00
 MRCHDU: Convergence failed at  47  side 1    Res =  0.1869E+00
 MRCHDU: Convergence failed at  48  side 1    Res =  0.1843E+00
 MRCHDU: Convergence failed at  49  side 1    Res =  0.1818E+00
 MRCHDU: Convergence failed at  50  side 1    Res =  0.1795E+00
 MRCHDU: Convergence failed at  51  side 1    Res =  0.1772E+00
 MRCHDU: Convergence failed at  52  side 1    Res =  0.1750E+00
 MRCHDU: Convergence failed at  53  side 1    Res =  0.1728E+00
 MRCHDU: Convergence failed at  54  side 1    Res =  0.1706E+00
 MRCHDU: Convergence failed at  55  side 1    Res =  0.1683E+00
 MRCHDU: Convergence failed at  56  side 1    Res =  0.1660E+00
 MRCHDU: Convergence failed at  57  side 1    Res =  0.1638E+00
 MRCHDU: Convergence failed at  58  side 1    Res =  0.1615E+00
 MRCHDU: Convergence failed at  59  side 1    Res =  0.1594E+00
 MRCHDU: Convergence failed at  60  side 1    Res =  0.1574E+00
 MRCHDU: Convergence failed at  61  side 1    Res =  0.1556E+00
 MRCHDU: Convergence failed at  62  side 1    Res =  0.1538E+00
 MRCHDU: Convergence failed at  63  side 1    Res =  0.1522E+00
 MRCHDU: Convergence failed at  64  side 1    Res =  0.1507E+00
 MRCHDU: Convergence failed at  65  side 1    Res =  0.1493E+00
 MRCHDU: Convergence failed at  66  side 1    Res =  0.1480E+00
 MRCHDU: Convergence failed at  67  side 1    Res =  0.1467E+00
 MRCHDU: Convergence failed at  68  side 1    Res =  0.1455E+00
 MRCHDU: Convergence failed at  69  side 1    Res =  0.1443E+00
 MRCHDU: Convergence failed at  70  side 1    Res =  0.1431E+00
 MRCHDU: Convergence failed at  71  side 1    Res =  0.1417E+00
 MRCHDU: Convergence failed at  72  side 1    Res =  0.1401E+00
 MRCHDU: Convergence failed at  73  side 1    Res =  0.1384E+00
 MRCHDU: Convergence failed at  74  side 1    Res =  0.1363E+00
 MRCHDU: Convergence failed at  75  side 1    Res =  0.1341E+00
 MRCHDU: Convergence failed at  76  side 1    Res =  0.1320E+00
 MRCHDU: Convergence failed at  77  side 1    Res =  0.1302E+00
 MRCHDU: Convergence failed at  78  side 1    Res =  0.1289E+00
 MRCHDU: Convergence failed at  79  side 1    Res =  0.1283E+00
 MRCHDU: Convergence failed at  80  side 1    Res =  0.1287E+00
 MRCHDU: Convergence failed at  81  side 1    Res =  0.1299E+00
 MRCHDU: Convergence failed at  82  side 1    Res =  0.1277E+00
 MRCHDU: Convergence failed at  83  side 1    Res =  0.1264E+00
 MRCHDU: Convergence failed at  84  side 1    Res =  0.1245E+00
 MRCHDU: Convergence failed at  85  side 1    Res =  0.1118E+00
 MRCHDU: Convergence failed at  86  side 1    Res =  0.9711E-01
 MRCHDU: Convergence failed at  87  side 1    Res =  0.8382E-01
 MRCHDU: Convergence failed at  88  side 1    Res =  0.7307E-01
 MRCHDU: Convergence failed at  89  side 1    Res =  0.9329E-01
 Side 1  free  transition at x/c =  0.0306   20
 Side 2 forced transition at x/c =  1.0000   73

  27   rms: 0.6656E+03   max: -.2206E+04   C at   74  1   RLX: 0.000
       a = 11.500      CL =  2.9830
      Cm = -0.6740     CD =  0.03790   =>   CDf =  0.00321    CDp =  0.03469

 MRCHDU: Convergence failed at  23  side 1    Res =  0.1956E+00
 MRCHDU: Convergence failed at  24  side 1    Res =  0.1691E+00
 MRCHDU: Convergence failed at  25  side 1    Res =  0.1421E+00
 MRCHDU: Convergence failed at  26  side 1    Res =  0.1227E+00
 MRCHDU: Convergence failed at  27  side 1    Res =  0.1114E+00
 MRCHDU: Convergence failed at  28  side 1    Res =  0.1043E+00
 MRCHDU: Convergence failed at  29  side 1    Res =  0.9821E-01
 MRCHDU: Convergence failed at  30  side 1    Res =  0.2729E+00
 MRCHDU: Convergence failed at  31  side 1    Res =  0.2640E+00
 MRCHDU: Convergence failed at  32  side 1    Res =  0.2549E+00
 MRCHDU: Convergence failed at  33  side 1    Res =  0.2468E+00
 MRCHDU: Convergence failed at  34  side 1    Res =  0.2399E+00
 MRCHDU: Convergence failed at  35  side 1    Res =  0.2341E+00
 MRCHDU: Convergence failed at  36  side 1    Res =  0.2292E+00
 MRCHDU: Convergence failed at  37  side 1    Res =  0.2248E+00
 MRCHDU: Convergence failed at  38  side 1    Res =  0.2208E+00
 MRCHDU: Convergence failed at  39  side 1    Res =  0.2170E+00
 MRCHDU: Convergence failed at  40  side 1    Res =  0.2132E+00
 MRCHDU: Convergence failed at  41  side 1    Res =  0.2094E+00
 MRCHDU: Convergence failed at  42  side 1    Res =  0.2055E+00
 MRCHDU: Convergence failed at  43  side 1    Res =  0.2018E+00
 MRCHDU: Convergence failed at  44  side 1    Res =  0.1981E+00
 MRCHDU: Convergence failed at  45  side 1    Res =  0.1947E+00
 MRCHDU: Convergence failed at  46  side 1    Res =  0.1914E+00
 MRCHDU: Convergence failed at  47  side 1    Res =  0.1885E+00
 MRCHDU: Convergence failed at  48  side 1    Res =  0.1858E+00
 MRCHDU: Convergence failed at  49  side 1    Res =  0.1833E+00
 MRCHDU: Convergence failed at  50  side 1    Res =  0.1809E+00
 MRCHDU: Convergence failed at  51  side 1    Res =  0.1787E+00
 MRCHDU: Convergence failed at  52  side 1    Res =  0.1765E+00
 MRCHDU: Convergence failed at  53  side 1    Res =  0.1742E+00
 MRCHDU: Convergence failed at  54  side 1    Res =  0.1720E+00
 MRCHDU: Convergence failed at  55  side 1    Res =  0.1697E+00
 MRCHDU: Convergence failed at  56  side 1    Res =  0.1674E+00
 MRCHDU: Convergence failed at  57  side 1    Res =  0.1651E+00
 MRCHDU: Convergence failed at  58  side 1    Res =  0.1629E+00
 MRCHDU: Convergence failed at  59  side 1    Res =  0.1607E+00
 MRCHDU: Convergence failed at  60  side 1    Res =  0.1587E+00
 MRCHDU: Convergence failed at  61  side 1    Res =  0.1569E+00
 MRCHDU: Convergence failed at  62  side 1    Res =  0.1551E+00
 MRCHDU: Convergence failed at  63  side 1    Res =  0.1535E+00
 MRCHDU: Convergence failed at  64  side 1    Res =  0.1520E+00
 MRCHDU: Convergence failed at  65  side 1    Res =  0.1505E+00
 MRCHDU: Convergence failed at  66  side 1    Res =  0.1492E+00
 MRCHDU: Convergence failed at  67  side 1    Res =  0.1479E+00
 MRCHDU: Convergence failed at  68  side 1    Res =  0.1467E+00
 MRCHDU: Convergence failed at  69  side 1    Res =  0.1455E+00
 MRCHDU: Convergence failed at  70  side 1    Res =  0.1442E+00
 MRCHDU: Convergence failed at  71  side 1    Res =  0.1428E+00
 MRCHDU: Convergence failed at  72  side 1    Res =  0.1413E+00
 MRCHDU: Convergence failed at  73  side 1    Res =  0.1395E+00
 MRCHDU: Convergence failed at  74  side 1    Res =  0.1375E+00
 MRCHDU: Convergence failed at  75  side 1    Res =  0.1352E+00
 MRCHDU: Convergence failed at  76  side 1    Res =  0.1331E+00
 MRCHDU: Convergence failed at  77  side 1    Res =  0.1312E+00
 MRCHDU: Convergence failed at  78  side 1    Res =  0.1299E+00
 MRCHDU: Convergence failed at  79  side 1    Res =  0.1293E+00
 MRCHDU: Convergence failed at  80  side 1    Res =  0.1297E+00
 MRCHDU: Convergence failed at  81  side 1    Res =  0.1310E+00
 MRCHDU: Convergence failed at  82  side 1    Res =  0.1288E+00
 MRCHDU: Convergence failed at  83  side 1    Res =  0.1274E+00
 MRCHDU: Convergence failed at  84  side 1    Res =  0.1255E+00
 MRCHDU: Convergence failed at  85  side 1    Res =  0.1127E+00
 MRCHDU: Convergence failed at  86  side 1    Res =  0.9790E-01
 MRCHDU: Convergence failed at  87  side 1    Res =  0.8448E-01
 MRCHDU: Convergence failed at  88  side 1    Res =  0.7364E-01
 MRCHDU: Convergence failed at  89  side 1    Res =  0.9404E-01
 Side 1  free  transition at x/c =  0.0306   20
 Side 2 forced transition at x/c =  1.0000   73

  28   rms: 0.7537E+03   max: -.2499E+04   C at   83  1   RLX: 0.000
       a = 11.500      CL =  2.9827
      Cm = -0.6739     CD =  0.03786   =>   CDf =  0.00320    CDp =  0.03466

 MRCHDU: Convergence failed at  23  side 1    Res =  0.2453E+00
 MRCHDU: Convergence failed at  24  side 1    Res =  0.2188E+00
 MRCHDU: Convergence failed at  25  side 1    Res =  0.1916E+00
 MRCHDU: Convergence failed at  26  side 1    Res =  0.1723E+00
 MRCHDU: Convergence failed at  27  side 1    Res =  0.1609E+00
 MRCHDU: Convergence failed at  28  side 1    Res =  0.1538E+00
 MRCHDU: Convergence failed at  29  side 1    Res =  0.1480E+00
 MRCHDU: Convergence failed at  30  side 1    Res =  0.1404E+00
 MRCHDU: Convergence failed at  31  side 1    Res =  0.1313E+00
 MRCHDU: Convergence failed at  32  side 1    Res =  0.1221E+00
 MRCHDU: Convergence failed at  33  side 1    Res =  0.1137E+00
 MRCHDU: Convergence failed at  34  side 1    Res =  0.1067E+00
 MRCHDU: Convergence failed at  35  side 1    Res =  0.1008E+00
 MRCHDU: Convergence failed at  36  side 1    Res =  0.9580E-01
 MRCHDU: Convergence failed at  37  side 1    Res =  0.2265E+00
 MRCHDU: Convergence failed at  38  side 1    Res =  0.2225E+00
 MRCHDU: Convergence failed at  39  side 1    Res =  0.2187E+00
 MRCHDU: Convergence failed at  40  side 1    Res =  0.2148E+00
 MRCHDU: Convergence failed at  41  side 1    Res =  0.2110E+00
 MRCHDU: Convergence failed at  42  side 1    Res =  0.2071E+00
 MRCHDU: Convergence failed at  43  side 1    Res =  0.2033E+00
 MRCHDU: Convergence failed at  44  side 1    Res =  0.1997E+00
 MRCHDU: Convergence failed at  45  side 1    Res =  0.1962E+00
 MRCHDU: Convergence failed at  46  side 1    Res =  0.1929E+00
 MRCHDU: Convergence failed at  47  side 1    Res =  0.1899E+00
 MRCHDU: Convergence failed at  48  side 1    Res =  0.1872E+00
 MRCHDU: Convergence failed at  49  side 1    Res =  0.1847E+00
 MRCHDU: Convergence failed at  50  side 1    Res =  0.1823E+00
 MRCHDU: Convergence failed at  51  side 1    Res =  0.1800E+00
 MRCHDU: Convergence failed at  52  side 1    Res =  0.1778E+00
 MRCHDU: Convergence failed at  53  side 1    Res =  0.1756E+00
 MRCHDU: Convergence failed at  54  side 1    Res =  0.1733E+00
 MRCHDU: Convergence failed at  55  side 1    Res =  0.1710E+00
 MRCHDU: Convergence failed at  56  side 1    Res =  0.1687E+00
 MRCHDU: Convergence failed at  57  side 1    Res =  0.1664E+00
 MRCHDU: Convergence failed at  58  side 1    Res =  0.1641E+00
 MRCHDU: Convergence failed at  59  side 1    Res =  0.1620E+00
 MRCHDU: Convergence failed at  60  side 1    Res =  0.1599E+00
 MRCHDU: Convergence failed at  61  side 1    Res =  0.1581E+00
 MRCHDU: Convergence failed at  62  side 1    Res =  0.1563E+00
 MRCHDU: Convergence failed at  63  side 1    Res =  0.1547E+00
 MRCHDU: Convergence failed at  64  side 1    Res =  0.1531E+00
 MRCHDU: Convergence failed at  65  side 1    Res =  0.1517E+00
 MRCHDU: Convergence failed at  66  side 1    Res =  0.1504E+00
 MRCHDU: Convergence failed at  67  side 1    Res =  0.1491E+00
 MRCHDU: Convergence failed at  68  side 1    Res =  0.1479E+00
 MRCHDU: Convergence failed at  69  side 1    Res =  0.1466E+00
 MRCHDU: Convergence failed at  70  side 1    Res =  0.1454E+00
 MRCHDU: Convergence failed at  71  side 1    Res =  0.1439E+00
 MRCHDU: Convergence failed at  72  side 1    Res =  0.1424E+00
 MRCHDU: Convergence failed at  73  side 1    Res =  0.1406E+00
 MRCHDU: Convergence failed at  74  side 1    Res =  0.1385E+00
 MRCHDU: Convergence failed at  75  side 1    Res =  0.1363E+00
 MRCHDU: Convergence failed at  76  side 1    Res =  0.1341E+00
 MRCHDU: Convergence failed at  77  side 1    Res =  0.1323E+00
 MRCHDU: Convergence failed at  78  side 1    Res =  0.1309E+00
 MRCHDU: Convergence failed at  79  side 1    Res =  0.1303E+00
 MRCHDU: Convergence failed at  80  side 1    Res =  0.1307E+00
 MRCHDU: Convergence failed at  81  side 1    Res =  0.1320E+00
 MRCHDU: Convergence failed at  82  side 1    Res =  0.1298E+00
 MRCHDU: Convergence failed at  83  side 1    Res =  0.1284E+00
 MRCHDU: Convergence failed at  84  side 1    Res =  0.1265E+00
 MRCHDU: Convergence failed at  85  side 1    Res =  0.1136E+00
 MRCHDU: Convergence failed at  86  side 1    Res =  0.9865E-01
 MRCHDU: Convergence failed at  87  side 1    Res =  0.8511E-01
 MRCHDU: Convergence failed at  88  side 1    Res =  0.7418E-01
 MRCHDU: Convergence failed at  89  side 1    Res =  0.9466E-01
 Side 1  free  transition at x/c =  0.0306   20
 Side 2 forced transition at x/c =  1.0000   73

  29   rms: 0.8416E+03   max: -.2777E+04   C at   81  1   RLX: 0.000
       a = 11.500      CL =  2.9825
      Cm = -0.6738     CD =  0.03783   =>   CDf =  0.00320    CDp =  0.03463

 MRCHDU: Convergence failed at  23  side 1    Res =  0.2954E+00
 MRCHDU: Convergence failed at  24  side 1    Res =  0.2690E+00
 MRCHDU: Convergence failed at  25  side 1    Res =  0.2418E+00
 MRCHDU: Convergence failed at  26  side 1    Res =  0.2225E+00
 MRCHDU: Convergence failed at  27  side 1    Res =  0.2111E+00
 MRCHDU: Convergence failed at  28  side 1    Res =  0.2040E+00
 MRCHDU: Convergence failed at  29  side 1    Res =  0.1980E+00
 MRCHDU: Convergence failed at  30  side 1    Res =  0.1903E+00
 MRCHDU: Convergence failed at  31  side 1    Res =  0.1813E+00
 MRCHDU: Convergence failed at  32  side 1    Res =  0.1720E+00
 MRCHDU: Convergence failed at  33  side 1    Res =  0.1637E+00
 MRCHDU: Convergence failed at  34  side 1    Res =  0.1567E+00
 MRCHDU: Convergence failed at  35  side 1    Res =  0.1508E+00
 MRCHDU: Convergence failed at  36  side 1    Res =  0.1461E+00
 MRCHDU: Convergence failed at  37  side 1    Res =  0.1416E+00
 MRCHDU: Convergence failed at  38  side 1    Res =  0.1375E+00
 MRCHDU: Convergence failed at  39  side 1    Res =  0.1337E+00
 MRCHDU: Convergence failed at  40  side 1    Res =  0.1298E+00
 MRCHDU: Convergence failed at  41  side 1    Res =  0.1259E+00
 MRCHDU: Convergence failed at  42  side 1    Res =  0.1220E+00
 MRCHDU: Convergence failed at  43  side 1    Res =  0.1181E+00
 MRCHDU: Convergence failed at  44  side 1    Res =  0.1144E+00
 MRCHDU: Convergence failed at  45  side 1    Res =  0.1109E+00
 MRCHDU: Convergence failed at  46  side 1    Res =  0.1076E+00
 MRCHDU: Convergence failed at  47  side 1    Res =  0.1045E+00
 MRCHDU: Convergence failed at  48  side 1    Res =  0.1018E+00
 MRCHDU: Convergence failed at  49  side 1    Res =  0.9922E-01
 MRCHDU: Convergence failed at  50  side 1    Res =  0.1834E+00
 MRCHDU: Convergence failed at  51  side 1    Res =  0.1811E+00
 MRCHDU: Convergence failed at  52  side 1    Res =  0.1788E+00
 MRCHDU: Convergence failed at  53  side 1    Res =  0.1766E+00
 MRCHDU: Convergence failed at  54  side 1    Res =  0.1743E+00
 MRCHDU: Convergence failed at  55  side 1    Res =  0.1720E+00
 MRCHDU: Convergence failed at  56  side 1    Res =  0.1696E+00
 MRCHDU: Convergence failed at  57  side 1    Res =  0.1673E+00
 MRCHDU: Convergence failed at  58  side 1    Res =  0.1651E+00
 MRCHDU: Convergence failed at  59  side 1    Res =  0.1629E+00
 MRCHDU: Convergence failed at  60  side 1    Res =  0.1609E+00
 MRCHDU: Convergence failed at  61  side 1    Res =  0.1590E+00
 MRCHDU: Convergence failed at  62  side 1    Res =  0.1572E+00
 MRCHDU: Convergence failed at  63  side 1    Res =  0.1556E+00
 MRCHDU: Convergence failed at  64  side 1    Res =  0.1540E+00
 MRCHDU: Convergence failed at  65  side 1    Res =  0.1526E+00
 MRCHDU: Convergence failed at  66  side 1    Res =  0.1512E+00
 MRCHDU: Convergence failed at  67  side 1    Res =  0.1500E+00
 MRCHDU: Convergence failed at  68  side 1    Res =  0.1487E+00
 MRCHDU: Convergence failed at  69  side 1    Res =  0.1475E+00
 MRCHDU: Convergence failed at  70  side 1    Res =  0.1462E+00
 MRCHDU: Convergence failed at  71  side 1    Res =  0.1448E+00
 MRCHDU: Convergence failed at  72  side 1    Res =  0.1432E+00
 MRCHDU: Convergence failed at  73  side 1    Res =  0.1414E+00
 MRCHDU: Convergence failed at  74  side 1    Res =  0.1393E+00
 MRCHDU: Convergence failed at  75  side 1    Res =  0.1371E+00
 MRCHDU: Convergence failed at  76  side 1    Res =  0.1349E+00
 MRCHDU: Convergence failed at  77  side 1    Res =  0.1330E+00
 MRCHDU: Convergence failed at  78  side 1    Res =  0.1317E+00
 MRCHDU: Convergence failed at  79  side 1    Res =  0.1311E+00
 MRCHDU: Convergence failed at  80  side 1    Res =  0.1315E+00
 MRCHDU: Convergence failed at  81  side 1    Res =  0.1328E+00
 MRCHDU: Convergence failed at  82  side 1    Res =  0.1305E+00
 MRCHDU: Convergence failed at  83  side 1    Res =  0.1291E+00
 MRCHDU: Convergence failed at  84  side 1    Res =  0.1272E+00
 MRCHDU: Convergence failed at  85  side 1    Res =  0.1143E+00
 MRCHDU: Convergence failed at  86  side 1    Res =  0.9923E-01
 MRCHDU: Convergence failed at  87  side 1    Res =  0.8560E-01
 MRCHDU: Convergence failed at  88  side 1    Res =  0.7460E-01
 MRCHDU: Convergence failed at  89  side 1    Res =  0.9517E-01
 Side 1  free  transition at x/c =  0.0306   20
 Side 2 forced transition at x/c =  1.0000   73

  30   rms: 0.9389E+03   max: -.3107E+04   C at   84  1   RLX: 0.000
       a = 11.500      CL =  2.9822
      Cm = -0.6738     CD =  0.03781   =>   CDf =  0.00320    CDp =  0.03461

 MRCHDU: Convergence failed at  23  side 1    Res =  0.3453E+00
 MRCHDU: Convergence failed at  24  side 1    Res =  0.3189E+00
 MRCHDU: Convergence failed at  25  side 1    Res =  0.2917E+00
 MRCHDU: Convergence failed at  26  side 1    Res =  0.2723E+00
 MRCHDU: Convergence failed at  27  side 1    Res =  0.2610E+00
 MRCHDU: Convergence failed at  28  side 1    Res =  0.2539E+00
 MRCHDU: Convergence failed at  29  side 1    Res =  0.2479E+00
 MRCHDU: Convergence failed at  30  side 1    Res =  0.2402E+00
 MRCHDU: Convergence failed at  31  side 1    Res =  0.2312E+00
 MRCHDU: Convergence failed at  32  side 1    Res =  0.2219E+00
 MRCHDU: Convergence failed at  33  side 1    Res =  0.2136E+00
 MRCHDU: Convergence failed at  34  side 1    Res =  0.2066E+00
 MRCHDU: Convergence failed at  35  side 1    Res =  0.2007E+00
 MRCHDU: Convergence failed at  36  side 1    Res =  0.1957E+00
 MRCHDU: Convergence failed at  37  side 1    Res =  0.1913E+00
 MRCHDU: Convergence failed at  38  side 1    Res =  0.1872E+00
 MRCHDU: Convergence failed at  39  side 1    Res =  0.1833E+00
 MRCHDU: Convergence failed at  40  side 1    Res =  0.1795E+00
 MRCHDU: Convergence failed at  41  side 1    Res =  0.1755E+00
 MRCHDU: Convergence failed at  42  side 1    Res =  0.1716E+00
 MRCHDU: Convergence failed at  43  side 1    Res =  0.1678E+00
 MRCHDU: Convergence failed at  44  side 1    Res =  0.1641E+00
 MRCHDU: Convergence failed at  45  side 1    Res =  0.1606E+00
 MRCHDU: Convergence failed at  46  side 1    Res =  0.1573E+00

[TIMEOUT]
