
 ===================================================
  XFOIL Version 6.99
  Copyright (C) 2000   Mark Drela, Harold Youngren

  This software comes with ABSOLUTELY NO WARRANTY,
    subject to the GNU General Public License.

  Caveat computor
 ===================================================

 File  xfoil.def  not found

   QUIT    Exit program

  .OPER    Direct operating point(s)
  .MDES    Complex mapping design routine
  .QDES    Surface speed design routine
  .GDES    Geometry design routine

   SAVE f  Write airfoil to labeled coordinate file
   PSAV f  Write airfoil to plain coordinate file
   ISAV f  Write airfoil to ISES coordinate file
   MSAV f  Write airfoil to MSES coordinate file
   REVE    Reverse written-airfoil node ordering

   LOAD f  Read buffer airfoil from coordinate file
   NACA i  Set NACA 4,5-digit airfoil and buffer airfoil
   INTE    Set buffer airfoil by interpolating two airfoils
   NORM    Buffer airfoil normalization toggle
   XYCM rr Change CM reference location, currently  0.25000 0.00000

   BEND    Display structural properties of current airfoil

   PCOP    Set current-airfoil panel nodes directly from buffer airfoil points
   PANE    Set current-airfoil panel nodes ( 160 ) based on curvature
  .PPAR    Show/change paneling

  .PLOP    Plotting options

   WDEF f  Write  current-settings file
   RDEF f  Reread current-settings file
   NAME s  Specify new airfoil name
   NINC    Increment name version number

   Z       Zoom    | (available in all menus)
   U       Unzoom  | 

 XFOIL   c>  
 Labeled airfoil file.  Name:  USA 51 AIRFOIL                                  

 Number of input coordinate points:  33
 Counterclockwise ordering
 Max thickness =     0.093301  at x =   0.300
 Max camber    =     0.024820  at x =   0.300

  LE  x,y  =  -0.00015   0.00119  |   Chord =   1.00015
  TE  x,y  =   1.00000   0.00000  |

 Current airfoil nodes set from buffer airfoil nodes (  33 )

 WARNING: Poor input coordinate distribution
          Excessive panel angle   86.3  at i =  17
          Repaneling with PANE and/or PPAR suggested
           (doing GDES,CADD before repaneling _may_
            improve excessively coarse LE spacing

 XFOIL   c>  
 XFOIL   c>  
 Sharp trailing edge

 Paneling parameters used...
   Number of panel nodes       160
   Panel bunching parameter    1.000
   TE/LE panel density ratio   0.150
   Refined-area/LE panel density ratio    0.200
   Top    side refined area x/c limits  1.000 1.000
   Bottom side refined area x/c limits  1.000 1.000

 XFOIL   c>  
.OPERi   c>  
 Xtr/c     =  1.0000    top    side
 Xtr/c     =  1.0000    bottom side
 Ncrit     =    9.00   ( 0.070 % turb. level )
 Vacc      =  0.0100

 Klag  =  5.6000     Uxwt  =    1.00
 A     =  6.7000     B     =  0.7500       KCt = 0.01485
 CtiniK=  1.8000     CtiniX=  3.3000

..VPAR   c>  
..VPAR   c>  
.OPERi   c>  
 M  =    0.0000
 Re =    300000

.OPERv   c>  
.OPERv   c>  
.OPERv   c>  
 Polar  1 newly created for accumulation
 Airfoil archived with polar: USA 51 AIRFOIL                                  

Enter  polar save filename  OR  <return> for no file   s>  
 New polar save file available

Enter  polar dump filename  OR  <return> for no file   s>  
 Polar dump file will NOT be written

 Polar accumulation enabled

.OPERva   c>   Calculating unit vorticity distributions ...
 Calculating wake trajectory ...
 Calculating source influence matrix ...

 Solving BL system ...

 Initializing BL ...
    side            1  ...
 MRCHUE: Inverse mode at  68     Hk =   3.868
 MRCHUE: Inverse mode at  69     Hk =   4.205
 MRCHUE: Inverse mode at  70     Hk =   4.531
 MRCHUE: Inverse mode at  71     Hk =   4.858
 MRCHUE: Convergence failed at  72  side 1    Res =  0.2414E+01
 MRCHUE: Inverse mode at  73     Hk =   5.117
 MRCHUE: Convergence failed at  74  side 1    Res =  0.1536E+01
 MRCHUE: Inverse mode at  75     Hk =   5.308
 MRCHUE: Inverse mode at  76     Hk =   5.423
    side            2  ...
 MRCHUE: Inverse mode at  13     Hk =   3.967
 MRCHUE: Inverse mode at  14     Hk =   4.838
 MRCHUE: Inverse mode at  15     Hk =   5.837
 MRCHUE: Inverse mode at  16     Hk =   7.183
 MRCHUE: Inverse mode at  17     Hk =   9.118
 MRCHUE: Inverse mode at  18     Hk =   8.323
 MRCHUE: Inverse mode at  19     Hk =   2.500
 MRCHUE: Inverse mode at  20     Hk =   2.500
 MRCHUE: Inverse mode at  86     Hk =   2.500

 MRCHDU: Convergence failed at  74  side 1    Res =  0.1598E+02
 MRCHDU: Convergence failed at  75  side 1    Res =  0.2110E+01
 MRCHDU: Convergence failed at  76  side 1    Res =  0.5248E-03
 Side 1 forced transition at x/c =  1.0000   76
 Side 2  free  transition at x/c =  0.0354   18

   1   rms: 0.5882E+00   max: 0.3499E+01   T at   18  2   RLX: 0.236
       a = -4.000      CL = -0.2837
      Cm = -0.0403     CD =  0.01138   =>   CDf =  0.00659    CDp =  0.00478

 Side 1 forced transition at x/c =  1.0000   76
 Side 2  free  transition at x/c =  0.0290   18
 idif Ue xi dudx           1  0.25403786      5.15460968E-03   49.283627    
 Uenew xinew           2  8.62400979E-02  1.74987316E-03

   2   rms: 0.3160E+00   max: 0.1364E+01   T at   18  2   RLX: 0.807
       a = -4.000      CL = -0.4249
      Cm = -0.0012     CD =  0.01672   =>   CDf =  0.00636    CDp =  0.01036

 MRCHDU: Convergence failed at  19  side 2    Res =  0.1594E+02
 MRCHDU: Convergence failed at  20  side 2    Res =  0.8999E+02
 MRCHDU: Convergence failed at  21  side 2    Res =  0.1435E+03
 MRCHDU: Convergence failed at  22  side 2    Res =  0.1117E+03
 MRCHDU: Convergence failed at  23  side 2    Res =  0.5149E+02
 MRCHDU: Convergence failed at  24  side 2    Res =  0.1768E+03
 MRCHDU: Convergence failed at  25  side 2    Res =  0.5047E+02
 MRCHDU: Convergence failed at  26  side 2    Res =  0.1806E+03
 MRCHDU: Convergence failed at  27  side 2    Res =  0.6300E+02
 MRCHDU: Convergence failed at  28  side 2    Res =  0.2011E+03
 MRCHDU: Convergence failed at  29  side 2    Res =  0.5488E+02
 MRCHDU: Convergence failed at  30  side 2    Res =  0.6011E+02
 MRCHDU: Convergence failed at  31  side 2    Res =  0.6539E+02
 MRCHDU: Convergence failed at  32  side 2    Res =  0.7073E+02
 MRCHDU: Convergence failed at  33  side 2    Res =  0.7631E+02
 MRCHDU: Convergence failed at  34  side 2    Res =  0.8195E+02
 MRCHDU: Convergence failed at  35  side 2    Res =  0.8790E+02
 MRCHDU: Convergence failed at  36  side 2    Res =  0.9393E+02
 MRCHDU: Convergence failed at  37  side 2    Res =  0.1002E+03
 MRCHDU: Convergence failed at  38  side 2    Res =  0.1068E+03
 MRCHDU: Convergence failed at  39  side 2    Res =  0.4457E+02
 MRCHDU: Convergence failed at  40  side 2    Res =  0.4569E+02
 MRCHDU: Convergence failed at  41  side 2    Res =  0.4690E+02
 MRCHDU: Convergence failed at  42  side 2    Res =  0.4782E+02
 MRCHDU: Convergence failed at  43  side 2    Res =  0.4920E+02
 MRCHDU: Convergence failed at  44  side 2    Res =  0.5020E+02
 MRCHDU: Convergence failed at  45  side 2    Res =  0.5142E+02
 MRCHDU: Convergence failed at  46  side 2    Res =  0.5151E+02
 MRCHDU: Convergence failed at  47  side 2    Res =  0.5260E+02
 MRCHDU: Convergence failed at  48  side 2    Res =  0.5358E+02
 MRCHDU: Convergence failed at  49  side 2    Res =  0.5468E+02
 MRCHDU: Convergence failed at  50  side 2    Res =  0.5579E+02
 MRCHDU: Convergence failed at  51  side 2    Res =  0.5687E+02
 MRCHDU: Convergence failed at  52  side 2    Res =  0.5774E+02
 MRCHDU: Convergence failed at  53  side 2    Res =  0.5861E+02
 MRCHDU: Convergence failed at  54  side 2    Res =  0.4408E+02
 MRCHDU: Convergence failed at  55  side 2    Res =  0.4466E+02
 MRCHDU: Convergence failed at  56  side 2    Res =  0.4529E+02
 MRCHDU: Convergence failed at  57  side 2    Res =  0.4600E+02
 MRCHDU: Convergence failed at  58  side 2    Res =  0.4683E+02
 MRCHDU: Convergence failed at  59  side 2    Res =  0.4780E+02
 MRCHDU: Convergence failed at  60  side 2    Res =  0.4900E+02
 MRCHDU: Convergence failed at  61  side 2    Res =  0.4765E+02
 MRCHDU: Convergence failed at  62  side 2    Res =  0.4884E+02
 MRCHDU: Convergence failed at  63  side 2    Res =  0.4999E+02
 MRCHDU: Convergence failed at  64  side 2    Res =  0.5115E+02
 MRCHDU: Convergence failed at  65  side 2    Res =  0.5222E+02
 MRCHDU: Convergence failed at  66  side 2    Res =  0.5336E+02
 MRCHDU: Convergence failed at  67  side 2    Res =  0.5457E+02
 MRCHDU: Convergence failed at  68  side 2    Res =  0.5632E+02
 MRCHDU: Convergence failed at  69  side 2    Res =  0.5738E+02
 MRCHDU: Convergence failed at  70  side 2    Res =  0.5837E+02
 MRCHDU: Convergence failed at  71  side 2    Res =  0.5927E+02
 MRCHDU: Convergence failed at  72  side 2    Res =  0.6021E+02
 MRCHDU: Convergence failed at  73  side 2    Res =  0.6188E+02
 MRCHDU: Convergence failed at  74  side 2    Res =  0.6356E+02
 MRCHDU: Convergence failed at  75  side 2    Res =  0.6509E+02
 MRCHDU: Convergence failed at  76  side 2    Res =  0.5354E+02
 MRCHDU: Convergence failed at  77  side 2    Res =  0.5394E+02
 MRCHDU: Convergence failed at  78  side 2    Res =  0.5360E+02
 MRCHDU: Convergence failed at  79  side 2    Res =  0.6467E+02
 MRCHDU: Convergence failed at  80  side 2    Res =  0.6457E+02
 MRCHDU: Convergence failed at  81  side 2    Res =  0.6382E+02
 MRCHDU: Convergence failed at  82  side 2    Res =  0.6136E+02
 MRCHDU: Convergence failed at  83  side 2    Res =  0.6382E+02
 MRCHDU: Convergence failed at  84  side 2    Res =  0.7342E+02
 MRCHDU: Convergence failed at  85  side 2    Res =  0.5762E+02
 MRCHDU: Convergence failed at  86  side 2    Res =  0.4280E+03
 MRCHDU: Convergence failed at  87  side 2    Res =  0.1652E+03
 Side 1  free  transition at x/c =  0.9415   70
 Side 2  free  transition at x/c =  0.0252   18

   3   rms: 0.1280E+01   max: -.3633E+01   T at   70  1   RLX: 0.138
       a = -4.000      CL = -2.2599
      Cm =  0.5501     CD =  0.00882   =>   CDf =  0.00146    CDp =  0.00736

 MRCHDU: Convergence failed at  91  side 2    Res =  0.1518E+01
 MRCHDU: Convergence failed at  92  side 2    Res =  0.3138E+01
 Side 1  free  transition at x/c =  0.9618   71
 Side 2  free  transition at x/c =  0.0255   18

   4   rms: 0.1678E+01   max: -.2402E+02   T at   71  1   RLX: 0.021
       a = -4.000      CL = -1.3131
      Cm =  0.2754     CD =  0.07065   =>   CDf =  0.00215    CDp =  0.06850

 Side 1  free  transition at x/c =  0.9764   72
 Side 2  free  transition at x/c =  0.0255   18

   5   rms: 0.7667E+00   max: -.7288E+01   T at   72  1   RLX: 0.069
       a = -4.000      CL = -1.2800
      Cm =  0.2654     CD =  0.07349   =>   CDf =  0.00218    CDp =  0.07132

 Side 1  free  transition at x/c =  0.9949   75
 Side 2  free  transition at x/c =  0.0255   18

   6   rms: 0.1375E+01   max: 0.3272E+02   C at   75  1   RLX: 0.046
       a = -4.000      CL = -1.2291
      Cm =  0.2533     CD =  0.07681   =>   CDf =  0.00221    CDp =  0.07460

 Side 1 forced transition at x/c =  1.0000   75
 Side 2  free  transition at x/c =  0.0255   18

   7   rms: 0.7077E+00   max: 0.3440E+01   T at   85  2   RLX: 0.399
       a = -4.000      CL = -0.8358
      Cm =  0.1509     CD =  0.10574   =>   CDf =  0.00235    CDp =  0.10339

 Side 1 forced transition at x/c =  1.0000   76
 Side 2  free  transition at x/c =  0.0288   18

   8   rms: 0.6142E+00   max: -.4078E+01   D at    2  1   RLX: 0.123
       a = -4.000      CL = -0.7179
      Cm =  0.1043     CD =  0.06087   =>   CDf =  0.00233    CDp =  0.05854

 Side 1 forced transition at x/c =  1.0000   76
 Side 2  free  transition at x/c =  0.0298   18

   9   rms: 0.4929E+00   max: -.1331E+01   T at  108  2   RLX: 0.376
       a = -4.000      CL = -0.5036
      Cm =  0.0403     CD =  0.03714   =>   CDf =  0.00243    CDp =  0.03471

 Side 1 forced transition at x/c =  1.0000   76
 Side 2  free  transition at x/c =  0.0310   18
 idif Ue xi dudx           1  0.19623698      3.66413593E-03   53.556141    
 Uenew xinew           2  1.38924317E-02  2.59399414E-04

  10   rms: 0.5619E+00   max: -.1499E+01   D at  103  2   RLX: 0.334
       a = -4.000      CL = -0.3972
      Cm = -0.0110     CD =  0.04328   =>   CDf =  0.00256    CDp =  0.04072

 Side 1 forced transition at x/c =  1.0000   75
 Side 2  free  transition at x/c =  0.0273   19

  11   rms: 0.1183E+01   max: -.1059E+02   D at    2  2   RLX: 0.047
       a = -4.000      CL = -0.3261
      Cm = -0.0268     CD =  0.06892   =>   CDf =  0.00268    CDp =  0.06624

 Side 1 forced transition at x/c =  1.0000   76
 Side 2  free  transition at x/c =  0.0282   18

  12   rms: 0.2169E+01   max: -.1777E+02   T at    2  1   RLX: 0.028
       a = -4.000      CL = -0.3084
      Cm = -0.0258     CD =  0.07235   =>   CDf =  0.00259    CDp =  0.06976

 Side 1 forced transition at x/c =  1.0000   76
 Side 2  free  transition at x/c =  0.0295   18
 idif Ue xi dudx           1  0.25039622      4.94086742E-03   50.678596    
 Uenew xinew           2  7.78489560E-02  1.53613091E-03

  13   rms: 0.6666E+01   max: 0.2555E+02   T at   18  2   RLX: 0.027
       a = -4.000      CL = -0.3475
      Cm = -0.0365     CD =  0.05412   =>   CDf =  0.00251    CDp =  0.05161

 Side 1 forced transition at x/c =  1.0000   75
 Side 2  free  transition at x/c =  0.0253   18

  14   rms: 0.1565E+01   max: 0.4826E+01   T at   18  2   RLX: 0.104
       a = -4.000      CL = -0.3938
      Cm = -0.0463     CD =  0.04169   =>   CDf =  0.00258    CDp =  0.03911

 Side 1 forced transition at x/c =  1.0000   75
 Side 2  free  transition at x/c =  0.0233   18

  15   rms: 0.7513E+00   max: -.2507E+01   D at   38  2   RLX: 0.199
       a = -4.000      CL = -0.4428
      Cm = -0.0496     CD =  0.03509   =>   CDf =  0.00261    CDp =  0.03248

 Side 1 forced transition at x/c =  1.0000   75
 Side 2  free  transition at x/c =  0.0226   18

  16   rms: 0.5899E+00   max: -.1822E+01   D at   46  2   RLX: 0.274
       a = -4.000      CL = -0.4675
      Cm = -0.0533     CD =  0.03281   =>   CDf =  0.00275    CDp =  0.03006

 Side 1 forced transition at x/c =  1.0000   75
 Side 2  free  transition at x/c =  0.0224   18

  17   rms: 0.5871E+00   max: -.2083E+01   D at   85  2   RLX: 0.240
       a = -4.000      CL = -0.4841
      Cm = -0.0573     CD =  0.03353   =>   CDf =  0.00291    CDp =  0.03062

 Side 1  free  transition at x/c =  0.9997   75
 Side 2  free  transition at x/c =  0.0220   18

  18   rms: 0.1108E+01   max: -.4191E+01   D at   85  2   RLX: 0.119
       a = -4.000      CL = -0.4515
      Cm = -0.0708     CD =  0.02881   =>   CDf =  0.00307    CDp =  0.02574

 Side 1  free  transition at x/c =  0.9911   74
 Side 2  free  transition at x/c =  0.0223   18

  19   rms: 0.8591E+00   max: -.3906E+01   D at   85  2   RLX: 0.128
       a = -4.000      CL = -0.4213
      Cm = -0.0765     CD =  0.02513   =>   CDf =  0.00359    CDp =  0.02154

 Side 1  free  transition at x/c =  0.9806   73
 Side 2  free  transition at x/c =  0.0231   18

  20   rms: 0.6862E+00   max: -.3481E+01   D at   85  2   RLX: 0.144
       a = -4.000      CL = -0.3961
      Cm = -0.0770     CD =  0.02235   =>   CDf =  0.00402    CDp =  0.01833

 Side 1  free  transition at x/c =  0.9706   72
 Side 2  free  transition at x/c =  0.0237   18

  21   rms: 0.5479E+00   max: -.2913E+01   D at   85  2   RLX: 0.172
       a = -4.000      CL = -0.3782
      Cm = -0.0734     CD =  0.01999   =>   CDf =  0.00443    CDp =  0.01557

 MRCHDU: Convergence failed at  84  side 2    Res =  0.7204E-01
 MRCHDU: Convergence failed at  85  side 2    Res =  0.1424E-02
 Side 1  free  transition at x/c =  0.9615   71
 Side 2  free  transition at x/c =  0.0239   18

  22   rms: 0.4245E+00   max: -.2163E+01   D at   84  2   RLX: 0.231
       a = -4.000      CL = -0.3617
      Cm = -0.0662     CD =  0.01810   =>   CDf =  0.00480    CDp =  0.01330

 MRCHDU: Convergence failed at  84  side 2    Res =  0.1120E+00
 MRCHDU: Convergence failed at  85  side 2    Res =  0.5133E+00
 MRCHDU: Convergence failed at  86  side 2    Res =  0.2757E+00
 Side 1  free  transition at x/c =  0.9536   71
 Side 2  free  transition at x/c =  0.0243   18

  23   rms: 0.4930E+00   max: -.1629E+01   D at   87  2   RLX: 0.307
       a = -4.000      CL = -0.2763
      Cm = -0.0773     CD =  0.01736   =>   CDf =  0.00500    CDp =  0.01236

 Side 1  free  transition at x/c =  0.9601   71
 Side 2  free  transition at x/c =  0.0263   19

  24   rms: 0.5402E+00   max: -.1546E+01   T at   19  2   RLX: 0.323
       a = -4.000      CL = -0.2327
      Cm = -0.0727     CD =  0.01288   =>   CDf =  0.00600    CDp =  0.00688

 Side 1  free  transition at x/c =  0.9762   73
 Side 2  free  transition at x/c =  0.0305   18

  25   rms: 0.2957E+00   max: -.2025E+01   D at    2  1   RLX: 0.247
       a = -4.000      CL = -0.1958
      Cm = -0.0759     CD =  0.01434   =>   CDf =  0.00601    CDp =  0.00833

 Side 1  free  transition at x/c =  0.9918   75
 Side 2  free  transition at x/c =  0.0327   18

  26   rms: 0.1656E+00   max: -.8462E+00   D at   82  2   RLX: 0.591
       a = -4.000      CL = -0.1792
      Cm = -0.0647     CD =  0.01411   =>   CDf =  0.00618    CDp =  0.00794

 Side 1  free  transition at x/c =  0.9933   75
 Side 2  free  transition at x/c =  0.0339   18

  27   rms: 0.9579E-01   max: -.6010E+00   D at   85  2   RLX: 0.832
       a = -4.000      CL = -0.2064
      Cm = -0.0487     CD =  0.01529   =>   CDf =  0.00642    CDp =  0.00887

 Side 1  free  transition at x/c =  0.9820   74
 Side 2  free  transition at x/c =  0.0330   18

  28   rms: 0.5696E-01   max: -.3653E+00   D at   85  2
       a = -4.000      CL = -0.2420
      Cm = -0.0381     CD =  0.01607   =>   CDf =  0.00652    CDp =  0.00954

 Side 1  free  transition at x/c =  0.9721   73
 Side 2  free  transition at x/c =  0.0314   18

  29   rms: 0.1060E-01   max: -.1212E+00   D at   73  1
       a = -4.000      CL = -0.2443
      Cm = -0.0374     CD =  0.01614   =>   CDf =  0.00650    CDp =  0.00964

 Side 1  free  transition at x/c =  0.9731   73
 Side 2  free  transition at x/c =  0.0311   18

  30   rms: 0.1349E-02   max: 0.1239E-01   T at   73  1
       a = -4.000      CL = -0.2451
      Cm = -0.0372     CD =  0.01616   =>   CDf =  0.00651    CDp =  0.00965

 Side 1  free  transition at x/c =  0.9726   73
 Side 2  free  transition at x/c =  0.0311   18

  31   rms: 0.6507E-04   max: -.4260E-03   T at   73  1
       a = -4.000      CL = -0.2451
      Cm = -0.0372     CD =  0.01616   =>   CDf =  0.00651    CDp =  0.00965
 plradd ia,ip,cpol            1           0  6.16790610E-04

 Point added to stored polar  1
 Point written to save file  usa51_Re300k.base.pol                           
 Dump file unspecified or not available
 Calculating wake trajectory ...
 Calculating source influence matrix ...

 Solving BL system ...

 Side 1  free  transition at x/c =  0.9727   73
 Side 2  free  transition at x/c =  0.0311   18

   1   rms: 0.1344E+00   max: -.7370E+00   T at   18  2   RLX: 0.678
       a = -3.500      CL = -0.1981
      Cm = -0.0388     CD =  0.01461   =>   CDf =  0.00651    CDp =  0.00809

 Side 1  free  transition at x/c =  0.9646   72
 Side 2  free  transition at x/c =  0.0363   18

   2   rms: 0.6712E-01   max: -.4889E+00   T at   18  2
       a = -3.500      CL = -0.1640
      Cm = -0.0417     CD =  0.01492   =>   CDf =  0.00668    CDp =  0.00825

 Side 1  free  transition at x/c =  0.9661   73
 Side 2  free  transition at x/c =  0.0397   19

   3   rms: 0.4144E-01   max: 0.3465E+00   D at   19  2
       a = -3.500      CL = -0.1704
      Cm = -0.0406     CD =  0.01352   =>   CDf =  0.00681    CDp =  0.00671

 Side 1  free  transition at x/c =  0.9652   73
 Side 2  free  transition at x/c =  0.0404   19

   4   rms: 0.1319E-01   max: 0.1380E+00   D at   19  2
       a = -3.500      CL = -0.1699
      Cm = -0.0408     CD =  0.01362   =>   CDf =  0.00677    CDp =  0.00685

 Side 1  free  transition at x/c =  0.9652   73
 Side 2  free  transition at x/c =  0.0402   19

   5   rms: 0.4001E-03   max: 0.3184E-02   D at   20  2
       a = -3.500      CL = -0.1699
      Cm = -0.0408     CD =  0.01362   =>   CDf =  0.00677    CDp =  0.00685

 Side 1  free  transition at x/c =  0.9652   73
 Side 2  free  transition at x/c =  0.0402   19

   6   rms: 0.2543E-05   max: -.1280E-04   T at   19  2
       a = -3.500      CL = -0.1699
      Cm = -0.0408     CD =  0.01362   =>   CDf =  0.00677    CDp =  0.00685
 plradd ia,ip,cpol            2           0  6.16790610E-04

 Point added to stored polar  1
 Point written to save file  usa51_Re300k.base.pol                           
 Dump file unspecified or not available
 Calculating wake trajectory ...
 Calculating source influence matrix ...

 Solving BL system ...

 Side 1  free  transition at x/c =  0.9652   73
 Side 2  free  transition at x/c =  0.0402   19

   1   rms: 0.1724E+00   max: -.1336E+01   T at   19  2   RLX: 0.374
       a = -3.000      CL = -0.1404
      Cm = -0.0427     CD =  0.01277   =>   CDf =  0.00682    CDp =  0.00595

 Side 1  free  transition at x/c =  0.9633   73
 Side 2  free  transition at x/c =  0.0456   18

   2   rms: 0.9925E-01   max: 0.7473E+00   T at   73  1   RLX: 0.752
       a = -3.000      CL = -0.1399
      Cm = -0.0369     CD =  0.01273   =>   CDf =  0.00677    CDp =  0.00596

 Side 1  free  transition at x/c =  0.9382   72
 Side 2  free  transition at x/c =  0.0484   18

   3   rms: 0.6981E-01   max: -.4731E+00   T at   18  2
       a = -3.000      CL = -0.0976
      Cm = -0.0438     CD =  0.01237   =>   CDf =  0.00684    CDp =  0.00554

 Side 1  free  transition at x/c =  0.9554   73
 Side 2  free  transition at x/c =  0.0538   19

   4   rms: 0.1594E-01   max: 0.1640E+00   D at   19  2
       a = -3.000      CL = -0.0998
      Cm = -0.0435     CD =  0.01199   =>   CDf =  0.00685    CDp =  0.00514

 Side 1  free  transition at x/c =  0.9530   73
 Side 2  free  transition at x/c =  0.0546   19

   5   rms: 0.4147E-02   max: 0.5616E-01   D at   19  2
       a = -3.000      CL = -0.0994
      Cm = -0.0436     CD =  0.01201   =>   CDf =  0.00682    CDp =  0.00519

 Side 1  free  transition at x/c =  0.9533   73
 Side 2  free  transition at x/c =  0.0545   19

   6   rms: 0.1090E-03   max: 0.1389E-02   D at   19  2
       a = -3.000      CL = -0.0994
      Cm = -0.0436     CD =  0.01201   =>   CDf =  0.00681    CDp =  0.00520

 Side 1  free  transition at x/c =  0.9533   73
 Side 2  free  transition at x/c =  0.0545   19

   7   rms: 0.1608E-05   max: 0.6372E-05   T at   73  1
       a = -3.000      CL = -0.0994
      Cm = -0.0436     CD =  0.01201   =>   CDf =  0.00681    CDp =  0.00520
 plradd ia,ip,cpol            3           0  1.49269844E-03

 Point added to stored polar  1
 Point written to save file  usa51_Re300k.base.pol                           
 Dump file unspecified or not available
 Calculating wake trajectory ...
 Calculating source influence matrix ...

 Solving BL system ...

 Side 1  free  transition at x/c =  0.9533   73
 Side 2  free  transition at x/c =  0.0545   19

   1   rms: 0.1393E+00   max: -.9848E+00   T at   19  2   RLX: 0.508
       a = -2.500      CL = -0.0576
      Cm = -0.0464     CD =  0.01139   =>   CDf =  0.00682    CDp =  0.00458

 Side 1  free  transition at x/c =  0.9503   72
 Side 2  free  transition at x/c =  0.0632   20

   2   rms: 0.9876E-01   max: 0.1018E+01   T at   72  1   RLX: 0.543
       a = -2.500      CL = -0.0876
      Cm = -0.0366     CD =  0.01184   =>   CDf =  0.00686    CDp =  0.00498

 Side 1  free  transition at x/c =  0.9201   70
 Side 2  free  transition at x/c =  0.0613   19

   3   rms: 0.2056E+00   max: -.1211E+01   T at   19  2   RLX: 0.413
       a = -2.500      CL = -0.0237
      Cm = -0.0481     CD =  0.01224   =>   CDf =  0.00694    CDp =  0.00530

 MRCHDU: Convergence failed at  74  side 1    Res =  0.1341E+01
 MRCHDU: Convergence failed at  75  side 1    Res =  0.1893E+01
 MRCHDU: Convergence failed at  76  side 1    Res =  0.2587E+01
 MRCHDU: Convergence failed at  77  side 1    Res =  0.3397E+01
 MRCHDU: Convergence failed at  78  side 1    Res =  0.8688E+01
 Side 1  free  transition at x/c =  0.9639   74
 Side 2  free  transition at x/c =  0.0671   19
 idif Ue xi dudx           1  0.18493523      2.28774548E-03   80.837326    
 Uenew xinew           2  1.60255991E-02  1.98245049E-04

   4   rms: 0.9473E+01   max: -.7627E+02   C at   74  1   RLX: 0.007
       a = -2.500      CL = -0.0496
      Cm = -0.0468     CD =  0.00963   =>   CDf =  0.00686    CDp =  0.00278

 Side 1  free  transition at x/c =  0.9394   72
 Side 2  free  transition at x/c =  0.0633   20

   5   rms: 0.1190E+00   max: -.6556E+00   D at   19  2   RLX: 0.763
       a = -2.500      CL = -0.0408
      Cm = -0.0442     CD =  0.01092   =>   CDf =  0.00697    CDp =  0.00395

 Side 1  free  transition at x/c =  0.9373   72
 Side 2  free  transition at x/c =  0.0696   19

   6   rms: 0.1684E+00   max: -.1954E+01   D at    2  1   RLX: 0.256
       a = -2.500      CL = -0.0214
      Cm = -0.0486     CD =  0.01096   =>   CDf =  0.00688    CDp =  0.00408

 Side 1  free  transition at x/c =  0.9515   73
 Side 2  free  transition at x/c =  0.0736   19

   7   rms: 0.6242E-01   max: 0.4670E+00   C at   19  2
       a = -2.500      CL = -0.0540
      Cm = -0.0408     CD =  0.01115   =>   CDf =  0.00685    CDp =  0.00430

 Side 1  free  transition at x/c =  0.9258   72
 Side 2  free  transition at x/c =  0.0688   19

   8   rms: 0.5337E-01   max: -.3095E+00   D at   77  1
       a = -2.500      CL = -0.0248
      Cm = -0.0471     CD =  0.01086   =>   CDf =  0.00685    CDp =  0.00401

 Side 1  free  transition at x/c =  0.9448   73
 Side 2  free  transition at x/c =  0.0731   19

   9   rms: 0.2050E-01   max: 0.1478E+00   D at   75  1
       a = -2.500      CL = -0.0282
      Cm = -0.0465     CD =  0.01095   =>   CDf =  0.00686    CDp =  0.00410

 Side 1  free  transition at x/c =  0.9394   73
 Side 2  free  transition at x/c =  0.0731   19

  10   rms: 0.3563E-02   max: -.2522E-01   D at   78  1
       a = -2.500      CL = -0.0274
      Cm = -0.0466     CD =  0.01097   =>   CDf =  0.00685    CDp =  0.00412

 Side 1  free  transition at x/c =  0.9401   73
 Side 2  free  transition at x/c =  0.0732   19

  11   rms: 0.5211E-04   max: 0.3933E-03   D at   78  1
       a = -2.500      CL = -0.0275
      Cm = -0.0466     CD =  0.01097   =>   CDf =  0.00685    CDp =  0.00412
 plradd ia,ip,cpol            4           0  1.49269844E-03

 Point added to stored polar  1
 Point written to save file  usa51_Re300k.base.pol                           
 Dump file unspecified or not available
 Calculating wake trajectory ...
 Calculating source influence matrix ...

 Solving BL system ...

 Side 1  free  transition at x/c =  0.9401   73
 Side 2  free  transition at x/c =  0.0732   19

   1   rms: 0.1360E+00   max: -.8300E+00   T at   19  2   RLX: 0.602
       a = -2.000      CL =  0.0208
      Cm = -0.0494     CD =  0.01040   =>   CDf =  0.00685    CDp =  0.00355

 MRCHDU: Convergence failed at  21  side 2    Res =  0.8873E+00
 MRCHDU: Convergence failed at  22  side 2    Res =  0.1224E+01
 MRCHDU: Convergence failed at  23  side 2    Res =  0.1382E+01
 MRCHDU: Convergence failed at  24  side 2    Res =  0.1475E+01
 MRCHDU: Convergence failed at  25  side 2    Res =  0.1581E+01
 MRCHDU: Convergence failed at  26  side 2    Res =  0.1183E+01
 MRCHDU: Convergence failed at  27  side 2    Res =  0.1320E+01
 MRCHDU: Convergence failed at  28  side 2    Res =  0.2095E+01
 MRCHDU: Convergence failed at  29  side 2    Res =  0.2360E+01
 MRCHDU: Convergence failed at  30  side 2    Res =  0.2675E+01
 MRCHDU: Convergence failed at  31  side 2    Res =  0.2804E+01
 MRCHDU: Convergence failed at  32  side 2    Res =  0.3253E+01
 MRCHDU: Convergence failed at  33  side 2    Res =  0.3421E+01
 MRCHDU: Convergence failed at  34  side 2    Res =  0.3537E+01
 MRCHDU: Convergence failed at  35  side 2    Res =  0.3590E+01
 MRCHDU: Convergence failed at  36  side 2    Res =  0.3590E+01
 MRCHDU: Convergence failed at  37  side 2    Res =  0.3570E+01
 MRCHDU: Convergence failed at  38  side 2    Res =  0.3523E+01
 MRCHDU: Convergence failed at  39  side 2    Res =  0.3477E+01
 MRCHDU: Convergence failed at  40  side 2    Res =  0.3432E+01
 MRCHDU: Convergence failed at  41  side 2    Res =  0.3378E+01
 MRCHDU: Convergence failed at  42  side 2    Res =  0.3338E+01
 MRCHDU: Convergence failed at  43  side 2    Res =  0.3300E+01
 MRCHDU: Convergence failed at  44  side 2    Res =  0.3262E+01
 MRCHDU: Convergence failed at  45  side 2    Res =  0.3239E+01
 MRCHDU: Convergence failed at  46  side 2    Res =  0.3214E+01
 MRCHDU: Convergence failed at  47  side 2    Res =  0.3193E+01
 MRCHDU: Convergence failed at  48  side 2    Res =  0.3178E+01
 MRCHDU: Convergence failed at  49  side 2    Res =  0.3165E+01
 MRCHDU: Convergence failed at  50  side 2    Res =  0.3163E+01
 MRCHDU: Convergence failed at  51  side 2    Res =  0.3152E+01
 MRCHDU: Convergence failed at  52  side 2    Res =  0.3138E+01
 MRCHDU: Convergence failed at  53  side 2    Res =  0.3120E+01
 MRCHDU: Convergence failed at  54  side 2    Res =  0.3100E+01
 MRCHDU: Convergence failed at  55  side 2    Res =  0.3077E+01
 MRCHDU: Convergence failed at  56  side 2    Res =  0.3054E+01
 MRCHDU: Convergence failed at  57  side 2    Res =  0.3029E+01
 MRCHDU: Convergence failed at  58  side 2    Res =  0.3011E+01
 MRCHDU: Convergence failed at  59  side 2    Res =  0.2996E+01
 MRCHDU: Convergence failed at  60  side 2    Res =  0.2982E+01
 MRCHDU: Convergence failed at  61  side 2    Res =  0.2977E+01
 MRCHDU: Convergence failed at  62  side 2    Res =  0.2977E+01
 MRCHDU: Convergence failed at  63  side 2    Res =  0.2983E+01
 MRCHDU: Convergence failed at  64  side 2    Res =  0.3058E+01
 MRCHDU: Convergence failed at  65  side 2    Res =  0.3152E+01
 MRCHDU: Convergence failed at  66  side 2    Res =  0.3250E+01
 MRCHDU: Convergence failed at  67  side 2    Res =  0.3348E+01
 MRCHDU: Convergence failed at  68  side 2    Res =  0.3455E+01
 MRCHDU: Convergence failed at  69  side 2    Res =  0.3570E+01
 MRCHDU: Convergence failed at  70  side 2    Res =  0.3766E+01
 MRCHDU: Convergence failed at  71  side 2    Res =  0.3927E+01
 MRCHDU: Convergence failed at  72  side 2    Res =  0.4101E+01
 MRCHDU: Convergence failed at  73  side 2    Res =  0.4262E+01
 MRCHDU: Convergence failed at  74  side 2    Res =  0.4423E+01
 MRCHDU: Convergence failed at  75  side 2    Res =  0.4624E+01
 MRCHDU: Convergence failed at  76  side 2    Res =  0.4737E+01
 MRCHDU: Convergence failed at  77  side 2    Res =  0.4904E+01
 MRCHDU: Convergence failed at  78  side 2    Res =  0.5129E+01
 MRCHDU: Convergence failed at  79  side 2    Res =  0.5449E+01
 MRCHDU: Convergence failed at  80  side 2    Res =  0.6255E+01
 MRCHDU: Convergence failed at  81  side 2    Res =  0.7531E+01
 MRCHDU: Convergence failed at  82  side 2    Res =  0.9826E+01
 MRCHDU: Convergence failed at  83  side 2    Res =  0.1429E+02
 MRCHDU: Convergence failed at  84  side 2    Res =  0.1001E+03
 Side 1  free  transition at x/c =  0.9346   72
 Side 2  free  transition at x/c =  0.1889   27

   2   rms: 0.3506E+00   max: 0.5699E+00   D at   88  2   RLX: 0.639
       a = -2.000      CL = -0.0994
      Cm = -0.0005     CD =  0.00677   =>   CDf =  0.00354    CDp =  0.00323

 Side 1  free  transition at x/c =  0.9313   72
 Side 2  free  transition at x/c =  0.3054   35

   3   rms: 0.1261E+00   max: -.1205E+01   C at   35  2   RLX: 0.415
       a = -2.000      CL = -0.0509
      Cm = -0.0204     CD =  0.00851   =>   CDf =  0.00689    CDp =  0.00163

 Side 1  free  transition at x/c =  0.9247   72
 Side 2  free  transition at x/c =  0.4098   42

   4   rms: 0.3090E+00   max: -.5245E+01   C at   42  2   RLX: 0.095
       a = -2.000      CL = -0.0474
      Cm = -0.0221     CD =  0.00834   =>   CDf =  0.00596    CDp =  0.00238

 Side 1  free  transition at x/c =  0.9244   72
 Side 2  free  transition at x/c =  0.4155   43

   5   rms: 0.2149E+00   max: -.3861E+01   C at   43  2   RLX: 0.129
       a = -2.000      CL = -0.0371
      Cm = -0.0256     CD =  0.00837   =>   CDf =  0.00592    CDp =  0.00245

 Side 1  free  transition at x/c =  0.9241   72
 Side 2  free  transition at x/c =  0.4167   43

   6   rms: 0.8923E-01   max: -.1326E+01   C at   43  2   RLX: 0.377
       a = -2.000      CL = -0.0119
      Cm = -0.0339     CD =  0.00847   =>   CDf =  0.00585    CDp =  0.00262

 Side 1  free  transition at x/c =  0.9235   71
 Side 2  free  transition at x/c =  0.4272   44

   7   rms: 0.6444E-01   max: 0.9158E+00   C at   44  2
       a = -2.000      CL =  0.0244
      Cm = -0.0462     CD =  0.00891   =>   CDf =  0.00566    CDp =  0.00325

 Side 1  free  transition at x/c =  0.9176   71
 Side 2  free  transition at x/c =  0.3224   36

   8   rms: 0.2098E-01   max: -.3040E+00   C at   36  2
       a = -2.000      CL =  0.0310
      Cm = -0.0474     CD =  0.00916   =>   CDf =  0.00586    CDp =  0.00330

 Side 1  free  transition at x/c =  0.9205   71
 Side 2  free  transition at x/c =  0.3336   37

   9   rms: 0.1661E-02   max: -.1064E-01   D at   40  2
       a = -2.000      CL =  0.0316
      Cm = -0.0476     CD =  0.00914   =>   CDf =  0.00580    CDp =  0.00333

 Side 1  free  transition at x/c =  0.9211   71
 Side 2  free  transition at x/c =  0.3337   37

  10   rms: 0.1925E-03   max: -.3411E-02   C at   37  2
       a = -2.000      CL =  0.0317
      Cm = -0.0476     CD =  0.00914   =>   CDf =  0.00581    CDp =  0.00333

 Side 1  free  transition at x/c =  0.9211   71
 Side 2  free  transition at x/c =  0.3339   37

  11   rms: 0.3164E-05   max: -.5555E-04   C at   37  2
       a = -2.000      CL =  0.0317
      Cm = -0.0476     CD =  0.00914   =>   CDf =  0.00581    CDp =  0.00333
 plradd ia,ip,cpol            5           0  2.73972959E-03

 Point added to stored polar  1
 Point written to save file  usa51_Re300k.base.pol                           
 Dump file unspecified or not available
 Calculating wake trajectory ...
 Calculating source influence matrix ...

 Solving BL system ...

 Side 1  free  transition at x/c =  0.9211   71
 Side 2  free  transition at x/c =  0.3339   37

   1   rms: 0.4853E+00   max: -.8913E+01   C at   37  2   RLX: 0.056
       a = -1.500      CL =  0.0328
      Cm = -0.0472     CD =  0.00906   =>   CDf =  0.00581    CDp =  0.00325

 Side 1  free  transition at x/c =  0.9184   71
 Side 2  free  transition at x/c =  0.3527   39

   2   rms: 0.5564E+00   max: -.1031E+02   C at   39  2   RLX: 0.048
       a = -1.500      CL =  0.0345
      Cm = -0.0470     CD =  0.00897   =>   CDf =  0.00574    CDp =  0.00323

 Side 1  free  transition at x/c =  0.9169   71
 Side 2  free  transition at x/c =  0.3686   40

   3   rms: 0.5486E+00   max: -.1010E+02   C at   40  2   RLX: 0.049
       a = -1.500      CL =  0.0368
      Cm = -0.0469     CD =  0.00890   =>   CDf =  0.00569    CDp =  0.00322

 Side 1  free  transition at x/c =  0.9157   71
 Side 2  free  transition at x/c =  0.3860   41

   4   rms: 0.5393E+00   max: -.9825E+01   C at   41  2   RLX: 0.051
       a = -1.500      CL =  0.0390
      Cm = -0.0469     CD =  0.00882   =>   CDf =  0.00562    CDp =  0.00320

 Side 1  free  transition at x/c =  0.9146   71
 Side 2  free  transition at x/c =  0.4060   42

   5   rms: 0.5010E+00   max: -.8951E+01   C at   42  2   RLX: 0.056
       a = -1.500      CL =  0.0415
      Cm = -0.0469     CD =  0.00874   =>   CDf =  0.00555    CDp =  0.00318

 Side 1  free  transition at x/c =  0.9136   71
 Side 2  free  transition at x/c =  0.4313   44

   6   rms: 0.4965E+00   max: -.8873E+01   C at   44  2   RLX: 0.056
       a = -1.500      CL =  0.0436
      Cm = -0.0468     CD =  0.00862   =>   CDf =  0.00546    CDp =  0.00316

 Side 1  free  transition at x/c =  0.9126   71
 Side 2  free  transition at x/c =  0.4539   45

   7   rms: 0.3815E+00   max: -.6624E+01   C at   45  2   RLX: 0.075
       a = -1.500      CL =  0.0468
      Cm = -0.0469     CD =  0.00852   =>   CDf =  0.00539    CDp =  0.00313

 Side 1  free  transition at x/c =  0.9116   71
 Side 2  free  transition at x/c =  0.4900   48

   8   rms: 0.4570E+00   max: -.8014E+01   C at   48  2   RLX: 0.062
       a = -1.500      CL =  0.0482
      Cm = -0.0467     CD =  0.00835   =>   CDf =  0.00535    CDp =  0.00301

 Side 1  free  transition at x/c =  0.9108   72
 Side 2  free  transition at x/c =  0.5114   48

   9   rms: 0.6101E+00   max: -.8025E+01   T at    2  1   RLX: 0.062
       a = -1.500      CL =  0.0505
      Cm = -0.0467     CD =  0.00828   =>   CDf =  0.00519    CDp =  0.00309

 Side 1  free  transition at x/c =  0.9101   72
 Side 2  free  transition at x/c =  0.5356   50

  10   rms: 0.4324E+00   max: -.7419E+01   C at   50  2   RLX: 0.067
       a = -1.500      CL =  0.0522
      Cm = -0.0466     CD =  0.00815   =>   CDf =  0.00509    CDp =  0.00305

 Side 1  free  transition at x/c =  0.9095   72
 Side 2  free  transition at x/c =  0.5592   52

  11   rms: 0.4395E+00   max: -.7584E+01   C at   52  2   RLX: 0.066
       a = -1.500      CL =  0.0538
      Cm = -0.0465     CD =  0.00804   =>   CDf =  0.00501    CDp =  0.00303

 Side 1  free  transition at x/c =  0.9089   71
 Side 2  free  transition at x/c =  0.5800   53

  12   rms: 0.2396E+00   max: -.4013E+01   C at   53  2   RLX: 0.125
       a = -1.500      CL =  0.0535
      Cm = -0.0457     CD =  0.00795   =>   CDf =  0.00492    CDp =  0.00303

 Side 1  free  transition at x/c =  0.9045   71
 Side 2  free  transition at x/c =  0.6041   55

  13   rms: 0.3041E+00   max: -.5185E+01   C at   55  2   RLX: 0.096
       a = -1.500      CL =  0.0542
      Cm = -0.0452     CD =  0.00789   =>   CDf =  0.00483    CDp =  0.00306

 Side 1  free  transition at x/c =  0.9028   71
 Side 2  free  transition at x/c =  0.6257   56

  14   rms: 0.2361E+00   max: -.3934E+01   C at   56  2   RLX: 0.127
       a = -1.500      CL =  0.0561
      Cm = -0.0450     CD =  0.00781   =>   CDf =  0.00475    CDp =  0.00306

 Side 1  free  transition at x/c =  0.9012   71
 Side 2  free  transition at x/c =  0.6582   58

  15   rms: 0.1210E+00   max: -.1941E+01   C at   58  2   RLX: 0.258
       a = -1.500      CL =  0.0603
      Cm = -0.0447     CD =  0.00768   =>   CDf =  0.00464    CDp =  0.00304

 Side 1  free  transition at x/c =  0.8987   71
 Side 2  free  transition at x/c =  0.7181   62

  16   rms: 0.3906E-01   max: -.2126E+00   C at   62  2
       a = -1.500      CL =  0.0757
      Cm = -0.0446     CD =  0.00743   =>   CDf =  0.00446    CDp =  0.00297

 Side 1  free  transition at x/c =  0.8931   70
 Side 2  free  transition at x/c =  0.8097   69

  17   rms: 0.1983E-01   max: 0.2238E+00   D at   63  2
       a = -1.500      CL =  0.0730
      Cm = -0.0439     CD =  0.00729   =>   CDf =  0.00422    CDp =  0.00307

 Side 1  free  transition at x/c =  0.8925   70
 Side 2  free  transition at x/c =  0.7894   67

  18   rms: 0.6799E-02   max: 0.9925E-01   C at   67  2
       a = -1.500      CL =  0.0740
      Cm = -0.0440     CD =  0.00727   =>   CDf =  0.00420    CDp =  0.00307

 Side 1  free  transition at x/c =  0.8928   70
 Side 2  free  transition at x/c =  0.7830   67

  19   rms: 0.4404E-03   max: -.7112E-02   C at   67  2
       a = -1.500      CL =  0.0740
      Cm = -0.0440     CD =  0.00728   =>   CDf =  0.00423    CDp =  0.00305

 Side 1  free  transition at x/c =  0.8928   70
 Side 2  free  transition at x/c =  0.7832   67

  20   rms: 0.1351E-05   max: -.1417E-04   C at   67  2
       a = -1.500      CL =  0.0740
      Cm = -0.0440     CD =  0.00728   =>   CDf =  0.00423    CDp =  0.00305
 plradd ia,ip,cpol            6           0  4.44137165E-03

 Point added to stored polar  1
 Point written to save file  usa51_Re300k.base.pol                           
 Dump file unspecified or not available
 Calculating wake trajectory ...
 Calculating source influence matrix ...

 Solving BL system ...

 Side 1  free  transition at x/c =  0.8928   70
 Side 2  free  transition at x/c =  0.7832   67

   1   rms: 0.2371E+00   max: -.3626E+01   C at   67  2   RLX: 0.138
       a = -1.000      CL =  0.0796
      Cm = -0.0433     CD =  0.00717   =>   CDf =  0.00423    CDp =  0.00294

 Side 1  free  transition at x/c =  0.8868   70
 Side 2  free  transition at x/c =  0.8070   68

   2   rms: 0.1110E+00   max: -.7920E+00   C at   68  2   RLX: 0.631
       a = -1.000      CL =  0.1117
      Cm = -0.0430     CD =  0.00699   =>   CDf =  0.00419    CDp =  0.00280

 MRCHDU: Convergence failed at  77  side 2    Res =  0.1797E+01
 Side 1  free  transition at x/c =  0.8694   69
 Side 2  free  transition at x/c =  0.9294   77

   3   rms: 0.1005E+00   max: 0.4949E+00   D at   78  2
       a = -1.000      CL =  0.1849
      Cm = -0.0541     CD =  0.00686   =>   CDf =  0.00417    CDp =  0.00269

 Side 1  free  transition at x/c =  0.8681   70
 Side 2  free  transition at x/c =  0.9627   78

   4   rms: 0.2531E-01   max: 0.2082E+00   D at    3  1
       a = -1.000      CL =  0.1768
      Cm = -0.0523     CD =  0.00696   =>   CDf =  0.00411    CDp =  0.00286

 Side 1  free  transition at x/c =  0.8661   69
 Side 2  free  transition at x/c =  0.9359   76

   5   rms: 0.1993E-01   max: -.1531E+00   D at   77  2
       a = -1.000      CL =  0.1684
      Cm = -0.0505     CD =  0.00697   =>   CDf =  0.00409    CDp =  0.00288

 Side 1  free  transition at x/c =  0.8641   69
 Side 2  free  transition at x/c =  0.9401   77

   6   rms: 0.6779E-02   max: 0.4813E-01   C at   77  2
       a = -1.000      CL =  0.1712
      Cm = -0.0511     CD =  0.00697   =>   CDf =  0.00409    CDp =  0.00288

 Side 1  free  transition at x/c =  0.8646   69
 Side 2  free  transition at x/c =  0.9386   77

   7   rms: 0.1864E-03   max: 0.1433E-02   C at   77  2
       a = -1.000      CL =  0.1713
      Cm = -0.0511     CD =  0.00697   =>   CDf =  0.00409    CDp =  0.00288

 Side 1  free  transition at x/c =  0.8646   69
 Side 2  free  transition at x/c =  0.9386   77

   8   rms: 0.1810E-05   max: -.9963E-05   D at   80  2
       a = -1.000      CL =  0.1713
      Cm = -0.0511     CD =  0.00697   =>   CDf =  0.00409    CDp =  0.00288
 plradd ia,ip,cpol            7           0  1.57219972E-02

 Point added to stored polar  1
 Point written to save file  usa51_Re300k.base.pol                           
 Dump file unspecified or not available
 Calculating wake trajectory ...
 Calculating source influence matrix ...

 Solving BL system ...

 Side 1  free  transition at x/c =  0.8646   69
 Side 2  free  transition at x/c =  0.9386   77

   1   rms: 0.1861E+00   max: 0.8102E+00   D at   80  2
       a = -0.500      CL =  0.3055
      Cm = -0.0667     CD =  0.00701   =>   CDf =  0.00422    CDp =  0.00279

 Side 1  free  transition at x/c =  0.7914   65
 Side 2  free  transition at x/c =  0.9847   79

   2   rms: 0.3420E-01   max: -.2636E+00   C at   65  1
       a = -0.500      CL =  0.2856
      Cm = -0.0622     CD =  0.00716   =>   CDf =  0.00469    CDp =  0.00247

 Side 1  free  transition at x/c =  0.8090   66
 Side 2  free  transition at x/c =  0.9835   79

   3   rms: 0.6993E-02   max: 0.9667E-01   C at   66  1
       a = -0.500      CL =  0.2843
      Cm = -0.0620     CD =  0.00720   =>   CDf =  0.00450    CDp =  0.00270

 Side 1  free  transition at x/c =  0.8059   66
 Side 2  free  transition at x/c =  0.9835   79

   4   rms: 0.5239E-03   max: -.7060E-02   D at   69  1
       a = -0.500      CL =  0.2843
      Cm = -0.0620     CD =  0.00720   =>   CDf =  0.00452    CDp =  0.00268

 Side 1  free  transition at x/c =  0.8056   66
 Side 2  free  transition at x/c =  0.9835   79

   5   rms: 0.3035E-05   max: -.3240E-04   C at   66  1
       a = -0.500      CL =  0.2843
      Cm = -0.0620     CD =  0.00720   =>   CDf =  0.00452    CDp =  0.00268
 plradd ia,ip,cpol            8           0  6.65834323E-02

 Point added to stored polar  1
 Point written to save file  usa51_Re300k.base.pol                           
 Dump file unspecified or not available
 Calculating wake trajectory ...
 Calculating source influence matrix ...

 Solving BL system ...

 Side 1  free  transition at x/c =  0.8056   66
 Side 2  free  transition at x/c =  0.9835   79

   1   rms: 0.1856E+00   max: 0.8643E+00   C at   79  2   RLX: 0.751
       a =  0.000      CL =  0.3710
      Cm = -0.0707     CD =  0.00754   =>   CDf =  0.00464    CDp =  0.00291

 Side 1  free  transition at x/c =  0.7461   63
 Side 2 forced transition at x/c =  1.0000   80

   2   rms: 0.2991E-01   max: -.2042E+00   D at   64  1
       a =  0.000      CL =  0.3714
      Cm = -0.0685     CD =  0.00745   =>   CDf =  0.00497    CDp =  0.00248

 Side 1  free  transition at x/c =  0.7327   62
 Side 2 forced transition at x/c =  1.0000   80

   3   rms: 0.3007E-02   max: -.2975E-01   C at   62  1
       a =  0.000      CL =  0.3717
      Cm = -0.0685     CD =  0.00744   =>   CDf =  0.00503    CDp =  0.00242

 Side 1  free  transition at x/c =  0.7331   62
 Side 2 forced transition at x/c =  1.0000   80

   4   rms: 0.6756E-04   max: -.9615E-03   D at   65  1
       a =  0.000      CL =  0.3717
      Cm = -0.0685     CD =  0.00744   =>   CDf =  0.00501    CDp =  0.00243
 plradd ia,ip,cpol            9           0  6.65834323E-02

 Point added to stored polar  1
 Point written to save file  usa51_Re300k.base.pol                           
 Dump file unspecified or not available
 Calculating wake trajectory ...
 Calculating source influence matrix ...

 Solving BL system ...

 Side 1  free  transition at x/c =  0.7331   62
 Side 2 forced transition at x/c =  1.0000   80

   1   rms: 0.1002E+00   max: 0.8541E+00   C at   62  1
       a =  0.500      CL =  0.4111
      Cm = -0.0652     CD =  0.00763   =>   CDf =  0.00502    CDp =  0.00261

 Side 1  free  transition at x/c =  0.6660   57
 Side 2 forced transition at x/c =  1.0000   80

   2   rms: 0.2229E-01   max: 0.2446E+00   D at   61  1
       a =  0.500      CL =  0.4108
      Cm = -0.0651     CD =  0.00765   =>   CDf =  0.00544    CDp =  0.00220

 Side 1  free  transition at x/c =  0.6690   58
 Side 2 forced transition at x/c =  1.0000   80

   3   rms: 0.4027E-02   max: -.5941E-01   D at   61  1
       a =  0.500      CL =  0.4110
      Cm = -0.0651     CD =  0.00766   =>   CDf =  0.00537    CDp =  0.00229

 Side 1  free  transition at x/c =  0.6666   58
 Side 2 forced transition at x/c =  1.0000   80

   4   rms: 0.1457E-03   max: -.3140E-02   D at   61  1
       a =  0.500      CL =  0.4110
      Cm = -0.0651     CD =  0.00766   =>   CDf =  0.00539    CDp =  0.00228

 Side 1  free  transition at x/c =  0.6666   58
 Side 2 forced transition at x/c =  1.0000   80

   5   rms: 0.4104E-05   max: 0.4007E-04   C at   58  1
       a =  0.500      CL =  0.4110
      Cm = -0.0651     CD =  0.00766   =>   CDf =  0.00539    CDp =  0.00228
 plradd ia,ip,cpol           10           0  6.65834323E-02

 Point added to stored polar  1
 Point written to save file  usa51_Re300k.base.pol                           
 Dump file unspecified or not available
 Calculating wake trajectory ...
 Calculating source influence matrix ...

 Solving BL system ...

 Side 1  free  transition at x/c =  0.6666   58
 Side 2 forced transition at x/c =  1.0000   80

   1   rms: 0.1198E+00   max: 0.1331E+01   C at   58  1   RLX: 0.837
       a =  1.000      CL =  0.4428
      Cm = -0.0620     CD =  0.00801   =>   CDf =  0.00547    CDp =  0.00254

 Side 1  free  transition at x/c =  0.5930   53
 Side 2 forced transition at x/c =  1.0000   79

   2   rms: 0.2751E-01   max: 0.2181E+00   D at   58  1
       a =  1.000      CL =  0.4500
      Cm = -0.0617     CD =  0.00796   =>   CDf =  0.00581    CDp =  0.00216

 Side 1  free  transition at x/c =  0.5779   52
 Side 2 forced transition at x/c =  1.0000   79

   3   rms: 0.3640E-02   max: -.4974E-01   C at   52  1
       a =  1.000      CL =  0.4492
      Cm = -0.0615     CD =  0.00803   =>   CDf =  0.00586    CDp =  0.00217

 Side 1  free  transition at x/c =  0.5789   52
 Side 2 forced transition at x/c =  1.0000   79

   4   rms: 0.4623E-02   max: -.7745E-01   C at   52  1
       a =  1.000      CL =  0.4492
      Cm = -0.0615     CD =  0.00803   =>   CDf =  0.00587    CDp =  0.00216

 Side 1  free  transition at x/c =  0.5790   52
 Side 2 forced transition at x/c =  1.0000   79

   5   rms: 0.4572E-02   max: -.7659E-01   C at   52  1
       a =  1.000      CL =  0.4492
      Cm = -0.0615     CD =  0.00803   =>   CDf =  0.00587    CDp =  0.00216

 Side 1  free  transition at x/c =  0.5790   52
 Side 2 forced transition at x/c =  1.0000   79

   6   rms: 0.4583E-02   max: -.7676E-01   C at   52  1
       a =  1.000      CL =  0.4492
      Cm = -0.0615     CD =  0.00803   =>   CDf =  0.00587    CDp =  0.00216

 Side 1  free  transition at x/c =  0.5790   52
 Side 2 forced transition at x/c =  1.0000   79

   7   rms: 0.4582E-02   max: -.7676E-01   C at   52  1
       a =  1.000      CL =  0.4492
      Cm = -0.0615     CD =  0.00803   =>   CDf =  0.00587    CDp =  0.00216

 Side 1  free  transition at x/c =  0.5790   52
 Side 2 forced transition at x/c =  1.0000   79

   8   rms: 0.4582E-02   max: -.7674E-01   C at   52  1
       a =  1.000      CL =  0.4492
      Cm = -0.0615     CD =  0.00803   =>   CDf =  0.00587    CDp =  0.00216

 Side 1  free  transition at x/c =  0.5790   52
 Side 2 forced transition at x/c =  1.0000   79

   9   rms: 0.4582E-02   max: -.7675E-01   C at   52  1
       a =  1.000      CL =  0.4492
      Cm = -0.0615     CD =  0.00803   =>   CDf =  0.00587    CDp =  0.00216

 Side 1  free  transition at x/c =  0.5790   52
 Side 2 forced transition at x/c =  1.0000   79

  10   rms: 0.4582E-02   max: -.7675E-01   C at   52  1
       a =  1.000      CL =  0.4492
      Cm = -0.0615     CD =  0.00803   =>   CDf =  0.00587    CDp =  0.00216

 Side 1  free  transition at x/c =  0.5790   52
 Side 2 forced transition at x/c =  1.0000   79

  11   rms: 0.4582E-02   max: -.7674E-01   C at   52  1
       a =  1.000      CL =  0.4492
      Cm = -0.0615     CD =  0.00803   =>   CDf =  0.00587    CDp =  0.00216

 Side 1  free  transition at x/c =  0.5790   52
 Side 2 forced transition at x/c =  1.0000   79

  12   rms: 0.4583E-02   max: -.7676E-01   C at   52  1
       a =  1.000      CL =  0.4492
      Cm = -0.0615     CD =  0.00803   =>   CDf =  0.00587    CDp =  0.00216

 Side 1  free  transition at x/c =  0.5790   52
 Side 2 forced transition at x/c =  1.0000   79

  13   rms: 0.4582E-02   max: -.7675E-01   C at   52  1
       a =  1.000      CL =  0.4492
      Cm = -0.0615     CD =  0.00803   =>   CDf =  0.00587    CDp =  0.00216

 Side 1  free  transition at x/c =  0.5790   52
 Side 2 forced transition at x/c =  1.0000   79

  14   rms: 0.4583E-02   max: -.7676E-01   C at   52  1
       a =  1.000      CL =  0.4492
      Cm = -0.0615     CD =  0.00803   =>   CDf =  0.00587    CDp =  0.00216

 Side 1  free  transition at x/c =  0.5790   52
 Side 2 forced transition at x/c =  1.0000   79

  15   rms: 0.4582E-02   max: -.7675E-01   C at   52  1
       a =  1.000      CL =  0.4492
      Cm = -0.0615     CD =  0.00803   =>   CDf =  0.00587    CDp =  0.00216

 Side 1  free  transition at x/c =  0.5790   52
 Side 2 forced transition at x/c =  1.0000   79

  16   rms: 0.4582E-02   max: -.7674E-01   C at   52  1
       a =  1.000      CL =  0.4492
      Cm = -0.0615     CD =  0.00803   =>   CDf =  0.00587    CDp =  0.00216

 Side 1  free  transition at x/c =  0.5790   52
 Side 2 forced transition at x/c =  1.0000   79

  17   rms: 0.4583E-02   max: -.7676E-01   C at   52  1
       a =  1.000      CL =  0.4492
      Cm = -0.0615     CD =  0.00803   =>   CDf =  0.00587    CDp =  0.00216

 Side 1  free  transition at x/c =  0.5790   52
 Side 2 forced transition at x/c =  1.0000   79

  18   rms: 0.4582E-02   max: -.7674E-01   C at   52  1
       a =  1.000      CL =  0.4492
      Cm = -0.0615     CD =  0.00803   =>   CDf =  0.00587    CDp =  0.00216

 Side 1  free  transition at x/c =  0.5790   52
 Side 2 forced transition at x/c =  1.0000   79

  19   rms: 0.4583E-02   max: -.7676E-01   C at   52  1
       a =  1.000      CL =  0.4492
      Cm = -0.0615     CD =  0.00803   =>   CDf =  0.00587    CDp =  0.00216

 Side 1  free  transition at x/c =  0.5790   52
 Side 2 forced transition at x/c =  1.0000   79

  20   rms: 0.4582E-02   max: -.7674E-01   C at   52  1
       a =  1.000      CL =  0.4492
      Cm = -0.0615     CD =  0.00803   =>   CDf =  0.00587    CDp =  0.00216

 Side 1  free  transition at x/c =  0.5790   52
 Side 2 forced transition at x/c =  1.0000   79

  21   rms: 0.4582E-02   max: -.7675E-01   C at   52  1
       a =  1.000      CL =  0.4492
      Cm = -0.0615     CD =  0.00803   =>   CDf =  0.00587    CDp =  0.00216

 Side 1  free  transition at x/c =  0.5790   52
 Side 2 forced transition at x/c =  1.0000   79

  22   rms: 0.4582E-02   max: -.7674E-01   C at   52  1
       a =  1.000      CL =  0.4492
      Cm = -0.0615     CD =  0.00803   =>   CDf =  0.00587    CDp =  0.00216

 Side 1  free  transition at x/c =  0.5790   52
 Side 2 forced transition at x/c =  1.0000   79

  23   rms: 0.4583E-02   max: -.7676E-01   C at   52  1
       a =  1.000      CL =  0.4492
      Cm = -0.0615     CD =  0.00803   =>   CDf =  0.00587    CDp =  0.00216

 Side 1  free  transition at x/c =  0.5790   52
 Side 2 forced transition at x/c =  1.0000   79

  24   rms: 0.4582E-02   max: -.7675E-01   C at   52  1
       a =  1.000      CL =  0.4492
      Cm = -0.0615     CD =  0.00803   =>   CDf =  0.00587    CDp =  0.00216

 Side 1  free  transition at x/c =  0.5790   52
 Side 2 forced transition at x/c =  1.0000   79

  25   rms: 0.4582E-02   max: -.7674E-01   C at   52  1
       a =  1.000      CL =  0.4492
      Cm = -0.0615     CD =  0.00803   =>   CDf =  0.00587    CDp =  0.00216

 Side 1  free  transition at x/c =  0.5790   52
 Side 2 forced transition at x/c =  1.0000   79

  26   rms: 0.4582E-02   max: -.7675E-01   C at   52  1
       a =  1.000      CL =  0.4492
      Cm = -0.0615     CD =  0.00803   =>   CDf =  0.00587    CDp =  0.00216

 Side 1  free  transition at x/c =  0.5790   52
 Side 2 forced transition at x/c =  1.0000   79

  27   rms: 0.4582E-02   max: -.7674E-01   C at   52  1
       a =  1.000      CL =  0.4492
      Cm = -0.0615     CD =  0.00803   =>   CDf =  0.00587    CDp =  0.00216

 Side 1  free  transition at x/c =  0.5790   52
 Side 2 forced transition at x/c =  1.0000   79

  28   rms: 0.4582E-02   max: -.7674E-01   C at   52  1
       a =  1.000      CL =  0.4492
      Cm = -0.0615     CD =  0.00803   =>   CDf =  0.00587    CDp =  0.00216

 Side 1  free  transition at x/c =  0.5790   52
 Side 2 forced transition at x/c =  1.0000   79

  29   rms: 0.4582E-02   max: -.7675E-01   C at   52  1
       a =  1.000      CL =  0.4492
      Cm = -0.0615     CD =  0.00803   =>   CDf =  0.00587    CDp =  0.00216

 Side 1  free  transition at x/c =  0.5790   52
 Side 2 forced transition at x/c =  1.0000   79

  30   rms: 0.4582E-02   max: -.7675E-01   C at   52  1
       a =  1.000      CL =  0.4492
      Cm = -0.0615     CD =  0.00803   =>   CDf =  0.00587    CDp =  0.00216

 Side 1  free  transition at x/c =  0.5790   52
 Side 2 forced transition at x/c =  1.0000   79

  31   rms: 0.4583E-02   max: -.7676E-01   C at   52  1
       a =  1.000      CL =  0.4492
      Cm = -0.0615     CD =  0.00803   =>   CDf =  0.00587    CDp =  0.00216

 Side 1  free  transition at x/c =  0.5790   52
 Side 2 forced transition at x/c =  1.0000   79

  32   rms: 0.4583E-02   max: -.7676E-01   C at   52  1
       a =  1.000      CL =  0.4492
      Cm = -0.0615     CD =  0.00803   =>   CDf =  0.00587    CDp =  0.00216

 Side 1  free  transition at x/c =  0.5790   52
 Side 2 forced transition at x/c =  1.0000   79

  33   rms: 0.4582E-02   max: -.7674E-01   C at   52  1
       a =  1.000      CL =  0.4492
      Cm = -0.0615     CD =  0.00803   =>   CDf =  0.00587    CDp =  0.00216

 Side 1  free  transition at x/c =  0.5790   52
 Side 2 forced transition at x/c =  1.0000   79

  34   rms: 0.4583E-02   max: -.7676E-01   C at   52  1
       a =  1.000      CL =  0.4492
      Cm = -0.0615     CD =  0.00803   =>   CDf =  0.00587    CDp =  0.00216

 Side 1  free  transition at x/c =  0.5790   52
 Side 2 forced transition at x/c =  1.0000   79

  35   rms: 0.4582E-02   max: -.7675E-01   C at   52  1
       a =  1.000      CL =  0.4492
      Cm = -0.0615     CD =  0.00803   =>   CDf =  0.00587    CDp =  0.00216

 Side 1  free  transition at x/c =  0.5790   52
 Side 2 forced transition at x/c =  1.0000   79

  36   rms: 0.4582E-02   max: -.7675E-01   C at   52  1
       a =  1.000      CL =  0.4492
      Cm = -0.0615     CD =  0.00803   =>   CDf =  0.00587    CDp =  0.00216

 Side 1  free  transition at x/c =  0.5790   52
 Side 2 forced transition at x/c =  1.0000   79

  37   rms: 0.4582E-02   max: -.7675E-01   C at   52  1
       a =  1.000      CL =  0.4492
      Cm = -0.0615     CD =  0.00803   =>   CDf =  0.00587    CDp =  0.00216

 Side 1  free  transition at x/c =  0.5790   52
 Side 2 forced transition at x/c =  1.0000   79

  38   rms: 0.4582E-02   max: -.7674E-01   C at   52  1
       a =  1.000      CL =  0.4492
      Cm = -0.0615     CD =  0.00803   =>   CDf =  0.00587    CDp =  0.00216

 Side 1  free  transition at x/c =  0.5790   52
 Side 2 forced transition at x/c =  1.0000   79

  39   rms: 0.4582E-02   max: -.7674E-01   C at   52  1
       a =  1.000      CL =  0.4492
      Cm = -0.0615     CD =  0.00803   =>   CDf =  0.00587    CDp =  0.00216

 Side 1  free  transition at x/c =  0.5790   52
 Side 2 forced transition at x/c =  1.0000   79

  40   rms: 0.4583E-02   max: -.7676E-01   C at   52  1
       a =  1.000      CL =  0.4492
      Cm = -0.0615     CD =  0.00803   =>   CDf =  0.00587    CDp =  0.00216

 Side 1  free  transition at x/c =  0.5790   52
 Side 2 forced transition at x/c =  1.0000   79

  41   rms: 0.4581E-02   max: -.7673E-01   C at   52  1
       a =  1.000      CL =  0.4492
      Cm = -0.0615     CD =  0.00803   =>   CDf =  0.00587    CDp =  0.00216

 Side 1  free  transition at x/c =  0.5790   52
 Side 2 forced transition at x/c =  1.0000   79

  42   rms: 0.4582E-02   max: -.7675E-01   C at   52  1
       a =  1.000      CL =  0.4492
      Cm = -0.0615     CD =  0.00803   =>   CDf =  0.00587    CDp =  0.00216

 Side 1  free  transition at x/c =  0.5790   52
 Side 2 forced transition at x/c =  1.0000   79

  43   rms: 0.4582E-02   max: -.7675E-01   C at   52  1
       a =  1.000      CL =  0.4492
      Cm = -0.0615     CD =  0.00803   =>   CDf =  0.00587    CDp =  0.00216

 Side 1  free  transition at x/c =  0.5790   52
 Side 2 forced transition at x/c =  1.0000   79

  44   rms: 0.4582E-02   max: -.7675E-01   C at   52  1
       a =  1.000      CL =  0.4492
      Cm = -0.0615     CD =  0.00803   =>   CDf =  0.00587    CDp =  0.00216

 Side 1  free  transition at x/c =  0.5790   52
 Side 2 forced transition at x/c =  1.0000   79

  45   rms: 0.4582E-02   max: -.7674E-01   C at   52  1
       a =  1.000      CL =  0.4492
      Cm = -0.0615     CD =  0.00803   =>   CDf =  0.00587    CDp =  0.00216

 Side 1  free  transition at x/c =  0.5790   52
 Side 2 forced transition at x/c =  1.0000   79

  46   rms: 0.4582E-02   max: -.7675E-01   C at   52  1
       a =  1.000      CL =  0.4492
      Cm = -0.0615     CD =  0.00803   =>   CDf =  0.00587    CDp =  0.00216

 Side 1  free  transition at x/c =  0.5790   52
 Side 2 forced transition at x/c =  1.0000   79

  47   rms: 0.4582E-02   max: -.7676E-01   C at   52  1
       a =  1.000      CL =  0.4492
      Cm = -0.0615     CD =  0.00803   =>   CDf =  0.00587    CDp =  0.00216

 Side 1  free  transition at x/c =  0.5790   52
 Side 2 forced transition at x/c =  1.0000   79

  48   rms: 0.4582E-02   max: -.7674E-01   C at   52  1
       a =  1.000      CL =  0.4492
      Cm = -0.0615     CD =  0.00803   =>   CDf =  0.00587    CDp =  0.00216

 Side 1  free  transition at x/c =  0.5790   52
 Side 2 forced transition at x/c =  1.0000   79

  49   rms: 0.4582E-02   max: -.7675E-01   C at   52  1
       a =  1.000      CL =  0.4492
      Cm = -0.0615     CD =  0.00803   =>   CDf =  0.00587    CDp =  0.00216

 Side 1  free  transition at x/c =  0.5790   52
 Side 2 forced transition at x/c =  1.0000   79

  50   rms: 0.4583E-02   max: -.7676E-01   C at   52  1
       a =  1.000      CL =  0.4492
      Cm = -0.0615     CD =  0.00803   =>   CDf =  0.00587    CDp =  0.00216

 Side 1  free  transition at x/c =  0.5790   52
 Side 2 forced transition at x/c =  1.0000   79

  51   rms: 0.4581E-02   max: -.7673E-01   C at   52  1
       a =  1.000      CL =  0.4492
      Cm = -0.0615     CD =  0.00803   =>   CDf =  0.00587    CDp =  0.00216

 Side 1  free  transition at x/c =  0.5790   52
 Side 2 forced transition at x/c =  1.0000   79

  52   rms: 0.4583E-02   max: -.7677E-01   C at   52  1
       a =  1.000      CL =  0.4492
      Cm = -0.0615     CD =  0.00803   =>   CDf =  0.00587    CDp =  0.00216

 Side 1  free  transition at x/c =  0.5790   52
 Side 2 forced transition at x/c =  1.0000   79

  53   rms: 0.4582E-02   max: -.7675E-01   C at   52  1
       a =  1.000      CL =  0.4492
      Cm = -0.0615     CD =  0.00803   =>   CDf =  0.00587    CDp =  0.00216

 Side 1  free  transition at x/c =  0.5790   52
 Side 2 forced transition at x/c =  1.0000   79

  54   rms: 0.4582E-02   max: -.7675E-01   C at   52  1
       a =  1.000      CL =  0.4492
      Cm = -0.0615     CD =  0.00803   =>   CDf =  0.00587    CDp =  0.00216

 Side 1  free  transition at x/c =  0.5790   52
 Side 2 forced transition at x/c =  1.0000   79

  55   rms: 0.4582E-02   max: -.7674E-01   C at   52  1
       a =  1.000      CL =  0.4492
      Cm = -0.0615     CD =  0.00803   =>   CDf =  0.00587    CDp =  0.00216

 Side 1  free  transition at x/c =  0.5790   52
 Side 2 forced transition at x/c =  1.0000   79

  56   rms: 0.4583E-02   max: -.7676E-01   C at   52  1
       a =  1.000      CL =  0.4492
      Cm = -0.0615     CD =  0.00803   =>   CDf =  0.00587    CDp =  0.00216

 Side 1  free  transition at x/c =  0.5790   52
 Side 2 forced transition at x/c =  1.0000   79

  57   rms: 0.4582E-02   max: -.7675E-01   C at   52  1
       a =  1.000      CL =  0.4492
      Cm = -0.0615     CD =  0.00803   =>   CDf =  0.00587    CDp =  0.00216

 Side 1  free  transition at x/c =  0.5790   52
 Side 2 forced transition at x/c =  1.0000   79

  58   rms: 0.4582E-02   max: -.7675E-01   C at   52  1
       a =  1.000      CL =  0.4492
      Cm = -0.0615     CD =  0.00803   =>   CDf =  0.00587    CDp =  0.00216

 Side 1  free  transition at x/c =  0.5790   52
 Side 2 forced transition at x/c =  1.0000   79

  59   rms: 0.4582E-02   max: -.7675E-01   C at   52  1
       a =  1.000      CL =  0.4492
      Cm = -0.0615     CD =  0.00803   =>   CDf =  0.00587    CDp =  0.00216

 Side 1  free  transition at x/c =  0.5790   52
 Side 2 forced transition at x/c =  1.0000   79

  60   rms: 0.4582E-02   max: -.7675E-01   C at   52  1
       a =  1.000      CL =  0.4492
      Cm = -0.0615     CD =  0.00803   =>   CDf =  0.00587    CDp =  0.00216

 Side 1  free  transition at x/c =  0.5790   52
 Side 2 forced transition at x/c =  1.0000   79

  61   rms: 0.4582E-02   max: -.7675E-01   C at   52  1
       a =  1.000      CL =  0.4492
      Cm = -0.0615     CD =  0.00803   =>   CDf =  0.00587    CDp =  0.00216

 Side 1  free  transition at x/c =  0.5790   52
 Side 2 forced transition at x/c =  1.0000   79

  62   rms: 0.4582E-02   max: -.7674E-01   C at   52  1
       a =  1.000      CL =  0.4492
      Cm = -0.0615     CD =  0.00803   =>   CDf =  0.00587    CDp =  0.00216

 Side 1  free  transition at x/c =  0.5790   52
 Side 2 forced transition at x/c =  1.0000   79

  63   rms: 0.4582E-02   max: -.7675E-01   C at   52  1
       a =  1.000      CL =  0.4492
      Cm = -0.0615     CD =  0.00803   =>   CDf =  0.00587    CDp =  0.00216

 Side 1  free  transition at x/c =  0.5790   52
 Side 2 forced transition at x/c =  1.0000   79

  64   rms: 0.4582E-02   max: -.7674E-01   C at   52  1
       a =  1.000      CL =  0.4492
      Cm = -0.0615     CD =  0.00803   =>   CDf =  0.00587    CDp =  0.00216

 Side 1  free  transition at x/c =  0.5790   52
 Side 2 forced transition at x/c =  1.0000   79

  65   rms: 0.4582E-02   max: -.7675E-01   C at   52  1
       a =  1.000      CL =  0.4492
      Cm = -0.0615     CD =  0.00803   =>   CDf =  0.00587    CDp =  0.00216

 Side 1  free  transition at x/c =  0.5790   52
 Side 2 forced transition at x/c =  1.0000   79

  66   rms: 0.4582E-02   max: -.7676E-01   C at   52  1
       a =  1.000      CL =  0.4492
      Cm = -0.0615     CD =  0.00803   =>   CDf =  0.00587    CDp =  0.00216

 Side 1  free  transition at x/c =  0.5790   52
 Side 2 forced transition at x/c =  1.0000   79

  67   rms: 0.4583E-02   max: -.7676E-01   C at   52  1
       a =  1.000      CL =  0.4492
      Cm = -0.0615     CD =  0.00803   =>   CDf =  0.00587    CDp =  0.00216

 Side 1  free  transition at x/c =  0.5790   52
 Side 2 forced transition at x/c =  1.0000   79

  68   rms: 0.4581E-02   max: -.7673E-01   C at   52  1
       a =  1.000      CL =  0.4492
      Cm = -0.0615     CD =  0.00803   =>   CDf =  0.00587    CDp =  0.00216

 Side 1  free  transition at x/c =  0.5790   52
 Side 2 forced transition at x/c =  1.0000   79

  69   rms: 0.4583E-02   max: -.7677E-01   C at   52  1
       a =  1.000      CL =  0.4492
      Cm = -0.0615     CD =  0.00803   =>   CDf =  0.00587    CDp =  0.00216

 Side 1  free  transition at x/c =  0.5790   52
 Side 2 forced transition at x/c =  1.0000   79

  70   rms: 0.4581E-02   max: -.7674E-01   C at   52  1
       a =  1.000      CL =  0.4492
      Cm = -0.0615     CD =  0.00803   =>   CDf =  0.00587    CDp =  0.00216

 Side 1  free  transition at x/c =  0.5790   52
 Side 2 forced transition at x/c =  1.0000   79

  71   rms: 0.4582E-02   max: -.7676E-01   C at   52  1
       a =  1.000      CL =  0.4492
      Cm = -0.0615     CD =  0.00803   =>   CDf =  0.00587    CDp =  0.00216

 Side 1  free  transition at x/c =  0.5790   52
 Side 2 forced transition at x/c =  1.0000   79

  72   rms: 0.4582E-02   max: -.7674E-01   C at   52  1
       a =  1.000      CL =  0.4492
      Cm = -0.0615     CD =  0.00803   =>   CDf =  0.00587    CDp =  0.00216

 Side 1  free  transition at x/c =  0.5790   52
 Side 2 forced transition at x/c =  1.0000   79

  73   rms: 0.4582E-02   max: -.7675E-01   C at   52  1
       a =  1.000      CL =  0.4492
      Cm = -0.0615     CD =  0.00803   =>   CDf =  0.00587    CDp =  0.00216

 Side 1  free  transition at x/c =  0.5790   52
 Side 2 forced transition at x/c =  1.0000   79

  74   rms: 0.4582E-02   max: -.7674E-01   C at   52  1
       a =  1.000      CL =  0.4492
      Cm = -0.0615     CD =  0.00803   =>   CDf =  0.00587    CDp =  0.00216

 Side 1  free  transition at x/c =  0.5790   52
 Side 2 forced transition at x/c =  1.0000   79

  75   rms: 0.4582E-02   max: -.7675E-01   C at   52  1
       a =  1.000      CL =  0.4492
      Cm = -0.0615     CD =  0.00803   =>   CDf =  0.00587    CDp =  0.00216

 Side 1  free  transition at x/c =  0.5790   52
 Side 2 forced transition at x/c =  1.0000   79

  76   rms: 0.4582E-02   max: -.7675E-01   C at   52  1
       a =  1.000      CL =  0.4492
      Cm = -0.0615     CD =  0.00803   =>   CDf =  0.00587    CDp =  0.00216

 Side 1  free  transition at x/c =  0.5790   52
 Side 2 forced transition at x/c =  1.0000   79

  77   rms: 0.4582E-02   max: -.7675E-01   C at   52  1
       a =  1.000      CL =  0.4492
      Cm = -0.0615     CD =  0.00803   =>   CDf =  0.00587    CDp =  0.00216

 Side 1  free  transition at x/c =  0.5790   52
 Side 2 forced transition at x/c =  1.0000   79

  78   rms: 0.4583E-02   max: -.7676E-01   C at   52  1
       a =  1.000      CL =  0.4492
      Cm = -0.0615     CD =  0.00803   =>   CDf =  0.00587    CDp =  0.00216

 Side 1  free  transition at x/c =  0.5790   52
 Side 2 forced transition at x/c =  1.0000   79

  79   rms: 0.4582E-02   max: -.7674E-01   C at   52  1
       a =  1.000      CL =  0.4492
      Cm = -0.0615     CD =  0.00803   =>   CDf =  0.00587    CDp =  0.00216

 Side 1  free  transition at x/c =  0.5790   52
 Side 2 forced transition at x/c =  1.0000   79

  80   rms: 0.4583E-02   max: -.7676E-01   C at   52  1
       a =  1.000      CL =  0.4492
      Cm = -0.0615     CD =  0.00803   =>   CDf =  0.00587    CDp =  0.00216

 Side 1  free  transition at x/c =  0.5790   52
 Side 2 forced transition at x/c =  1.0000   79

  81   rms: 0.4581E-02   max: -.7673E-01   C at   52  1
       a =  1.000      CL =  0.4492
      Cm = -0.0615     CD =  0.00803   =>   CDf =  0.00587    CDp =  0.00216

 Side 1  free  transition at x/c =  0.5790   52
 Side 2 forced transition at x/c =  1.0000   79

  82   rms: 0.4583E-02   max: -.7676E-01   C at   52  1
       a =  1.000      CL =  0.4492
      Cm = -0.0615     CD =  0.00803   =>   CDf =  0.00587    CDp =  0.00216

 Side 1  free  transition at x/c =  0.5790   52
 Side 2 forced transition at x/c =  1.0000   79

  83   rms: 0.4582E-02   max: -.7675E-01   C at   52  1
       a =  1.000      CL =  0.4492
      Cm = -0.0615     CD =  0.00803   =>   CDf =  0.00587    CDp =  0.00216

 Side 1  free  transition at x/c =  0.5790   52
 Side 2 forced transition at x/c =  1.0000   79

  84   rms: 0.4582E-02   max: -.7674E-01   C at   52  1
       a =  1.000      CL =  0.4492
      Cm = -0.0615     CD =  0.00803   =>   CDf =  0.00587    CDp =  0.00216

 Side 1  free  transition at x/c =  0.5790   52
 Side 2 forced transition at x/c =  1.0000   79

  85   rms: 0.4582E-02   max: -.7675E-01   C at   52  1
       a =  1.000      CL =  0.4492
      Cm = -0.0615     CD =  0.00803   =>   CDf =  0.00587    CDp =  0.00216

 Side 1  free  transition at x/c =  0.5790   52
 Side 2 forced transition at x/c =  1.0000   79

  86   rms: 0.4582E-02   max: -.7675E-01   C at   52  1
       a =  1.000      CL =  0.4492
      Cm = -0.0615     CD =  0.00803   =>   CDf =  0.00587    CDp =  0.00216

 Side 1  free  transition at x/c =  0.5790   52
 Side 2 forced transition at x/c =  1.0000   79

  87   rms: 0.4582E-02   max: -.7675E-01   C at   52  1
       a =  1.000      CL =  0.4492
      Cm = -0.0615     CD =  0.00803   =>   CDf =  0.00587    CDp =  0.00216

 Side 1  free  transition at x/c =  0.5790   52
 Side 2 forced transition at x/c =  1.0000   79

  88   rms: 0.4582E-02   max: -.7676E-01   C at   52  1
       a =  1.000      CL =  0.4492
      Cm = -0.0615     CD =  0.00803   =>   CDf =  0.00587    CDp =  0.00216

 Side 1  free  transition at x/c =  0.5790   52
 Side 2 forced transition at x/c =  1.0000   79

  89   rms: 0.4582E-02   max: -.7674E-01   C at   52  1
       a =  1.000      CL =  0.4492
      Cm = -0.0615     CD =  0.00803   =>   CDf =  0.00587    CDp =  0.00216

 Side 1  free  transition at x/c =  0.5790   52
 Side 2 forced transition at x/c =  1.0000   79

  90   rms: 0.4582E-02   max: -.7675E-01   C at   52  1
       a =  1.000      CL =  0.4492
      Cm = -0.0615     CD =  0.00803   =>   CDf =  0.00587    CDp =  0.00216

 Side 1  free  transition at x/c =  0.5790   52
 Side 2 forced transition at x/c =  1.0000   79

  91   rms: 0.4581E-02   max: -.7674E-01   C at   52  1
       a =  1.000      CL =  0.4492
      Cm = -0.0615     CD =  0.00803   =>   CDf =  0.00587    CDp =  0.00216

 Side 1  free  transition at x/c =  0.5790   52
 Side 2 forced transition at x/c =  1.0000   79

  92   rms: 0.4582E-02   max: -.7675E-01   C at   52  1
       a =  1.000      CL =  0.4492
      Cm = -0.0615     CD =  0.00803   =>   CDf =  0.00587    CDp =  0.00216

 Side 1  free  transition at x/c =  0.5790   52
 Side 2 forced transition at x/c =  1.0000   79

  93   rms: 0.4583E-02   max: -.7676E-01   C at   52  1
       a =  1.000      CL =  0.4492
      Cm = -0.0615     CD =  0.00803   =>   CDf =  0.00587    CDp =  0.00216

 Side 1  free  transition at x/c =  0.5790   52
 Side 2 forced transition at x/c =  1.0000   79

  94   rms: 0.4581E-02   max: -.7674E-01   C at   52  1
       a =  1.000      CL =  0.4492
      Cm = -0.0615     CD =  0.00803   =>   CDf =  0.00587    CDp =  0.00216

 Side 1  free  transition at x/c =  0.5790   52
 Side 2 forced transition at x/c =  1.0000   79

  95   rms: 0.4582E-02   max: -.7676E-01   C at   52  1
       a =  1.000      CL =  0.4492
      Cm = -0.0615     CD =  0.00803   =>   CDf =  0.00587    CDp =  0.00216

 Side 1  free  transition at x/c =  0.5790   52
 Side 2 forced transition at x/c =  1.0000   79

  96   rms: 0.4582E-02   max: -.7675E-01   C at   52  1
       a =  1.000      CL =  0.4492
      Cm = -0.0615     CD =  0.00803   =>   CDf =  0.00587    CDp =  0.00216

 Side 1  free  transition at x/c =  0.5790   52
 Side 2 forced transition at x/c =  1.0000   79

  97   rms: 0.4581E-02   max: -.7674E-01   C at   52  1
       a =  1.000      CL =  0.4492
      Cm = -0.0615     CD =  0.00803   =>   CDf =  0.00587    CDp =  0.00216

 Side 1  free  transition at x/c =  0.5790   52
 Side 2 forced transition at x/c =  1.0000   79

  98   rms: 0.4582E-02   max: -.7675E-01   C at   52  1
       a =  1.000      CL =  0.4492
      Cm = -0.0615     CD =  0.00803   =>   CDf =  0.00587    CDp =  0.00216

 Side 1  free  transition at x/c =  0.5790   52
 Side 2 forced transition at x/c =  1.0000   79

  99   rms: 0.4582E-02   max: -.7675E-01   C at   52  1
       a =  1.000      CL =  0.4492
      Cm = -0.0615     CD =  0.00803   =>   CDf =  0.00587    CDp =  0.00216

 Side 1  free  transition at x/c =  0.5790   52
 Side 2 forced transition at x/c =  1.0000   79

 100   rms: 0.4582E-02   max: -.7675E-01   C at   52  1
       a =  1.000      CL =  0.4492
      Cm = -0.0615     CD =  0.00803   =>   CDf =  0.00587    CDp =  0.00216

 Side 1  free  transition at x/c =  0.5790   52
 Side 2 forced transition at x/c =  1.0000   79

 101   rms: 0.4583E-02   max: -.7676E-01   C at   52  1
       a =  1.000      CL =  0.4492
      Cm = -0.0615     CD =  0.00803   =>   CDf =  0.00587    CDp =  0.00216

 Side 1  free  transition at x/c =  0.5790   52
 Side 2 forced transition at x/c =  1.0000   79

 102   rms: 0.4582E-02   max: -.7675E-01   C at   52  1
       a =  1.000      CL =  0.4492
      Cm = -0.0615     CD =  0.00803   =>   CDf =  0.00587    CDp =  0.00216

 Side 1  free  transition at x/c =  0.5790   52
 Side 2 forced transition at x/c =  1.0000   79

 103   rms: 0.4582E-02   max: -.7674E-01   C at   52  1
       a =  1.000      CL =  0.4492
      Cm = -0.0615     CD =  0.00803   =>   CDf =  0.00587    CDp =  0.00216

 Side 1  free  transition at x/c =  0.5790   52
 Side 2 forced transition at x/c =  1.0000   79

 104   rms: 0.4582E-02   max: -.7675E-01   C at   52  1
       a =  1.000      CL =  0.4492
      Cm = -0.0615     CD =  0.00803   =>   CDf =  0.00587    CDp =  0.00216

 Side 1  free  transition at x/c =  0.5790   52
 Side 2 forced transition at x/c =  1.0000   79

 105   rms: 0.4582E-02   max: -.7674E-01   C at   52  1
       a =  1.000      CL =  0.4492
      Cm = -0.0615     CD =  0.00803   =>   CDf =  0.00587    CDp =  0.00216

 Side 1  free  transition at x/c =  0.5790   52
 Side 2 forced transition at x/c =  1.0000   79

 106   rms: 0.4583E-02   max: -.7676E-01   C at   52  1
       a =  1.000      CL =  0.4492
      Cm = -0.0615     CD =  0.00803   =>   CDf =  0.00587    CDp =  0.00216

 Side 1  free  transition at x/c =  0.5790   52
 Side 2 forced transition at x/c =  1.0000   79

 107   rms: 0.4581E-02   max: -.7673E-01   C at   52  1
       a =  1.000      CL =  0.4492
      Cm = -0.0615     CD =  0.00803   =>   CDf =  0.00587    CDp =  0.00216

 Side 1  free  transition at x/c =  0.5790   52
 Side 2 forced transition at x/c =  1.0000   79

 108   rms: 0.4583E-02   max: -.7675E-01   C at   52  1
       a =  1.000      CL =  0.4492
      Cm = -0.0615     CD =  0.00803   =>   CDf =  0.00587    CDp =  0.00216

 Side 1  free  transition at x/c =  0.5790   52
 Side 2 forced transition at x/c =  1.0000   79

 109   rms: 0.4582E-02   max: -.7676E-01   C at   52  1
       a =  1.000      CL =  0.4492
      Cm = -0.0615     CD =  0.00803   =>   CDf =  0.00587    CDp =  0.00216

 Side 1  free  transition at x/c =  0.5790   52
 Side 2 forced transition at x/c =  1.0000   79

 110   rms: 0.4582E-02   max: -.7675E-01   C at   52  1
       a =  1.000      CL =  0.4492
      Cm = -0.0615     CD =  0.00803   =>   CDf =  0.00587    CDp =  0.00216

 Side 1  free  transition at x/c =  0.5790   52
 Side 2 forced transition at x/c =  1.0000   79

 111   rms: 0.4582E-02   max: -.7674E-01   C at   52  1
       a =  1.000      CL =  0.4492
      Cm = -0.0615     CD =  0.00803   =>   CDf =  0.00587    CDp =  0.00216

 Side 1  free  transition at x/c =  0.5790   52
 Side 2 forced transition at x/c =  1.0000   79

 112   rms: 0.4582E-02   max: -.7675E-01   C at   52  1
       a =  1.000      CL =  0.4492
      Cm = -0.0615     CD =  0.00803   =>   CDf =  0.00587    CDp =  0.00216

 Side 1  free  transition at x/c =  0.5790   52
 Side 2 forced transition at x/c =  1.0000   79

 113   rms: 0.4582E-02   max: -.7675E-01   C at   52  1
       a =  1.000      CL =  0.4492
      Cm = -0.0615     CD =  0.00803   =>   CDf =  0.00587    CDp =  0.00216

 Side 1  free  transition at x/c =  0.5790   52
 Side 2 forced transition at x/c =  1.0000   79

 114   rms: 0.4582E-02   max: -.7675E-01   C at   52  1
       a =  1.000      CL =  0.4492
      Cm = -0.0615     CD =  0.00803   =>   CDf =  0.00587    CDp =  0.00216

 Side 1  free  transition at x/c =  0.5790   52
 Side 2 forced transition at x/c =  1.0000   79

 115   rms: 0.4583E-02   max: -.7676E-01   C at   52  1
       a =  1.000      CL =  0.4492
      Cm = -0.0615     CD =  0.00803   =>   CDf =  0.00587    CDp =  0.00216

 Side 1  free  transition at x/c =  0.5790   52
 Side 2 forced transition at x/c =  1.0000   79

 116   rms: 0.4582E-02   max: -.7674E-01   C at   52  1
       a =  1.000      CL =  0.4492
      Cm = -0.0615     CD =  0.00803   =>   CDf =  0.00587    CDp =  0.00216

 Side 1  free  transition at x/c =  0.5790   52
 Side 2 forced transition at x/c =  1.0000   79

 117   rms: 0.4582E-02   max: -.7674E-01   C at   52  1
       a =  1.000      CL =  0.4492
      Cm = -0.0615     CD =  0.00803   =>   CDf =  0.00587    CDp =  0.00216

 Side 1  free  transition at x/c =  0.5790   52
 Side 2 forced transition at x/c =  1.0000   79

 118   rms: 0.4582E-02   max: -.7675E-01   C at   52  1
       a =  1.000      CL =  0.4492
      Cm = -0.0615     CD =  0.00803   =>   CDf =  0.00587    CDp =  0.00216

 Side 1  free  transition at x/c =  0.5790   52
 Side 2 forced transition at x/c =  1.0000   79

 119   rms: 0.4582E-02   max: -.7674E-01   C at   52  1
       a =  1.000      CL =  0.4492
      Cm = -0.0615     CD =  0.00803   =>   CDf =  0.00587    CDp =  0.00216

 Side 1  free  transition at x/c =  0.5790   52
 Side 2 forced transition at x/c =  1.0000   79

 120   rms: 0.4583E-02   max: -.7676E-01   C at   52  1
       a =  1.000      CL =  0.4492
      Cm = -0.0615     CD =  0.00803   =>   CDf =  0.00587    CDp =  0.00216

 Side 1  free  transition at x/c =  0.5790   52
 Side 2 forced transition at x/c =  1.0000   79

 121   rms: 0.4582E-02   max: -.7675E-01   C at   52  1
       a =  1.000      CL =  0.4492
      Cm = -0.0615     CD =  0.00803   =>   CDf =  0.00587    CDp =  0.00216

 Side 1  free  transition at x/c =  0.5790   52
 Side 2 forced transition at x/c =  1.0000   79

 122   rms: 0.4582E-02   max: -.7675E-01   C at   52  1
       a =  1.000      CL =  0.4492
      Cm = -0.0615     CD =  0.00803   =>   CDf =  0.00587    CDp =  0.00216

 Side 1  free  transition at x/c =  0.5790   52
 Side 2 forced transition at x/c =  1.0000   79

 123   rms: 0.4582E-02   max: -.7674E-01   C at   52  1
       a =  1.000      CL =  0.4492
[...]
 MRCHDU: Convergence failed at  31  side 1    Res =  0.5599E+00
 MRCHDU: Convergence failed at  32  side 1    Res =  0.5454E+00
 MRCHDU: Convergence failed at  33  side 1    Res =  0.5321E+00
 MRCHDU: Convergence failed at  34  side 1    Res =  0.5189E+00
 MRCHDU: Convergence failed at  35  side 1    Res =  0.5059E+00
 MRCHDU: Convergence failed at  36  side 1    Res =  0.4934E+00
 MRCHDU: Convergence failed at  37  side 1    Res =  0.4815E+00
 MRCHDU: Convergence failed at  38  side 1    Res =  0.4704E+00
 MRCHDU: Convergence failed at  39  side 1    Res =  0.4603E+00
 MRCHDU: Convergence failed at  40  side 1    Res =  0.4513E+00
 MRCHDU: Convergence failed at  41  side 1    Res =  0.4435E+00
 MRCHDU: Convergence failed at  42  side 1    Res =  0.4365E+00
 MRCHDU: Convergence failed at  43  side 1    Res =  0.4300E+00
 MRCHDU: Convergence failed at  44  side 1    Res =  0.4239E+00
 MRCHDU: Convergence failed at  45  side 1    Res =  0.4178E+00
 MRCHDU: Convergence failed at  46  side 1    Res =  0.4115E+00
 MRCHDU: Convergence failed at  47  side 1    Res =  0.4049E+00
 MRCHDU: Convergence failed at  48  side 1    Res =  0.3979E+00
 MRCHDU: Convergence failed at  49  side 1    Res =  0.3908E+00
 MRCHDU: Convergence failed at  50  side 1    Res =  0.3838E+00
 MRCHDU: Convergence failed at  51  side 1    Res =  0.3769E+00
 MRCHDU: Convergence failed at  52  side 1    Res =  0.3703E+00
 MRCHDU: Convergence failed at  53  side 1    Res =  0.3642E+00
 MRCHDU: Convergence failed at  54  side 1    Res =  0.3585E+00
 MRCHDU: Convergence failed at  55  side 1    Res =  0.3534E+00
 MRCHDU: Convergence failed at  56  side 1    Res =  0.3486E+00
 MRCHDU: Convergence failed at  57  side 1    Res =  0.3441E+00
 MRCHDU: Convergence failed at  58  side 1    Res =  0.3399E+00
 MRCHDU: Convergence failed at  59  side 1    Res =  0.3359E+00
 MRCHDU: Convergence failed at  60  side 1    Res =  0.3321E+00
 MRCHDU: Convergence failed at  61  side 1    Res =  0.3284E+00
 MRCHDU: Convergence failed at  62  side 1    Res =  0.3248E+00
 MRCHDU: Convergence failed at  63  side 1    Res =  0.3214E+00
 MRCHDU: Convergence failed at  64  side 1    Res =  0.3183E+00
 MRCHDU: Convergence failed at  65  side 1    Res =  0.3155E+00
 MRCHDU: Convergence failed at  66  side 1    Res =  0.3131E+00
 MRCHDU: Convergence failed at  67  side 1    Res =  0.3109E+00
 MRCHDU: Convergence failed at  68  side 1    Res =  0.3071E+00
 MRCHDU: Convergence failed at  69  side 1    Res =  0.3027E+00
 MRCHDU: Convergence failed at  70  side 1    Res =  0.2987E+00
 MRCHDU: Convergence failed at  71  side 1    Res =  0.2956E+00
 MRCHDU: Convergence failed at  72  side 1    Res =  0.2935E+00
 MRCHDU: Convergence failed at  73  side 1    Res =  0.2925E+00
 MRCHDU: Convergence failed at  74  side 1    Res =  0.2884E+00
 MRCHDU: Convergence failed at  75  side 1    Res =  0.9286E-01
 MRCHDU: Convergence failed at  76  side 1    Res =  0.9601E-01
 MRCHDU: Convergence failed at  77  side 1    Res =  0.6486E+00
 MRCHDU: Convergence failed at  78  side 1    Res =  0.6380E+00
 MRCHDU: Convergence failed at  79  side 1    Res =  0.6330E+00
 MRCHDU: Convergence failed at  80  side 1    Res =  0.9582E-01
 MRCHDU: Convergence failed at  81  side 1    Res =  0.9559E-01
 MRCHDU: Convergence failed at  82  side 1    Res =  0.2995E+00
 MRCHDU: Convergence failed at  83  side 1    Res =  0.2918E+00
 MRCHDU: Convergence failed at  84  side 1    Res =  0.2939E+00
 Side 1  free  transition at x/c =  0.0258   18
 Side 2 forced transition at x/c =  1.0000   73

 100   rms: 0.4806E+05   max: -.2150E+06   C at   85  1   RLX: 0.000
       a = 11.750      CL =  1.2631
      Cm = -0.2269     CD =  0.04418   =>   CDf =  0.00376    CDp =  0.04043

 MRCHDU: Convergence failed at  19  side 1    Res =  0.1595E-01
 MRCHDU: Convergence failed at  22  side 1    Res =  0.1306E-02
 MRCHDU: Convergence failed at  23  side 1    Res =  0.7343E+00
 MRCHDU: Convergence failed at  24  side 1    Res =  0.7460E+00
 MRCHDU: Convergence failed at  25  side 1    Res =  0.7591E+00
 MRCHDU: Convergence failed at  26  side 1    Res =  0.7445E+00
 MRCHDU: Convergence failed at  27  side 1    Res =  0.7018E+00
 MRCHDU: Convergence failed at  28  side 1    Res =  0.6517E+00
 MRCHDU: Convergence failed at  29  side 1    Res =  0.6110E+00
 MRCHDU: Convergence failed at  30  side 1    Res =  0.5835E+00
 MRCHDU: Convergence failed at  31  side 1    Res =  0.5646E+00
 MRCHDU: Convergence failed at  32  side 1    Res =  0.5501E+00
 MRCHDU: Convergence failed at  33  side 1    Res =  0.5368E+00
 MRCHDU: Convergence failed at  34  side 1    Res =  0.5235E+00
 MRCHDU: Convergence failed at  35  side 1    Res =  0.5105E+00
 MRCHDU: Convergence failed at  36  side 1    Res =  0.4979E+00
 MRCHDU: Convergence failed at  37  side 1    Res =  0.4860E+00
 MRCHDU: Convergence failed at  38  side 1    Res =  0.4748E+00
 MRCHDU: Convergence failed at  39  side 1    Res =  0.4647E+00
 MRCHDU: Convergence failed at  40  side 1    Res =  0.4557E+00
 MRCHDU: Convergence failed at  41  side 1    Res =  0.4478E+00
 MRCHDU: Convergence failed at  42  side 1    Res =  0.4408E+00
 MRCHDU: Convergence failed at  43  side 1    Res =  0.4343E+00
 MRCHDU: Convergence failed at  44  side 1    Res =  0.4282E+00
 MRCHDU: Convergence failed at  45  side 1    Res =  0.4220E+00
 MRCHDU: Convergence failed at  46  side 1    Res =  0.4157E+00
 MRCHDU: Convergence failed at  47  side 1    Res =  0.4091E+00
 MRCHDU: Convergence failed at  48  side 1    Res =  0.4021E+00
 MRCHDU: Convergence failed at  49  side 1    Res =  0.3950E+00
 MRCHDU: Convergence failed at  50  side 1    Res =  0.3879E+00
 MRCHDU: Convergence failed at  51  side 1    Res =  0.3810E+00
 MRCHDU: Convergence failed at  52  side 1    Res =  0.3744E+00
 MRCHDU: Convergence failed at  53  side 1    Res =  0.3682E+00
 MRCHDU: Convergence failed at  54  side 1    Res =  0.3626E+00
 MRCHDU: Convergence failed at  55  side 1    Res =  0.3574E+00
 MRCHDU: Convergence failed at  56  side 1    Res =  0.3526E+00
 MRCHDU: Convergence failed at  57  side 1    Res =  0.3481E+00
 MRCHDU: Convergence failed at  58  side 1    Res =  0.3439E+00
 MRCHDU: Convergence failed at  59  side 1    Res =  0.3399E+00
 MRCHDU: Convergence failed at  60  side 1    Res =  0.3360E+00
 MRCHDU: Convergence failed at  61  side 1    Res =  0.3323E+00
 MRCHDU: Convergence failed at  62  side 1    Res =  0.3287E+00
 MRCHDU: Convergence failed at  63  side 1    Res =  0.3254E+00
 MRCHDU: Convergence failed at  64  side 1    Res =  0.3223E+00
 MRCHDU: Convergence failed at  65  side 1    Res =  0.3194E+00
 MRCHDU: Convergence failed at  66  side 1    Res =  0.3170E+00
 MRCHDU: Convergence failed at  67  side 1    Res =  0.3148E+00
 MRCHDU: Convergence failed at  68  side 1    Res =  0.3110E+00
 MRCHDU: Convergence failed at  69  side 1    Res =  0.3065E+00
 MRCHDU: Convergence failed at  70  side 1    Res =  0.3026E+00
 MRCHDU: Convergence failed at  71  side 1    Res =  0.2994E+00
 MRCHDU: Convergence failed at  72  side 1    Res =  0.2973E+00
 MRCHDU: Convergence failed at  73  side 1    Res =  0.2963E+00
 MRCHDU: Convergence failed at  74  side 1    Res =  0.2922E+00
 MRCHDU: Convergence failed at  75  side 1    Res =  0.9574E-01
 MRCHDU: Convergence failed at  76  side 1    Res =  0.9603E-01
 MRCHDU: Convergence failed at  77  side 1    Res =  0.6496E+00
 MRCHDU: Convergence failed at  78  side 1    Res =  0.6390E+00
 MRCHDU: Convergence failed at  79  side 1    Res =  0.6341E+00
 MRCHDU: Convergence failed at  80  side 1    Res =  0.9584E-01
 MRCHDU: Convergence failed at  81  side 1    Res =  0.9561E-01
 MRCHDU: Convergence failed at  82  side 1    Res =  0.2997E+00
 MRCHDU: Convergence failed at  83  side 1    Res =  0.2920E+00
 MRCHDU: Convergence failed at  84  side 1    Res =  0.2941E+00
 Side 1  free  transition at x/c =  0.0258   18
 Side 2 forced transition at x/c =  1.0000   73

 101   rms: 0.2901E+06   max: -.1305E+07   C at   85  1   RLX: 0.000
       a = 11.750      CL =  1.2631
      Cm = -0.2269     CD =  0.04420   =>   CDf =  0.00376    CDp =  0.04044

 MRCHDU: Convergence failed at  19  side 1    Res =  0.1597E-01
 MRCHDU: Convergence failed at  22  side 1    Res =  0.5378E-02
 MRCHDU: Convergence failed at  23  side 1    Res =  0.7368E+00
 MRCHDU: Convergence failed at  24  side 1    Res =  0.7485E+00
 MRCHDU: Convergence failed at  25  side 1    Res =  0.7616E+00
 MRCHDU: Convergence failed at  26  side 1    Res =  0.7470E+00
 MRCHDU: Convergence failed at  27  side 1    Res =  0.7041E+00
 MRCHDU: Convergence failed at  28  side 1    Res =  0.6538E+00
 MRCHDU: Convergence failed at  29  side 1    Res =  0.6130E+00
 MRCHDU: Convergence failed at  30  side 1    Res =  0.5854E+00
 MRCHDU: Convergence failed at  31  side 1    Res =  0.5665E+00
 MRCHDU: Convergence failed at  32  side 1    Res =  0.5519E+00
 MRCHDU: Convergence failed at  33  side 1    Res =  0.5386E+00
 MRCHDU: Convergence failed at  34  side 1    Res =  0.5253E+00
 MRCHDU: Convergence failed at  35  side 1    Res =  0.5122E+00
 MRCHDU: Convergence failed at  36  side 1    Res =  0.4996E+00
 MRCHDU: Convergence failed at  37  side 1    Res =  0.4876E+00
 MRCHDU: Convergence failed at  38  side 1    Res =  0.4764E+00
 MRCHDU: Convergence failed at  39  side 1    Res =  0.4662E+00
 MRCHDU: Convergence failed at  40  side 1    Res =  0.4572E+00
 MRCHDU: Convergence failed at  41  side 1    Res =  0.4493E+00
 MRCHDU: Convergence failed at  42  side 1    Res =  0.4422E+00
 MRCHDU: Convergence failed at  43  side 1    Res =  0.4358E+00
 MRCHDU: Convergence failed at  44  side 1    Res =  0.4296E+00
 MRCHDU: Convergence failed at  45  side 1    Res =  0.4234E+00
 MRCHDU: Convergence failed at  46  side 1    Res =  0.4171E+00
 MRCHDU: Convergence failed at  47  side 1    Res =  0.4104E+00
 MRCHDU: Convergence failed at  48  side 1    Res =  0.4034E+00
 MRCHDU: Convergence failed at  49  side 1    Res =  0.3963E+00
 MRCHDU: Convergence failed at  50  side 1    Res =  0.3892E+00
 MRCHDU: Convergence failed at  51  side 1    Res =  0.3822E+00
 MRCHDU: Convergence failed at  52  side 1    Res =  0.3756E+00
 MRCHDU: Convergence failed at  53  side 1    Res =  0.3695E+00
 MRCHDU: Convergence failed at  54  side 1    Res =  0.3638E+00
 MRCHDU: Convergence failed at  55  side 1    Res =  0.3586E+00
 MRCHDU: Convergence failed at  56  side 1    Res =  0.3538E+00
 MRCHDU: Convergence failed at  57  side 1    Res =  0.3493E+00
 MRCHDU: Convergence failed at  58  side 1    Res =  0.3450E+00
 MRCHDU: Convergence failed at  59  side 1    Res =  0.3410E+00
 MRCHDU: Convergence failed at  60  side 1    Res =  0.3371E+00
 MRCHDU: Convergence failed at  61  side 1    Res =  0.3334E+00
 MRCHDU: Convergence failed at  62  side 1    Res =  0.3298E+00
 MRCHDU: Convergence failed at  63  side 1    Res =  0.3264E+00
 MRCHDU: Convergence failed at  64  side 1    Res =  0.3233E+00
 MRCHDU: Convergence failed at  65  side 1    Res =  0.3205E+00
 MRCHDU: Convergence failed at  66  side 1    Res =  0.3180E+00
 MRCHDU: Convergence failed at  67  side 1    Res =  0.3158E+00
 MRCHDU: Convergence failed at  68  side 1    Res =  0.3120E+00
 MRCHDU: Convergence failed at  69  side 1    Res =  0.3075E+00
 MRCHDU: Convergence failed at  70  side 1    Res =  0.3036E+00
 MRCHDU: Convergence failed at  71  side 1    Res =  0.3004E+00
 MRCHDU: Convergence failed at  72  side 1    Res =  0.2983E+00
 MRCHDU: Convergence failed at  73  side 1    Res =  0.2973E+00
 MRCHDU: Convergence failed at  74  side 1    Res =  0.2932E+00
 MRCHDU: Convergence failed at  75  side 1    Res =  0.9577E-01
 MRCHDU: Convergence failed at  76  side 1    Res =  0.9606E-01
 MRCHDU: Convergence failed at  77  side 1    Res =  0.6507E+00
 MRCHDU: Convergence failed at  78  side 1    Res =  0.6401E+00
 MRCHDU: Convergence failed at  79  side 1    Res =  0.6352E+00
 MRCHDU: Convergence failed at  80  side 1    Res =  0.9586E-01
 MRCHDU: Convergence failed at  81  side 1    Res =  0.9563E-01
 MRCHDU: Convergence failed at  82  side 1    Res =  0.2999E+00
 MRCHDU: Convergence failed at  83  side 1    Res =  0.2922E+00
 MRCHDU: Convergence failed at  84  side 1    Res =  0.2943E+00
 Side 1  free  transition at x/c =  0.0258   18
 Side 2 forced transition at x/c =  1.0000   73

 102   rms: 0.8265E+05   max: 0.3733E+06   C at   85  1   RLX: 0.000
       a = 11.750      CL =  1.2632
      Cm = -0.2270     CD =  0.04421   =>   CDf =  0.00376    CDp =  0.04045

 MRCHDU: Convergence failed at  19  side 1    Res =  0.1592E-01
 MRCHDU: Convergence failed at  23  side 1    Res =  0.7235E+00
 MRCHDU: Convergence failed at  24  side 1    Res =  0.7355E+00
 MRCHDU: Convergence failed at  25  side 1    Res =  0.7488E+00
 MRCHDU: Convergence failed at  26  side 1    Res =  0.7345E+00
 MRCHDU: Convergence failed at  27  side 1    Res =  0.6922E+00
 MRCHDU: Convergence failed at  28  side 1    Res =  0.6424E+00
 MRCHDU: Convergence failed at  29  side 1    Res =  0.6020E+00
 MRCHDU: Convergence failed at  30  side 1    Res =  0.5748E+00
 MRCHDU: Convergence failed at  31  side 1    Res =  0.5561E+00
 MRCHDU: Convergence failed at  32  side 1    Res =  0.5417E+00
 MRCHDU: Convergence failed at  33  side 1    Res =  0.5285E+00
 MRCHDU: Convergence failed at  34  side 1    Res =  0.5154E+00
 MRCHDU: Convergence failed at  35  side 1    Res =  0.5024E+00
 MRCHDU: Convergence failed at  36  side 1    Res =  0.4899E+00
 MRCHDU: Convergence failed at  37  side 1    Res =  0.4781E+00
 MRCHDU: Convergence failed at  38  side 1    Res =  0.4670E+00
 MRCHDU: Convergence failed at  39  side 1    Res =  0.4569E+00
 MRCHDU: Convergence failed at  40  side 1    Res =  0.4480E+00
 MRCHDU: Convergence failed at  41  side 1    Res =  0.4402E+00
 MRCHDU: Convergence failed at  42  side 1    Res =  0.4332E+00
 MRCHDU: Convergence failed at  43  side 1    Res =  0.4268E+00
 MRCHDU: Convergence failed at  44  side 1    Res =  0.4207E+00
 MRCHDU: Convergence failed at  45  side 1    Res =  0.4146E+00
 MRCHDU: Convergence failed at  46  side 1    Res =  0.4083E+00
 MRCHDU: Convergence failed at  47  side 1    Res =  0.4017E+00
 MRCHDU: Convergence failed at  48  side 1    Res =  0.3947E+00
 MRCHDU: Convergence failed at  49  side 1    Res =  0.3877E+00
 MRCHDU: Convergence failed at  50  side 1    Res =  0.3806E+00
 MRCHDU: Convergence failed at  51  side 1    Res =  0.3737E+00
 MRCHDU: Convergence failed at  52  side 1    Res =  0.3672E+00
 MRCHDU: Convergence failed at  53  side 1    Res =  0.3611E+00
 MRCHDU: Convergence failed at  54  side 1    Res =  0.3554E+00
 MRCHDU: Convergence failed at  55  side 1    Res =  0.3503E+00
 MRCHDU: Convergence failed at  56  side 1    Res =  0.3455E+00
 MRCHDU: Convergence failed at  57  side 1    Res =  0.3410E+00
 MRCHDU: Convergence failed at  58  side 1    Res =  0.3368E+00
 MRCHDU: Convergence failed at  59  side 1    Res =  0.3328E+00
 MRCHDU: Convergence failed at  60  side 1    Res =  0.3290E+00
 MRCHDU: Convergence failed at  61  side 1    Res =  0.3253E+00
 MRCHDU: Convergence failed at  62  side 1    Res =  0.3217E+00
 MRCHDU: Convergence failed at  63  side 1    Res =  0.3184E+00
 MRCHDU: Convergence failed at  64  side 1    Res =  0.3153E+00
 MRCHDU: Convergence failed at  65  side 1    Res =  0.3125E+00
 MRCHDU: Convergence failed at  66  side 1    Res =  0.3100E+00
 MRCHDU: Convergence failed at  67  side 1    Res =  0.3078E+00
 MRCHDU: Convergence failed at  68  side 1    Res =  0.3040E+00
 MRCHDU: Convergence failed at  69  side 1    Res =  0.2996E+00
 MRCHDU: Convergence failed at  70  side 1    Res =  0.2957E+00
 MRCHDU: Convergence failed at  71  side 1    Res =  0.2925E+00
 MRCHDU: Convergence failed at  72  side 1    Res =  0.2904E+00
 MRCHDU: Convergence failed at  73  side 1    Res =  0.2895E+00
 MRCHDU: Convergence failed at  74  side 1    Res =  0.2854E+00
 MRCHDU: Convergence failed at  75  side 1    Res =  0.8918E-01
 MRCHDU: Convergence failed at  76  side 1    Res =  0.9599E-01
 MRCHDU: Convergence failed at  77  side 1    Res =  0.6474E+00
 MRCHDU: Convergence failed at  78  side 1    Res =  0.6369E+00
 MRCHDU: Convergence failed at  79  side 1    Res =  0.6320E+00
 MRCHDU: Convergence failed at  80  side 1    Res =  0.9580E-01
 MRCHDU: Convergence failed at  81  side 1    Res =  0.9557E-01
 MRCHDU: Convergence failed at  82  side 1    Res =  0.2993E+00
 MRCHDU: Convergence failed at  83  side 1    Res =  0.2916E+00
 MRCHDU: Convergence failed at  84  side 1    Res =  0.2937E+00
 Side 1  free  transition at x/c =  0.0258   18
 Side 2 forced transition at x/c =  1.0000   73

 103   rms: 0.2707E+05   max: -.1206E+06   C at   85  1   RLX: 0.000
       a = 11.750      CL =  1.2631
      Cm = -0.2269     CD =  0.04418   =>   CDf =  0.00376    CDp =  0.04042

 MRCHDU: Convergence failed at  19  side 1    Res =  0.1594E-01
 MRCHDU: Convergence failed at  23  side 1    Res =  0.7298E+00
 MRCHDU: Convergence failed at  24  side 1    Res =  0.7416E+00
 MRCHDU: Convergence failed at  25  side 1    Res =  0.7545E+00
 MRCHDU: Convergence failed at  26  side 1    Res =  0.7400E+00
 MRCHDU: Convergence failed at  27  side 1    Res =  0.6974E+00
 MRCHDU: Convergence failed at  28  side 1    Res =  0.6475E+00
 MRCHDU: Convergence failed at  29  side 1    Res =  0.6069E+00
 MRCHDU: Convergence failed at  30  side 1    Res =  0.5795E+00
 MRCHDU: Convergence failed at  31  side 1    Res =  0.5607E+00
 MRCHDU: Convergence failed at  32  side 1    Res =  0.5462E+00
 MRCHDU: Convergence failed at  33  side 1    Res =  0.5329E+00
 MRCHDU: Convergence failed at  34  side 1    Res =  0.5197E+00
 MRCHDU: Convergence failed at  35  side 1    Res =  0.5067E+00
 MRCHDU: Convergence failed at  36  side 1    Res =  0.4942E+00
 MRCHDU: Convergence failed at  37  side 1    Res =  0.4823E+00
 MRCHDU: Convergence failed at  38  side 1    Res =  0.4711E+00
 MRCHDU: Convergence failed at  39  side 1    Res =  0.4610E+00
 MRCHDU: Convergence failed at  40  side 1    Res =  0.4521E+00
 MRCHDU: Convergence failed at  41  side 1    Res =  0.4442E+00
 MRCHDU: Convergence failed at  42  side 1    Res =  0.4372E+00
 MRCHDU: Convergence failed at  43  side 1    Res =  0.4308E+00
 MRCHDU: Convergence failed at  44  side 1    Res =  0.4246E+00
 MRCHDU: Convergence failed at  45  side 1    Res =  0.4185E+00
 MRCHDU: Convergence failed at  46  side 1    Res =  0.4122E+00
 MRCHDU: Convergence failed at  47  side 1    Res =  0.4056E+00
 MRCHDU: Convergence failed at  48  side 1    Res =  0.3986E+00
 MRCHDU: Convergence failed at  49  side 1    Res =  0.3915E+00
 MRCHDU: Convergence failed at  50  side 1    Res =  0.3845E+00
 MRCHDU: Convergence failed at  51  side 1    Res =  0.3776E+00
 MRCHDU: Convergence failed at  52  side 1    Res =  0.3710E+00
 MRCHDU: Convergence failed at  53  side 1    Res =  0.3649E+00
 MRCHDU: Convergence failed at  54  side 1    Res =  0.3593E+00
 MRCHDU: Convergence failed at  55  side 1    Res =  0.3541E+00
 MRCHDU: Convergence failed at  56  side 1    Res =  0.3493E+00
 MRCHDU: Convergence failed at  57  side 1    Res =  0.3448E+00
 MRCHDU: Convergence failed at  58  side 1    Res =  0.3406E+00
 MRCHDU: Convergence failed at  59  side 1    Res =  0.3366E+00
 MRCHDU: Convergence failed at  60  side 1    Res =  0.3328E+00
 MRCHDU: Convergence failed at  61  side 1    Res =  0.3291E+00
 MRCHDU: Convergence failed at  62  side 1    Res =  0.3255E+00
 MRCHDU: Convergence failed at  63  side 1    Res =  0.3221E+00
 MRCHDU: Convergence failed at  64  side 1    Res =  0.3190E+00
 MRCHDU: Convergence failed at  65  side 1    Res =  0.3162E+00
 MRCHDU: Convergence failed at  66  side 1    Res =  0.3138E+00
 MRCHDU: Convergence failed at  67  side 1    Res =  0.3116E+00
 MRCHDU: Convergence failed at  68  side 1    Res =  0.3078E+00
 MRCHDU: Convergence failed at  69  side 1    Res =  0.3034E+00
 MRCHDU: Convergence failed at  70  side 1    Res =  0.2994E+00

[TIMEOUT]
