
 ===================================================
  XFOIL Version 6.99
  Copyright (C) 2000   Mark Drela, Harold Youngren

  This software comes with ABSOLUTELY NO WARRANTY,
    subject to the GNU General Public License.

  Caveat computor
 ===================================================

 File  xfoil.def  not found

   QUIT    Exit program

  .OPER    Direct operating point(s)
  .MDES    Complex mapping design routine
  .QDES    Surface speed design routine
  .GDES    Geometry design routine

   SAVE f  Write airfoil to labeled coordinate file
   PSAV f  Write airfoil to plain coordinate file
   ISAV f  Write airfoil to ISES coordinate file
   MSAV f  Write airfoil to MSES coordinate file
   REVE    Reverse written-airfoil node ordering

   LOAD f  Read buffer airfoil from coordinate file
   NACA i  Set NACA 4,5-digit airfoil and buffer airfoil
   INTE    Set buffer airfoil by interpolating two airfoils
   NORM    Buffer airfoil normalization toggle
   XYCM rr Change CM reference location, currently  0.25000 0.00000

   BEND    Display structural properties of current airfoil

   PCOP    Set current-airfoil panel nodes directly from buffer airfoil points
   PANE    Set current-airfoil panel nodes ( 160 ) based on curvature
  .PPAR    Show/change paneling

  .PLOP    Plotting options

   WDEF f  Write  current-settings file
   RDEF f  Reread current-settings file
   NAME s  Specify new airfoil name
   NINC    Increment name version number

   Z       Zoom    | (available in all menus)
   U       Unzoom  | 

 XFOIL   c>  
 Labeled airfoil file.  Name:   BOEING-VERTOL V23010-1.58 AIRFOIL              

 Number of input coordinate points:  51
 Counterclockwise ordering
 Max thickness =     0.101798  at x =   0.300
 Max camber    =     0.016759  at x =   0.150

  LE  x,y  =  -0.00003   0.00093  |   Chord =   1.00003
  TE  x,y  =   1.00000   0.00000  |

 Current airfoil nodes set from buffer airfoil nodes (  51 )

 WARNING: Poor input coordinate distribution
          Excessive panel angle   61.0  at i =  26
          Repaneling with PANE and/or PPAR suggested
           (doing GDES,CADD before repaneling _may_
            improve excessively coarse LE spacing

 XFOIL   c>  
 XFOIL   c>  
 Sharp trailing edge

 Paneling parameters used...
   Number of panel nodes       160
   Panel bunching parameter    1.000
   TE/LE panel density ratio   0.150
   Refined-area/LE panel density ratio    0.200
   Top    side refined area x/c limits  1.000 1.000
   Bottom side refined area x/c limits  1.000 1.000

 XFOIL   c>  
.OPERi   c>  
 Xtr/c     =  1.0000    top    side
 Xtr/c     =  1.0000    bottom side
 Ncrit     =    9.00   ( 0.070 % turb. level )
 Vacc      =  0.0100

 Klag  =  5.6000     Uxwt  =    1.00
 A     =  6.7000     B     =  0.7500       KCt = 0.01485
 CtiniK=  1.8000     CtiniX=  3.3000

..VPAR   c>  
..VPAR   c>  
.OPERi   c>  
 M  =    0.0000
 Re =    500000

.OPERv   c>  
.OPERv   c>  
.OPERv   c>  
 Polar  1 newly created for accumulation
 Airfoil archived with polar: BOEING-VERTOL V23010-1.58 AIRFOIL               

Enter  polar save filename  OR  <return> for no file   s>  
 New polar save file available

Enter  polar dump filename  OR  <return> for no file   s>  
 Polar dump file will NOT be written

 Polar accumulation enabled

.OPERva   c>   Calculating unit vorticity distributions ...
 Calculating wake trajectory ...
 Calculating source influence matrix ...

 Solving BL system ...

 Initializing BL ...
    side            1  ...
 MRCHUE: Inverse mode at  53     Hk =   3.800
 MRCHUE: Inverse mode at  54     Hk =   4.395
 MRCHUE: Inverse mode at  55     Hk =   4.978
 MRCHUE: Inverse mode at  56     Hk =   5.546
 MRCHUE: Inverse mode at  57     Hk =   6.100
 MRCHUE: Inverse mode at  58     Hk =   6.641
 MRCHUE: Inverse mode at  59     Hk =   7.171
 MRCHUE: Inverse mode at  60     Hk =   7.692
 MRCHUE: Inverse mode at  61     Hk =   6.968
 MRCHUE: Inverse mode at  62     Hk =   4.800
 MRCHUE: Inverse mode at  63     Hk =   3.347
    side            2  ...
 MRCHUE: Inverse mode at  20     Hk =   3.800
 MRCHUE: Convergence failed at  21  side 2    Res =  0.1508E+01
 MRCHUE: Convergence failed at  22  side 2    Res =  0.1284E+01
 MRCHUE: Inverse mode at  23     Hk =   5.041
 MRCHUE: Inverse mode at  24     Hk =   6.221
 MRCHUE: Inverse mode at  25     Hk =   7.405
 MRCHUE: Inverse mode at  26     Hk =   8.648
 MRCHUE: Inverse mode at  27     Hk =   4.907
 MRCHUE: Inverse mode at  28     Hk =   2.500
 MRCHUE: Inverse mode at  88     Hk =   2.500

 MRCHDU: Convergence failed at  22  side 2    Res =  0.1980E+01
 MRCHDU: Convergence failed at  23  side 2    Res =  0.1081E+02
 MRCHDU: Convergence failed at  24  side 2    Res =  0.2567E+01
 MRCHDU: Convergence failed at  25  side 2    Res =  0.5760E+01
 MRCHDU: Convergence failed at  26  side 2    Res =  0.1024E+02
 MRCHDU: Convergence failed at  27  side 2    Res =  0.7728E+01
 MRCHDU: Convergence failed at  28  side 2    Res =  0.3384E+02
 MRCHDU: Convergence failed at  29  side 2    Res =  0.1907E+01
 MRCHDU: Convergence failed at  30  side 2    Res =  0.5413E+01
 MRCHDU: Convergence failed at  31  side 2    Res =  0.1937E+01
 MRCHDU: Convergence failed at  32  side 2    Res =  0.1678E+01
 MRCHDU: Convergence failed at  33  side 2    Res =  0.2545E+01
 MRCHDU: Convergence failed at  34  side 2    Res =  0.2726E+01
 MRCHDU: Convergence failed at  35  side 2    Res =  0.2749E+01
 MRCHDU: Convergence failed at  36  side 2    Res =  0.2694E+01
 MRCHDU: Convergence failed at  37  side 2    Res =  0.2536E+01
 MRCHDU: Convergence failed at  38  side 2    Res =  0.3304E+01
 MRCHDU: Convergence failed at  39  side 2    Res =  0.7216E+02
 MRCHDU: Convergence failed at  40  side 2    Res =  0.5950E+02
 MRCHDU: Convergence failed at  41  side 2    Res =  0.9595E+01
 MRCHDU: Convergence failed at  42  side 2    Res =  0.1037E+02
 MRCHDU: Convergence failed at  43  side 2    Res =  0.1143E+02
 MRCHDU: Convergence failed at  44  side 2    Res =  0.2666E+02
 MRCHDU: Convergence failed at  45  side 2    Res =  0.3481E+02
 MRCHDU: Convergence failed at  46  side 2    Res =  0.1941E+02
 MRCHDU: Convergence failed at  47  side 2    Res =  0.1023E+02
 MRCHDU: Convergence failed at  48  side 2    Res =  0.1073E+02
 MRCHDU: Convergence failed at  49  side 2    Res =  0.1107E+02
 MRCHDU: Convergence failed at  50  side 2    Res =  0.1147E+02
 MRCHDU: Convergence failed at  51  side 2    Res =  0.1218E+02
 MRCHDU: Convergence failed at  52  side 2    Res =  0.1312E+02
 MRCHDU: Convergence failed at  53  side 2    Res =  0.2923E+02
 MRCHDU: Convergence failed at  54  side 2    Res =  0.3438E+02
 MRCHDU: Convergence failed at  55  side 2    Res =  0.3643E+02
 MRCHDU: Convergence failed at  56  side 2    Res =  0.1149E+02
 MRCHDU: Convergence failed at  57  side 2    Res =  0.1211E+02
 MRCHDU: Convergence failed at  58  side 2    Res =  0.1331E+02
 MRCHDU: Convergence failed at  59  side 2    Res =  0.1413E+02
 MRCHDU: Convergence failed at  60  side 2    Res =  0.3119E+02
 MRCHDU: Convergence failed at  61  side 2    Res =  0.3324E+02
 MRCHDU: Convergence failed at  62  side 2    Res =  0.3658E+02
 MRCHDU: Convergence failed at  63  side 2    Res =  0.4655E+02
 MRCHDU: Convergence failed at  64  side 2    Res =  0.7109E+02
 MRCHDU: Convergence failed at  65  side 2    Res =  0.5018E+02
 MRCHDU: Convergence failed at  66  side 2    Res =  0.5926E+02
 MRCHDU: Convergence failed at  67  side 2    Res =  0.6034E+02
 MRCHDU: Convergence failed at  68  side 2    Res =  0.6231E+02
 MRCHDU: Convergence failed at  69  side 2    Res =  0.7332E+02
 MRCHDU: Convergence failed at  70  side 2    Res =  0.1065E+03
 MRCHDU: Convergence failed at  71  side 2    Res =  0.1957E+03
 MRCHDU: Convergence failed at  72  side 2    Res =  0.4817E+03
 MRCHDU: Convergence failed at  73  side 2    Res =  0.2223E+02
 MRCHDU: Convergence failed at  74  side 2    Res =  0.2333E+02
 MRCHDU: Convergence failed at  75  side 2    Res =  0.2490E+02
 MRCHDU: Convergence failed at  76  side 2    Res =  0.2701E+02
 MRCHDU: Convergence failed at  77  side 2    Res =  0.2959E+02
 MRCHDU: Convergence failed at  78  side 2    Res =  0.3216E+02
 MRCHDU: Convergence failed at  79  side 2    Res =  0.3470E+02
 MRCHDU: Convergence failed at  80  side 2    Res =  0.3799E+02
 MRCHDU: Convergence failed at  81  side 2    Res =  0.4246E+02
 MRCHDU: Convergence failed at  82  side 2    Res =  0.4980E+02
 MRCHDU: Convergence failed at  83  side 2    Res =  0.2394E+02
 MRCHDU: Convergence failed at  84  side 2    Res =  0.3357E+02
 MRCHDU: Convergence failed at  85  side 2    Res =  0.6085E+02
 MRCHDU: Convergence failed at  86  side 2    Res =  0.1405E+04
 MRCHDU: Convergence failed at  87  side 2    Res =  0.1195E+03
 MRCHDU: Convergence failed at  88  side 2    Res =  0.2188E+02
 Side 1  free  transition at x/c =  0.8105   61
 Side 2  free  transition at x/c =  0.0516   28

   1   rms: 0.1262E+01   max: -.1211E+01   U at   88  2   RLX: 0.100
       a = -4.000      CL = -2.9961
      Cm =  0.7407     CD =  0.00368   =>   CDf =  0.00291    CDp =  0.00077

 Side 1  free  transition at x/c =  0.8149   61
 Side 2  free  transition at x/c =  0.6129   64

   2   rms: 0.1268E+01   max: -.1104E+01   U at   88  2   RLX: 0.091
       a = -4.000      CL = -2.6712
      Cm =  0.6453     CD =  0.00485   =>   CDf =  0.01179    CDp = -0.00694

 Side 1  free  transition at x/c =  0.8198   63
 Side 2  free  transition at x/c =  0.3355   46

   3   rms: 0.4662E+01   max: 0.1065E+03   C at   46  2   RLX: 0.014
       a = -4.000      CL = -2.6255
      Cm =  0.6320     CD =  0.00493   =>   CDf =  0.01374    CDp = -0.00881

 Side 1  free  transition at x/c =  0.8204   63
 Side 2  free  transition at x/c =  0.2805   43

   4   rms: 0.4075E+01   max: 0.9226E+02   C at   43  2   RLX: 0.016
       a = -4.000      CL = -2.5774
      Cm =  0.6186     CD =  0.00503   =>   CDf =  0.01415    CDp = -0.00912

 Side 1  free  transition at x/c =  0.8211   63
 Side 2  free  transition at x/c =  0.1445   34

   5   rms: 0.1184E+02   max: 0.2944E+03   C at   34  2   RLX: 0.005
       a = -4.000      CL = -2.5611
      Cm =  0.6146     CD =  0.00523   =>   CDf =  0.01532    CDp = -0.01008

 Side 1  free  transition at x/c =  0.8213   63
 Side 2  free  transition at x/c =  0.1185   33

   6   rms: 0.4966E+01   max: 0.1108E+03   C at   33  2   RLX: 0.014
       a = -4.000      CL = -2.5228
      Cm =  0.6039     CD =  0.00531   =>   CDf =  0.01550    CDp = -0.01018

 Side 1  free  transition at x/c =  0.8219   63
 Side 2  free  transition at x/c =  0.0950   31

   7   rms: 0.1927E+02   max: 0.4921E+03   C at   31  2   RLX: 0.003
       a = -4.000      CL = -2.5143
      Cm =  0.6015     CD =  0.00532   =>   CDf =  0.01555    CDp = -0.01023

 Side 1  free  transition at x/c =  0.8220   63
 Side 2  free  transition at x/c =  0.0845   30

   8   rms: 0.6664E+01   max: 0.1666E+03   C at   30  2   RLX: 0.009
       a = -4.000      CL = -2.4900
      Cm =  0.5945     CD =  0.00534   =>   CDf =  0.01561    CDp = -0.01028

 Side 1  free  transition at x/c =  0.8224   63
 Side 2  free  transition at x/c =  0.0738   30

   9   rms: 0.2101E+01   max: 0.3591E+02   C at   30  2   RLX: 0.032
       a = -4.000      CL = -2.4051
      Cm =  0.5701     CD =  0.00541   =>   CDf =  0.01564    CDp = -0.01023

 Side 1  free  transition at x/c =  0.8239   63
 Side 2  free  transition at x/c =  0.0433   26

  10   rms: 0.1448E+01   max: 0.2684E+02   C at   26  2   RLX: 0.056
       a = -4.000      CL = -2.2625
      Cm =  0.5289     CD =  0.00548   =>   CDf =  0.01552    CDp = -0.01004

 Side 1  free  transition at x/c =  0.8266   63
 Side 2  free  transition at x/c =  0.0365   25

  11   rms: 0.8806E+00   max: -.8560E+00   U at   87  2   RLX: 0.259
       a = -4.000      CL = -1.6755
      Cm =  0.3608     CD =  0.00580   =>   CDf =  0.01498    CDp = -0.00918

 Side 1  free  transition at x/c =  0.8430   64
 Side 2  free  transition at x/c =  0.0323   25

  12   rms: 0.7425E+00   max: -.6247E+00   U at   87  2   RLX: 0.367
       a = -4.000      CL = -1.1172
      Cm =  0.2040     CD =  0.00680   =>   CDf =  0.01240    CDp = -0.00560

 Side 1  free  transition at x/c =  0.8729   66
 Side 2  free  transition at x/c =  0.0317   24

  13   rms: 0.5634E+00   max: -.3450E+01   C at   66  1   RLX: 0.145
       a = -4.000      CL = -0.9879
      Cm =  0.1677     CD =  0.00787   =>   CDf =  0.00982    CDp = -0.00195

 Side 1  free  transition at x/c =  0.8777   66
 Side 2  free  transition at x/c =  0.0319   24

  14   rms: 0.5087E+00   max: 0.1526E+01   D at   28  2   RLX: 0.604
       a = -4.000      CL = -0.5379
      Cm =  0.0469     CD =  0.01103   =>   CDf =  0.00937    CDp =  0.00166

 MRCHDU: Convergence failed at  75  side 1    Res =  0.6953E+01
 Side 1 forced transition at x/c =  1.0000   75
 Side 2  free  transition at x/c =  0.0344   25

  15   rms: 0.5561E+00   max: 0.3030E+01   D at   27  2   RLX: 0.495
       a = -4.000      CL = -0.4483
      Cm =  0.0186     CD =  0.01286   =>   CDf =  0.00732    CDp =  0.00554

 Side 1  free  transition at x/c =  0.9528   71
 Side 2  free  transition at x/c =  0.0414   26

  16   rms: 0.7629E+01   max: 0.6643E+02   T at   26  2   RLX: 0.011
       a = -4.000      CL = -0.4542
      Cm =  0.0198     CD =  0.01135   =>   CDf =  0.00662    CDp =  0.00473

 MRCHDU: Convergence failed at  26  side 2    Res =  0.1420E+02
 MRCHDU: Convergence failed at  27  side 2    Res =  0.8877E+02
 MRCHDU: Convergence failed at  28  side 2    Res =  0.7547E+02
 MRCHDU: Convergence failed at  29  side 2    Res =  0.6567E+02
 MRCHDU: Convergence failed at  30  side 2    Res =  0.1742E+03
 MRCHDU: Convergence failed at  31  side 2    Res =  0.5770E+03
 MRCHDU: Convergence failed at  32  side 2    Res =  0.2980E+03
 MRCHDU: Convergence failed at  33  side 2    Res =  0.2855E+03
 MRCHDU: Convergence failed at  34  side 2    Res =  0.9587E+02
 MRCHDU: Convergence failed at  35  side 2    Res =  0.1073E+03
 MRCHDU: Convergence failed at  36  side 2    Res =  0.1025E+03
 MRCHDU: Convergence failed at  37  side 2    Res =  0.6632E+02
 MRCHDU: Convergence failed at  38  side 2    Res =  0.6657E+02
 MRCHDU: Convergence failed at  39  side 2    Res =  0.2317E+03
 MRCHDU: Convergence failed at  40  side 2    Res =  0.2253E+03
 MRCHDU: Convergence failed at  41  side 2    Res =  0.2383E+04
 MRCHDU: Convergence failed at  42  side 2    Res =  0.3758E+03
 MRCHDU: Convergence failed at  43  side 2    Res =  0.7678E+02
 MRCHDU: Convergence failed at  44  side 2    Res =  0.2596E+03
 MRCHDU: Convergence failed at  45  side 2    Res =  0.4318E+03
 MRCHDU: Convergence failed at  46  side 2    Res =  0.8078E+02
 MRCHDU: Convergence failed at  47  side 2    Res =  0.1185E+05
 MRCHDU: Convergence failed at  48  side 2    Res =  0.3057E+03
 MRCHDU: Convergence failed at  49  side 2    Res =  0.9864E+02
 MRCHDU: Convergence failed at  50  side 2    Res =  0.1352E+03
 MRCHDU: Convergence failed at  51  side 2    Res =  0.1946E+03
 MRCHDU: Convergence failed at  52  side 2    Res =  0.1701E+03
 MRCHDU: Convergence failed at  53  side 2    Res =  0.8488E+02
 MRCHDU: Convergence failed at  54  side 2    Res =  0.8850E+02
 MRCHDU: Convergence failed at  55  side 2    Res =  0.8222E+02
 MRCHDU: Convergence failed at  56  side 2    Res =  0.8472E+02
 MRCHDU: Convergence failed at  57  side 2    Res =  0.8742E+02
 MRCHDU: Convergence failed at  58  side 2    Res =  0.9018E+02
 MRCHDU: Convergence failed at  59  side 2    Res =  0.9306E+02
 MRCHDU: Convergence failed at  60  side 2    Res =  0.9630E+02
 MRCHDU: Convergence failed at  61  side 2    Res =  0.1003E+03
 MRCHDU: Convergence failed at  62  side 2    Res =  0.5261E+02
 MRCHDU: Convergence failed at  63  side 2    Res =  0.9352E+02
 MRCHDU: Convergence failed at  64  side 2    Res =  0.9536E+02
 MRCHDU: Convergence failed at  65  side 2    Res =  0.5718E+02
 MRCHDU: Convergence failed at  66  side 2    Res =  0.5841E+02
 MRCHDU: Convergence failed at  67  side 2    Res =  0.5980E+02
 MRCHDU: Convergence failed at  68  side 2    Res =  0.7579E+02
 MRCHDU: Convergence failed at  69  side 2    Res =  0.7850E+02
 MRCHDU: Convergence failed at  70  side 2    Res =  0.8169E+02
 MRCHDU: Convergence failed at  71  side 2    Res =  0.6654E+02
 MRCHDU: Convergence failed at  72  side 2    Res =  0.8748E+02
 MRCHDU: Convergence failed at  73  side 2    Res =  0.8032E+02
 MRCHDU: Convergence failed at  74  side 2    Res =  0.8528E+02
 MRCHDU: Convergence failed at  75  side 2    Res =  0.6830E+02
 MRCHDU: Convergence failed at  76  side 2    Res =  0.7217E+02
 MRCHDU: Convergence failed at  77  side 2    Res =  0.7659E+02
 MRCHDU: Convergence failed at  78  side 2    Res =  0.6857E+02
 MRCHDU: Convergence failed at  79  side 2    Res =  0.7246E+02
 MRCHDU: Convergence failed at  80  side 2    Res =  0.9502E+02
 MRCHDU: Convergence failed at  81  side 2    Res =  0.8445E+02
 MRCHDU: Convergence failed at  82  side 2    Res =  0.6676E+02
 MRCHDU: Convergence failed at  83  side 2    Res =  0.6892E+02
 MRCHDU: Convergence failed at  84  side 2    Res =  0.8722E+02
 MRCHDU: Convergence failed at  85  side 2    Res =  0.2823E+03
 MRCHDU: Convergence failed at  86  side 2    Res =  0.3069E+03
 MRCHDU: Convergence failed at  87  side 2    Res =  0.2080E+03
 Side 1  free  transition at x/c =  0.9541   71
 Side 2  free  transition at x/c =  0.0375   25

  17   rms: 0.1601E+01   max: 0.1265E+02   T at   25  2   RLX: 0.048
       a = -4.000      CL = -2.1433
      Cm =  0.5380     CD =  0.00418   =>   CDf =  0.00150    CDp =  0.00267

 Side 1  free  transition at x/c =  0.9675   72
 Side 2  free  transition at x/c =  0.0379   26

  18   rms: 0.3738E+01   max: 0.4662E+02   C at   72  1   RLX: 0.019
       a = -4.000      CL = -1.5438
      Cm =  0.3514     CD =  0.05811   =>   CDf =  0.00204    CDp =  0.05607

 Side 1 forced transition at x/c =  1.0000   75
 Side 2  free  transition at x/c =  0.0382   26

  19   rms: 0.1292E+01   max: 0.1229E+02   T at   26  2   RLX: 0.075
       a = -4.000      CL = -1.4658
      Cm =  0.3228     CD =  0.05876   =>   CDf =  0.00215    CDp =  0.05661

 Side 1 forced transition at x/c =  1.0000   75
 Side 2  free  transition at x/c =  0.0374   25

  20   rms: 0.8329E+00   max: 0.5438E+01   T at   26  2   RLX: 0.228
       a = -4.000      CL = -1.2508
      Cm =  0.2486     CD =  0.06565   =>   CDf =  0.00235    CDp =  0.06330

 MRCHDU: Convergence failed at  97  side 2    Res =  0.2439E+01
 MRCHDU: Convergence failed at  98  side 2    Res =  0.9730E+00
 MRCHDU: Convergence failed at  99  side 2    Res =  0.1493E+01
 MRCHDU: Convergence failed at 100  side 2    Res =  0.3613E+01
 Side 1 forced transition at x/c =  1.0000   75
 Side 2  free  transition at x/c =  0.0375   25

  21   rms: 0.5803E+00   max: -.1455E+01   C at  109  2   RLX: 0.344
       a = -4.000      CL = -0.9009
      Cm =  0.1455     CD =  0.06341   =>   CDf =  0.00263    CDp =  0.06077

 Side 1 forced transition at x/c =  1.0000   75
 Side 2  free  transition at x/c =  0.0375   25

  22   rms: 0.5573E+00   max: -.2227E+01   T at   25  2   RLX: 0.225
       a = -4.000      CL = -0.6952
      Cm =  0.0747     CD =  0.08260   =>   CDf =  0.00271    CDp =  0.07989

 Side 1 forced transition at x/c =  1.0000   75
 Side 2  free  transition at x/c =  0.0370   25
 idif Ue xi dudx           1  0.14323582      2.79057026E-03   51.328510    
 Uenew xinew           2  8.69486481E-03  1.69396400E-04

  23   rms: 0.5307E+00   max: -.1975E+01   D at  106  2   RLX: 0.253
       a = -4.000      CL = -0.4713
      Cm = -0.0071     CD =  0.06357   =>   CDf =  0.00265    CDp =  0.06092

 Side 1 forced transition at x/c =  1.0000   74
 Side 2  free  transition at x/c =  0.0370   26

  24   rms: 0.3313E+01   max: -.1835E+02   D at    2  2   RLX: 0.027
       a = -4.000      CL = -0.4153
      Cm = -0.0111     CD =  0.09022   =>   CDf =  0.00269    CDp =  0.08753

 Side 1 forced transition at x/c =  1.0000   75
 Side 2  free  transition at x/c =  0.0371   25
 idif Ue xi dudx           1  0.18426952      3.67176533E-03   50.185539    
 Uenew xinew           2  5.27244993E-02  1.05059147E-03

  25   rms: 0.1162E+01   max: -.3380E+01   D at  106  2   RLX: 0.148
       a = -4.000      CL = -0.4327
      Cm = -0.0293     CD =  0.05674   =>   CDf =  0.00258    CDp =  0.05416

 Side 1 forced transition at x/c =  1.0000   74
 Side 2  free  transition at x/c =  0.0373   26

  26   rms: 0.8182E+00   max: -.3446E+01   D at   40  2   RLX: 0.145
       a = -4.000      CL = -0.4045
      Cm = -0.0522     CD =  0.05082   =>   CDf =  0.00278    CDp =  0.04804

 Side 1 forced transition at x/c =  1.0000   74
 Side 2  free  transition at x/c =  0.0374   26

  27   rms: 0.1001E+01   max: -.3994E+01   D at   47  2   RLX: 0.125
       a = -4.000      CL = -0.4065
      Cm = -0.0696     CD =  0.04425   =>   CDf =  0.00292    CDp =  0.04133

 Side 1 forced transition at x/c =  1.0000   74
 Side 2  free  transition at x/c =  0.0374   26

  28   rms: 0.9440E+00   max: -.3393E+01   D at   54  2   RLX: 0.147
       a = -4.000      CL = -0.4398
      Cm = -0.0748     CD =  0.03619   =>   CDf =  0.00309    CDp =  0.03311

 Side 1 forced transition at x/c =  1.0000   74
 Side 2  free  transition at x/c =  0.0374   26
 idif Ue xi dudx           1  0.14100395      2.98607349E-03   47.220524    
 Uenew xinew           2  4.50892933E-03  9.54866409E-05

  29   rms: 0.8301E+00   max: -.3640E+01   D at   90  2   RLX: 0.137
       a = -4.000      CL = -0.4659
      Cm = -0.0747     CD =  0.03086   =>   CDf =  0.00326    CDp =  0.02760

 Side 1 forced transition at x/c =  1.0000   73
 Side 2  free  transition at x/c =  0.0374   27

  30   rms: 0.7710E+00   max: -.3909E+01   D at   91  2   RLX: 0.128
       a = -4.000      CL = -0.4885
      Cm = -0.0704     CD =  0.02740   =>   CDf =  0.00347    CDp =  0.02392

 MRCHDU: Convergence failed at  91  side 2    Res =  0.1759E+00
 MRCHDU: Convergence failed at  92  side 2    Res =  0.7038E-01
 Side 1 forced transition at x/c =  1.0000   73
 Side 2  free  transition at x/c =  0.0375   27

  31   rms: 0.6527E+00   max: -.3272E+01   D at   92  2   RLX: 0.153
       a = -4.000      CL = -0.5196
      Cm = -0.0619     CD =  0.02672   =>   CDf =  0.00357    CDp =  0.02315

 MRCHDU: Convergence failed at  92  side 2    Res =  0.2507E+00
 MRCHDU: Convergence failed at  93  side 2    Res =  0.6985E-01
 Side 1 forced transition at x/c =  1.0000   73
 Side 2  free  transition at x/c =  0.0375   27

  32   rms: 0.5858E+00   max: 0.3294E+01   D at   71  1   RLX: 0.236
       a = -4.000      CL = -0.5781
      Cm = -0.0445     CD =  0.02836   =>   CDf =  0.00369    CDp =  0.02467

 MRCHDU: Convergence failed at  93  side 2    Res =  0.1645E+00
 Side 1  free  transition at x/c =  0.9825   71
 Side 2  free  transition at x/c =  0.0374   27

  33   rms: 0.4963E+00   max: -.4530E+01   C at   71  1   RLX: 0.110
       a = -4.000      CL = -0.5708
      Cm = -0.0422     CD =  0.03542   =>   CDf =  0.00391    CDp =  0.03151

 Side 1  free  transition at x/c =  0.9648   70
 Side 2  free  transition at x/c =  0.0374   27

  34   rms: 0.3906E+00   max: 0.1630E+01   T at   70  1   RLX: 0.329
       a = -4.000      CL = -0.5410
      Cm = -0.0331     CD =  0.03231   =>   CDf =  0.00402    CDp =  0.02829

 Side 1  free  transition at x/c =  0.9319   68
 Side 2  free  transition at x/c =  0.0375   27

  35   rms: 0.2724E+00   max: -.1197E+01   D at   81  2   RLX: 0.418
       a = -4.000      CL = -0.5175
      Cm = -0.0163     CD =  0.03198   =>   CDf =  0.00440    CDp =  0.02758

 Side 1  free  transition at x/c =  0.9091   67
 Side 2  free  transition at x/c =  0.0376   27

  36   rms: 0.7108E+00   max: 0.2030E+01   T at   27  2   RLX: 0.316
       a = -4.000      CL = -0.4109
      Cm = -0.0206     CD =  0.04210   =>   CDf =  0.00472    CDp =  0.03738

 MRCHDU: Convergence failed at  71  side 1    Res =  0.1530E+02
 MRCHDU: Convergence failed at  72  side 1    Res =  0.1779E+01
 MRCHDU: Convergence failed at  73  side 1    Res =  0.2460E+01
 MRCHDU: Convergence failed at  74  side 1    Res =  0.9952E+01
 MRCHDU: Convergence failed at  75  side 1    Res =  0.1429E+02
 MRCHDU: Convergence failed at  87  side 2    Res =  0.8677E+01
 Side 1  free  transition at x/c =  0.9508   71
 Side 2  free  transition at x/c =  0.0371   25

  37   rms: 0.4036E+00   max: 0.3124E+01   D at   27  2   RLX: 0.459
       a = -4.000      CL = -0.3761
      Cm = -0.0173     CD =  0.01253   =>   CDf =  0.00628    CDp =  0.00625

 MRCHDU: Convergence failed at  27  side 2    Res =  0.9520E+02
 MRCHDU: Convergence failed at  28  side 2    Res =  0.3908E+01
 MRCHDU: Convergence failed at  29  side 2    Res =  0.1410E+02
 MRCHDU: Convergence failed at  30  side 2    Res =  0.5307E+01
 MRCHDU: Convergence failed at  31  side 2    Res =  0.5106E+01
 MRCHDU: Convergence failed at  32  side 2    Res =  0.6056E+01
 MRCHDU: Convergence failed at  33  side 2    Res =  0.7449E+01
 MRCHDU: Convergence failed at  34  side 2    Res =  0.8784E+01
 MRCHDU: Convergence failed at  35  side 2    Res =  0.1008E+02
 MRCHDU: Convergence failed at  36  side 2    Res =  0.1142E+02
 MRCHDU: Convergence failed at  37  side 2    Res =  0.1293E+02
 MRCHDU: Convergence failed at  38  side 2    Res =  0.1506E+02
 MRCHDU: Convergence failed at  39  side 2    Res =  0.2447E+02
 MRCHDU: Convergence failed at  40  side 2    Res =  0.3981E+02
 MRCHDU: Convergence failed at  41  side 2    Res =  0.5902E+02
 MRCHDU: Convergence failed at  42  side 2    Res =  0.3809E+03
 MRCHDU: Convergence failed at  43  side 2    Res =  0.1133E+04
 MRCHDU: Convergence failed at  44  side 2    Res =  0.1138E+03
 MRCHDU: Convergence failed at  45  side 2    Res =  0.2294E+03
 MRCHDU: Convergence failed at  46  side 2    Res =  0.3016E+03
 MRCHDU: Convergence failed at  47  side 2    Res =  0.8138E+02
 MRCHDU: Convergence failed at  48  side 2    Res =  0.6424E+02
 MRCHDU: Convergence failed at  49  side 2    Res =  0.5649E+02
 MRCHDU: Convergence failed at  50  side 2    Res =  0.4595E+02
 MRCHDU: Convergence failed at  51  side 2    Res =  0.3578E+02
 MRCHDU: Convergence failed at  52  side 2    Res =  0.6177E+02
 MRCHDU: Convergence failed at  53  side 2    Res =  0.5231E+02
 MRCHDU: Convergence failed at  54  side 2    Res =  0.2848E+02
 MRCHDU: Convergence failed at  55  side 2    Res =  0.4191E+02
 MRCHDU: Convergence failed at  56  side 2    Res =  0.6926E+02
 MRCHDU: Convergence failed at  57  side 2    Res =  0.4091E+03
 MRCHDU: Convergence failed at  58  side 2    Res =  0.2740E+02
 MRCHDU: Convergence failed at  59  side 2    Res =  0.4444E+02
 MRCHDU: Convergence failed at  60  side 2    Res =  0.1433E+02
 MRCHDU: Convergence failed at  61  side 2    Res =  0.3326E+02
 MRCHDU: Convergence failed at  62  side 2    Res =  0.6711E+03
 MRCHDU: Convergence failed at  63  side 2    Res =  0.1014E+03
 MRCHDU: Convergence failed at  64  side 2    Res =  0.4633E+02
 MRCHDU: Convergence failed at  65  side 2    Res =  0.1321E+03
 MRCHDU: Convergence failed at  66  side 2    Res =  0.1523E+03
 MRCHDU: Convergence failed at  67  side 2    Res =  0.1860E+03
 MRCHDU: Convergence failed at  68  side 2    Res =  0.2274E+02
 MRCHDU: Convergence failed at  69  side 2    Res =  0.1849E+02
 MRCHDU: Convergence failed at  70  side 2    Res =  0.1958E+02
 MRCHDU: Convergence failed at  71  side 2    Res =  0.1990E+02
 MRCHDU: Convergence failed at  72  side 2    Res =  0.2000E+02
 MRCHDU: Convergence failed at  73  side 2    Res =  0.3219E+02
 MRCHDU: Convergence failed at  74  side 2    Res =  0.2341E+02
 MRCHDU: Convergence failed at  75  side 2    Res =  0.2288E+02
 MRCHDU: Convergence failed at  76  side 2    Res =  0.2321E+02
 MRCHDU: Convergence failed at  77  side 2    Res =  0.2547E+02
 MRCHDU: Convergence failed at  78  side 2    Res =  0.2467E+02
 MRCHDU: Convergence failed at  79  side 2    Res =  0.2097E+02
 MRCHDU: Convergence failed at  80  side 2    Res =  0.4328E+02
 MRCHDU: Convergence failed at  81  side 2    Res =  0.4691E+02
 MRCHDU: Convergence failed at  82  side 2    Res =  0.4851E+02
 MRCHDU: Convergence failed at  83  side 2    Res =  0.6302E+02
 MRCHDU: Convergence failed at  84  side 2    Res =  0.1165E+03
 MRCHDU: Convergence failed at  85  side 2    Res =  0.4734E+02
 MRCHDU: Convergence failed at  86  side 2    Res =  0.4162E+02
 MRCHDU: Convergence failed at  87  side 2    Res =  0.5051E+02
 Side 1  free  transition at x/c =  0.9450   71
 Side 2  free  transition at x/c =  0.0367   25

  38   rms: 0.1116E+01   max: 0.6506E+01   D at   89  2   RLX: 0.209
       a = -4.000      CL = -1.4735
      Cm =  0.3520     CD =  0.00485   =>   CDf =  0.00183    CDp =  0.00302

 MRCHDU: Convergence failed at  36  side 2    Res =  0.2533E-02
 MRCHDU: Convergence failed at  37  side 2    Res =  0.9159E+01
 MRCHDU: Convergence failed at  38  side 2    Res =  0.9051E+01
 MRCHDU: Convergence failed at  39  side 2    Res =  0.8633E+01
 MRCHDU: Convergence failed at  40  side 2    Res =  0.8144E+01
 MRCHDU: Convergence failed at  41  side 2    Res =  0.7822E+01
 MRCHDU: Convergence failed at  42  side 2    Res =  0.7552E+01
 MRCHDU: Convergence failed at  43  side 2    Res =  0.7340E+01
 MRCHDU: Convergence failed at  44  side 2    Res =  0.7198E+01
 MRCHDU: Convergence failed at  45  side 2    Res =  0.7098E+01
 MRCHDU: Convergence failed at  46  side 2    Res =  0.6962E+01
 MRCHDU: Convergence failed at  47  side 2    Res =  0.6766E+01
 MRCHDU: Convergence failed at  48  side 2    Res =  0.6512E+01
 MRCHDU: Convergence failed at  49  side 2    Res =  0.6248E+01
 MRCHDU: Convergence failed at  50  side 2    Res =  0.6037E+01
 MRCHDU: Convergence failed at  51  side 2    Res =  0.5879E+01
 MRCHDU: Convergence failed at  52  side 2    Res =  0.5747E+01
 MRCHDU: Convergence failed at  53  side 2    Res =  0.5603E+01
 MRCHDU: Convergence failed at  54  side 2    Res =  0.5436E+01
 MRCHDU: Convergence failed at  55  side 2    Res =  0.5267E+01
 MRCHDU: Convergence failed at  56  side 2    Res =  0.5115E+01
 MRCHDU: Convergence failed at  89  side 2    Res =  0.5392E+01
 Side 1  free  transition at x/c =  0.9734   73
 Side 2  free  transition at x/c =  0.0369   25

  39   rms: 0.5722E+00   max: -.3288E+01   C at   73  1   RLX: 0.152
       a = -4.000      CL = -1.0209
      Cm =  0.2062     CD =  0.01827   =>   CDf =  0.00812    CDp =  0.01016

 MRCHDU: Convergence failed at  36  side 2    Res =  0.1983E-01
 Side 1  free  transition at x/c =  0.9855   74
 Side 2  free  transition at x/c =  0.0371   25

  40   rms: 0.4799E+00   max: 0.1055E+01   D at   94  2   RLX: 0.319
       a = -4.000      CL = -0.7823
      Cm =  0.1364     CD =  0.01848   =>   CDf =  0.00683    CDp =  0.01165

 Side 1  free  transition at x/c =  0.9932   74
 Side 2  free  transition at x/c =  0.0374   25

  41   rms: 0.4855E+00   max: -.4897E+00   D at   89  2   RLX: 0.250
       a = -4.000      CL = -0.6355
      Cm =  0.0896     CD =  0.01920   =>   CDf =  0.00592    CDp =  0.01328

 MRCHDU: Convergence failed at  32  side 2    Res =  0.2382E+01
 MRCHDU: Convergence failed at  33  side 2    Res =  0.1240E+01
 MRCHDU: Convergence failed at  34  side 2    Res =  0.7006E+00
 MRCHDU: Convergence failed at  35  side 2    Res =  0.3320E+01
 Side 1  free  transition at x/c =  0.9976   75
 Side 2  free  transition at x/c =  0.0375   25

  42   rms: 0.4992E+00   max: -.1510E+01   D at   69  2   RLX: 0.268
       a = -4.000      CL = -0.5556
      Cm =  0.0431     CD =  0.02039   =>   CDf =  0.00623    CDp =  0.01416

 TRCHEK2: N2 convergence failed.
 x:  0.09525  0.10430  0.10825  N:  8.917  9.000  9.045  Nx:  32.036   dN: 0.375E+01
 TRCHEK2: N2 convergence failed.
 x:  0.09525  0.10425  0.10825  N:  8.917  9.000  9.028  Nx:  32.131   dN:-0.136E+01
 TRCHEK2: N2 convergence failed.
 x:  0.09525  0.10425  0.10825  N:  8.917  9.000  9.028  Nx:  32.033   dN:-0.214E+01
 TRCHEK2: N2 convergence failed.
 x:  0.09525  0.10426  0.10825  N:  8.917  9.000  9.028  Nx:  32.064   dN:-0.210E+01
 TRCHEK2: N2 convergence failed.
 x:  0.09525  0.10425  0.10825  N:  8.917  9.000  9.028  Nx:  32.106   dN:-0.943E+00
 TRCHEK2: N2 convergence failed.
 x:  0.09525  0.10425  0.10825  N:  8.917  9.000  9.028  Nx:  32.178   dN:-0.830E+00
 TRCHEK2: N2 convergence failed.
 x:  0.09525  0.10425  0.10825  N:  8.917  9.000  9.028  Nx:  32.205   dN:-0.555E+00
 TRCHEK2: N2 convergence failed.
 x:  0.09525  0.10424  0.10825  N:  8.917  9.000  9.028  Nx:  32.311   dN:-0.510E+00
 TRCHEK2: N2 convergence failed.
 x:  0.09525  0.10424  0.10825  N:  8.917  9.000  9.028  Nx:  32.312   dN:-0.394E+00
 TRCHEK2: N2 convergence failed.
 x:  0.09525  0.10424  0.10825  N:  8.917  9.000  9.028  Nx:  32.442   dN:-0.378E+00
 TRCHEK2: N2 convergence failed.
 x:  0.09525  0.10423  0.10825  N:  8.917  9.000  9.029  Nx:  32.617   dN:-0.403E+00
 TRCHEK2: N2 convergence failed.
 x:  0.09525  0.10424  0.10825  N:  8.917  9.000  9.028  Nx:  32.326   dN:-0.437E+00
 TRCHEK2: N2 convergence failed.
 x:  0.09525  0.10424  0.10825  N:  8.917  9.000  9.028  Nx:  32.463   dN:-0.444E+00
 TRCHEK2: N2 convergence failed.
 x:  0.09525  0.10425  0.10825  N:  8.917  9.000  9.028  Nx:  32.229   dN:-0.531E+00
 TRCHEK2: N2 convergence failed.
 x:  0.09525  0.10424  0.10825  N:  8.917  9.000  9.028  Nx:  32.339   dN:-0.508E+00
 TRCHEK2: N2 convergence failed.
 x:  0.09525  0.10425  0.10825  N:  8.917  9.000  9.028  Nx:  32.226   dN:-0.512E+00
 TRCHEK2: N2 convergence failed.
 x:  0.09525  0.10424  0.10825  N:  8.917  9.000  9.028  Nx:  32.335   dN:-0.478E+00
 TRCHEK2: N2 convergence failed.
 x:  0.09525  0.10424  0.10825  N:  8.917  9.000  9.028  Nx:  32.335   dN:-0.372E+00
 TRCHEK2: N2 convergence failed.
 x:  0.09525  0.10424  0.10825  N:  8.917  9.000  9.028  Nx:  32.470   dN:-0.359E+00
 TRCHEK2: N2 convergence failed.
 x:  0.09525  0.10423  0.10825  N:  8.917  9.000  9.029  Nx:  32.652   dN:-0.383E+00
 TRCHEK2: N2 convergence failed.
 x:  0.09525  0.10424  0.10825  N:  8.917  9.000  9.028  Nx:  32.349   dN:-0.413E+00
 TRCHEK2: N2 convergence failed.
 x:  0.09525  0.10424  0.10825  N:  8.917  9.000  9.028  Nx:  32.493   dN:-0.420E+00
 TRCHEK2: N2 convergence failed.
 x:  0.09525  0.10425  0.10825  N:  8.917  9.000  9.028  Nx:  32.249   dN:-0.497E+00
 TRCHEK2: N2 convergence failed.
 x:  0.09525  0.10424  0.10825  N:  8.917  9.000  9.028  Nx:  32.364   dN:-0.477E+00
 TRCHEK2: N2 convergence failed.
 x:  0.09525  0.10425  0.10825  N:  8.917  9.000  9.028  Nx:  32.245   dN:-0.480E+00
 MRCHDU: Convergence failed at  29  side 2    Res =  0.3050E+02
 MRCHDU: Convergence failed at  30  side 2    Res =  0.1917E+02
 MRCHDU: Convergence failed at  31  side 2    Res =  0.2480E+02
 MRCHDU: Convergence failed at  32  side 2    Res =  0.1238E+02
 MRCHDU: Convergence failed at  33  side 2    Res =  0.1282E+02
 MRCHDU: Convergence failed at  34  side 2    Res =  0.1356E+02
 MRCHDU: Convergence failed at  35  side 2    Res =  0.5940E+02
 MRCHDU: Convergence failed at  36  side 2    Res =  0.1208E+03
 MRCHDU: Convergence failed at  37  side 2    Res =  0.1386E+03
 MRCHDU: Convergence failed at  38  side 2    Res =  0.1627E+03
 MRCHDU: Convergence failed at  39  side 2    Res =  0.1220E+03
 MRCHDU: Convergence failed at  40  side 2    Res =  0.2961E+03
 MRCHDU: Convergence failed at  41  side 2    Res =  0.4704E+03
 MRCHDU: Convergence failed at  42  side 2    Res =  0.1478E+03
 MRCHDU: Convergence failed at  43  side 2    Res =  0.1098E+03
 MRCHDU: Convergence failed at  44  side 2    Res =  0.1061E+03
 MRCHDU: Convergence failed at  45  side 2    Res =  0.1054E+03
 MRCHDU: Convergence failed at  46  side 2    Res =  0.1073E+03
 MRCHDU: Convergence failed at  47  side 2    Res =  0.1104E+03
 MRCHDU: Convergence failed at  48  side 2    Res =  0.1159E+03
 MRCHDU: Convergence failed at  49  side 2    Res =  0.1215E+03
 MRCHDU: Convergence failed at  50  side 2    Res =  0.1230E+03
 MRCHDU: Convergence failed at  51  side 2    Res =  0.1277E+03
 MRCHDU: Convergence failed at  52  side 2    Res =  0.1286E+03
 MRCHDU: Convergence failed at  53  side 2    Res =  0.1334E+03
 MRCHDU: Convergence failed at  54  side 2    Res =  0.1280E+03
 MRCHDU: Convergence failed at  55  side 2    Res =  0.1104E+03
 MRCHDU: Convergence failed at  56  side 2    Res =  0.2790E+02
 MRCHDU: Convergence failed at  57  side 2    Res =  0.1498E+03
 MRCHDU: Convergence failed at  58  side 2    Res =  0.1766E+03
 MRCHDU: Convergence failed at  59  side 2    Res =  0.1166E+03
 MRCHDU: Convergence failed at  60  side 2    Res =  0.1110E+03
 MRCHDU: Convergence failed at  61  side 2    Res =  0.1255E+03
 MRCHDU: Convergence failed at  62  side 2    Res =  0.1249E+03
 MRCHDU: Convergence failed at  63  side 2    Res =  0.1411E+03
 MRCHDU: Convergence failed at  64  side 2    Res =  0.2668E+03
 MRCHDU: Convergence failed at  65  side 2    Res =  0.1564E+04
 MRCHDU: Convergence failed at  66  side 2    Res =  0.1615E+03
 MRCHDU: Convergence failed at  67  side 2    Res =  0.1809E+03
 MRCHDU: Convergence failed at  68  side 2    Res =  0.1241E+03
 MRCHDU: Convergence failed at  69  side 2    Res =  0.3122E+03
 MRCHDU: Convergence failed at  70  side 2    Res =  0.9522E+02
 MRCHDU: Convergence failed at  71  side 2    Res =  0.1526E+03
 MRCHDU: Convergence failed at  72  side 2    Res =  0.2635E+03
 MRCHDU: Convergence failed at  73  side 2    Res =  0.2679E+05
 MRCHDU: Convergence failed at  74  side 2    Res =  0.2734E+03
 MRCHDU: Convergence failed at  75  side 2    Res =  0.1578E+03
 MRCHDU: Convergence failed at  76  side 2    Res =  0.1028E+03
 MRCHDU: Convergence failed at  77  side 2    Res =  0.8806E+02
 MRCHDU: Convergence failed at  78  side 2    Res =  0.7397E+02
 MRCHDU: Convergence failed at  79  side 2    Res =  0.8621E+02
 MRCHDU: Convergence failed at  80  side 2    Res =  0.9242E+02
 MRCHDU: Convergence failed at  81  side 2    Res =  0.9817E+02
 MRCHDU: Convergence failed at  82  side 2    Res =  0.1034E+03
 MRCHDU: Convergence failed at  83  side 2    Res =  0.1076E+03
 MRCHDU: Convergence failed at  84  side 2    Res =  0.1154E+03
 MRCHDU: Convergence failed at  85  side 2    Res =  0.1244E+03
 MRCHDU: Convergence failed at  86  side 2    Res =  0.1491E+03
 Side 1 forced transition at x/c =  1.0000   76
 Side 2  free  transition at x/c =  0.0745   29

  43   rms: 0.2367E+01   max: 0.3752E+02   T at   29  2   RLX: 0.024
       a = -4.000      CL = -1.6644
      Cm =  0.4182     CD =  0.00420   =>   CDf =  0.00158    CDp =  0.00262

 Side 1 forced transition at x/c =  1.0000   76
 Side 2  free  transition at x/c =  0.0723   28
 idif Ue xi dudx           1  0.15865017      2.60221958E-03   60.967251    
 Uenew xinew           2  1.27260275E-02  2.08735466E-04

  44   rms: 0.1576E+01   max: 0.1022E+02   T at   31  2   RLX: 0.076
       a = -4.000      CL = -1.1087
      Cm =  0.2347     CD =  0.07717   =>   CDf =  0.00208    CDp =  0.07509

 Side 1 forced transition at x/c =  1.0000   75
 Side 2  free  transition at x/c =  0.0725   29

  45   rms: 0.2522E+01   max: 0.1446E+02   T at   32  2   RLX: 0.104
       a = -4.000      CL = -1.0721
      Cm =  0.2003     CD =  0.08547   =>   CDf =  0.00223    CDp =  0.08325

 MRCHDU: Convergence failed at  30  side 2    Res =  0.6741E+02
 MRCHDU: Convergence failed at  31  side 2    Res =  0.1153E+05
 MRCHDU: Convergence failed at  32  side 2    Res =  0.3012E+02
 MRCHDU: Convergence failed at  33  side 2    Res =  0.8325E+02
 MRCHDU: Convergence failed at  34  side 2    Res =  0.1147E+03
 MRCHDU: Convergence failed at  35  side 2    Res =  0.1095E+03
 MRCHDU: Convergence failed at  36  side 2    Res =  0.5876E+02
 MRCHDU: Convergence failed at  37  side 2    Res =  0.4707E+02
 MRCHDU: Convergence failed at  38  side 2    Res =  0.4904E+02
 MRCHDU: Convergence failed at  39  side 2    Res =  0.6507E+02
 MRCHDU: Convergence failed at  40  side 2    Res =  0.1761E+03
 MRCHDU: Convergence failed at  41  side 2    Res =  0.1985E+03
 MRCHDU: Convergence failed at  42  side 2    Res =  0.2063E+03
 MRCHDU: Convergence failed at  43  side 2    Res =  0.1664E+03
 MRCHDU: Convergence failed at  44  side 2    Res =  0.6017E+02
 MRCHDU: Convergence failed at  45  side 2    Res =  0.5687E+02
 MRCHDU: Convergence failed at  46  side 2    Res =  0.4287E+02
 MRCHDU: Convergence failed at  47  side 2    Res =  0.6570E+02
 MRCHDU: Convergence failed at  48  side 2    Res =  0.5932E+02
 MRCHDU: Convergence failed at  49  side 2    Res =  0.1625E+03
 MRCHDU: Convergence failed at  50  side 2    Res =  0.6080E+03
 MRCHDU: Convergence failed at  51  side 2    Res =  0.2131E+03
 MRCHDU: Convergence failed at  52  side 2    Res =  0.9779E+03
 MRCHDU: Convergence failed at  53  side 2    Res =  0.2094E+03
 MRCHDU: Convergence failed at  54  side 2    Res =  0.9371E+02
 MRCHDU: Convergence failed at  55  side 2    Res =  0.1044E+03
 MRCHDU: Convergence failed at  56  side 2    Res =  0.5140E+02
 MRCHDU: Convergence failed at  57  side 2    Res =  0.3045E+02
 MRCHDU: Convergence failed at  58  side 2    Res =  0.2427E+02
 MRCHDU: Convergence failed at  59  side 2    Res =  0.1392E+02
 MRCHDU: Convergence failed at  60  side 2    Res =  0.2115E+02
 Side 1 forced transition at x/c =  1.0000   75
 Side 2  free  transition at x/c =  0.0665   29

  46   rms: 0.1435E+01   max: -.2582E+02   T at   29  2   RLX: 0.019
       a = -4.000      CL = -1.9274
      Cm =  0.4277     CD =  0.04065   =>   CDf =  0.00214    CDp =  0.03850

 Side 1 forced transition at x/c =  1.0000   75
 Side 2  free  transition at x/c =  0.0656   29

  47   rms: 0.9773E+00   max: -.4606E+01   T at   29  2   RLX: 0.109
       a = -4.000      CL = -1.6781
      Cm =  0.3864     CD =  0.09345   =>   CDf =  0.00228    CDp =  0.09117

 Side 1 forced transition at x/c =  1.0000   75
 Side 2  free  transition at x/c =  0.0642   29

  48   rms: 0.9422E+00   max: 0.2540E+01   C at   29  2   RLX: 0.214
       a = -4.000      CL = -1.3240
      Cm =  0.2993     CD =  0.08816   =>   CDf =  0.00242    CDp =  0.08574

 MRCHDU: Convergence failed at 101  side 2    Res =  0.3073E+01
 MRCHDU: Convergence failed at 102  side 2    Res =  0.1187E+01
 MRCHDU: Convergence failed at 103  side 2    Res =  0.4497E+01
 MRCHDU: Convergence failed at 104  side 2    Res =  0.2540E+01
 Side 1 forced transition at x/c =  1.0000   76
 Side 2  free  transition at x/c =  0.0620   28

  49   rms: 0.8762E+00   max: 0.8072E+01   T at   28  2   RLX: 0.186
       a = -4.000      CL = -1.1070
      Cm =  0.2401     CD =  0.10597   =>   CDf =  0.00259    CDp =  0.10338

 Side 1 forced transition at x/c =  1.0000   76
 Side 2  free  transition at x/c =  0.0581   27

  50   rms: 0.6742E+00   max: 0.2896E+01   T at   27  2   RLX: 0.190
       a = -4.000      CL = -0.9079
      Cm =  0.1845     CD =  0.13943   =>   CDf =  0.00272    CDp =  0.13671

 Side 1 forced transition at x/c =  1.0000   76
 Side 2  free  transition at x/c =  0.0535   27

  51   rms: 0.5885E+00   max: -.2982E+01   D at  108  2   RLX: 0.168
       a = -4.000      CL = -0.7723
      Cm =  0.1472     CD =  0.16684   =>   CDf =  0.00279    CDp =  0.16405

 Side 1 forced transition at x/c =  1.0000   76
 Side 2  free  transition at x/c =  0.0526   27

  52   rms: 0.5452E+00   max: -.2619E+01   D at  108  2   RLX: 0.191
       a = -4.000      CL = -0.6460
      Cm =  0.1135     CD =  0.17216   =>   CDf =  0.00284    CDp =  0.16931

 Side 1 forced transition at x/c =  1.0000   76
 Side 2  free  transition at x/c =  0.0524   27

  53   rms: 0.4909E+00   max: -.2122E+01   D at  108  2   RLX: 0.236
       a = -4.000      CL = -0.5108
      Cm =  0.0782     CD =  0.16864   =>   CDf =  0.00287    CDp =  0.16576

 Side 1 forced transition at x/c =  1.0000   76
 Side 2  free  transition at x/c =  0.0523   27

  54   rms: 0.4389E+00   max: 0.1403E+01   T at   87  2   RLX: 0.398
       a = -4.000      CL = -0.3269
      Cm =  0.0326     CD =  0.13908   =>   CDf =  0.00284    CDp =  0.13624

 Side 1 forced transition at x/c =  1.0000   77
 Side 2  free  transition at x/c =  0.0523   26

  55   rms: 0.4150E+00   max: 0.1316E+01   T at   86  2   RLX: 0.482
       a = -4.000      CL = -0.1702
      Cm = -0.0066     CD =  0.10830   =>   CDf =  0.00277    CDp =  0.10553

 Side 1 forced transition at x/c =  1.0000   77
 Side 2  free  transition at x/c =  0.0526   26

  56   rms: 0.3962E+00   max: 0.2274E+01   T at   86  2   RLX: 0.471
       a = -4.000      CL = -0.1202
      Cm = -0.0274     CD =  0.09127   =>   CDf =  0.00260    CDp =  0.08868

 Side 1 forced transition at x/c =  1.0000   77
 Side 2  free  transition at x/c =  0.0529   26
 idif Ue xi dudx           1  0.17739694      3.12936306E-03   56.687874    
 Uenew xinew           2  5.22980057E-02  9.22560692E-04

  57   rms: 0.6714E+00   max: -.2266E+01   D at   59  2   RLX: 0.221
       a = -4.000      CL = -0.1298
      Cm = -0.0519     CD =  0.10465   =>   CDf =  0.00248    CDp =  0.10218

 Side 1 forced transition at x/c =  1.0000   76
 Side 2  free  transition at x/c =  0.0522   27

  58   rms: 0.5158E+00   max: -.2499E+01   T at   27  2   RLX: 0.200
       a = -4.000      CL = -0.1062
      Cm = -0.0522     CD =  0.09027   =>   CDf =  0.00240    CDp =  0.08786

 Side 1 forced transition at x/c =  1.0000   76
 Side 2  free  transition at x/c =  0.0528   27

  59   rms: 0.3533E+01   max: -.1433E+02   T at   27  2   RLX: 0.035
       a = -4.000      CL = -0.1149
      Cm = -0.0253     CD =  0.10152   =>   CDf =  0.00226    CDp =  0.09926

 Side 1 forced transition at x/c =  1.0000   77
 Side 2  free  transition at x/c =  0.0536   26
 idif Ue xi dudx           1  0.16989407      3.06534767E-03   55.424080    
 Uenew xinew           2  4.75840829E-02  8.58545303E-04

  60   rms: 0.2062E+01   max: 0.1151E+02   T at   26  2   RLX: 0.083
       a = -4.000      CL = -0.2326
      Cm = -0.0232     CD =  0.09791   =>   CDf =  0.00225    CDp =  0.09567

 Side 1 forced transition at x/c =  1.0000   76
 Side 2  free  transition at x/c =  0.0516   26

  61   rms: 0.6064E+00   max: -.3477E+01   T at   27  2   RLX: 0.144
       a = -4.000      CL = -0.2606
      Cm = -0.0107     CD =  0.09278   =>   CDf =  0.00242    CDp =  0.09036

 Side 1 forced transition at x/c =  1.0000   76
 Side 2  free  transition at x/c =  0.0493   26

  62   rms: 0.4808E+00   max: 0.3352E+01   T at   26  2   RLX: 0.270
       a = -4.000      CL = -0.3020
      Cm = -0.0176     CD =  0.06819   =>   CDf =  0.00241    CDp =  0.06578

 MRCHDU: Convergence failed at 107  side 2    Res =  0.1452E+01
 MRCHDU: Convergence failed at 108  side 2    Res =  0.3834E+01
 Side 1 forced transition at x/c =  1.0000   76
 Side 2  free  transition at x/c =  0.0448   26

  63   rms: 0.1634E+01   max: -.8997E+01   T at   26  2   RLX: 0.056
       a = -4.000      CL = -0.2814
      Cm = -0.0041     CD =  0.08951   =>   CDf =  0.00238    CDp =  0.08713

 Side 1 forced transition at x/c =  1.0000   76
 Side 2  free  transition at x/c =  0.0454   26

  64   rms: 0.4777E+00   max: 0.2136E+01   T at   26  2   RLX: 0.307
       a = -4.000      CL = -0.3134
      Cm = -0.0143     CD =  0.07097   =>   CDf =  0.00232    CDp =  0.06865

 MRCHDU: Convergence failed at 106  side 2    Res =  0.3165E+01
 MRCHDU: Convergence failed at 107  side 2    Res =  0.2598E+01
 MRCHDU: Convergence failed at 108  side 2    Res =  0.2617E+01
 Side 1 forced transition at x/c =  1.0000   76
 Side 2  free  transition at x/c =  0.0441   25

  65   rms: 0.3919E+00   max: -.1214E+01   T at   26  2   RLX: 0.412
       a = -4.000      CL = -0.3068
      Cm = -0.0123     CD =  0.07794   =>   CDf =  0.00233    CDp =  0.07562

 Side 1 forced transition at x/c =  1.0000   76
 Side 2  free  transition at x/c =  0.0437   25

  66   rms: 0.5979E+00   max: -.4636E+01   T at   26  2   RLX: 0.108
       a = -4.000      CL = -0.2710
      Cm = -0.0279     CD =  0.08433   =>   CDf =  0.00238    CDp =  0.08195

 Side 1 forced transition at x/c =  1.0000   76
 Side 2  free  transition at x/c =  0.0428   25

  67   rms: 0.9246E+00   max: -.9922E+01   T at   26  2   RLX: 0.050
       a = -4.000      CL = -0.3064
      Cm = -0.0256     CD =  0.08133   =>   CDf =  0.00234    CDp =  0.07898

 Side 1 forced transition at x/c =  1.0000   76
 Side 2  free  transition at x/c =  0.0407   25
 idif Ue xi dudx           1  0.21030864      3.60703468E-03   58.305134    
 Uenew xinew           2  7.07562268E-02  1.21355057E-03

  68   rms: 0.1310E+01   max: 0.8912E+01   T at   25  2   RLX: 0.114
       a = -4.000      CL = -0.4188
      Cm = -0.0222     CD =  0.06357   =>   CDf =  0.00235    CDp =  0.06122

 MRCHDU: Convergence failed at  66  side 2    Res =  0.1294E+01
 MRCHDU: Convergence failed at  67  side 2    Res =  0.9545E+00
 MRCHDU: Convergence failed at  68  side 2    Res =  0.1866E+01
 MRCHDU: Convergence failed at  69  side 2    Res =  0.1126E+01
 Side 1 forced transition at x/c =  1.0000   75
 Side 2  free  transition at x/c =  0.0376   25

  69   rms: 0.6049E+00   max: 0.2766E+01   T at   27  2   RLX: 0.313
       a = -4.000      CL = -0.4789
      Cm = -0.0041     CD =  0.04993   =>   CDf =  0.00241    CDp =  0.04753

 MRCHDU: Convergence failed at 109  side 2    Res =  0.1981E+01
 Side 1 forced transition at x/c =  1.0000   75
 Side 2  free  transition at x/c =  0.0376   25

  70   rms: 0.3971E+00   max: -.4059E+00   U at  109  2   RLX: 0.313
       a = -4.000      CL = -0.4448
      Cm = -0.0139     CD =  0.04044   =>   CDf =  0.00277    CDp =  0.03767

 MRCHDU: Convergence failed at 108  side 2    Res =  0.4105E+00
 MRCHDU: Convergence failed at 109  side 2    Res =  0.3161E+03
 Side 1 forced transition at x/c =  1.0000   75
 Side 2  free  transition at x/c =  0.0421   26

  71   rms: 0.3439E+00   max: -.2462E+01   D at  109  2   RLX: 0.203
       a = -4.000      CL = -0.4089
      Cm = -0.0156     CD =  0.02334   =>   CDf =  0.00548    CDp =  0.01785

 Side 1 forced transition at x/c =  1.0000   75
 Side 2  free  transition at x/c =  0.0433   26

  72   rms: 0.2920E+00   max: 0.1765E+01   D at   26  2   RLX: 0.323
       a = -4.000      CL = -0.4060
      Cm = -0.0107     CD =  0.02460   =>   CDf =  0.00532    CDp =  0.01928

 Side 1 forced transition at x/c =  1.0000   75
 Side 2  free  transition at x/c =  0.0407   26
 idif Ue xi dudx           1  0.13659169      2.79700756E-03   48.834938    
 Uenew xinew           2  8.58682767E-03  1.75833702E-04

  73   rms: 0.3086E+00   max: 0.2414E+01   C at   75  1   RLX: 0.424
       a = -4.000      CL = -0.4647
      Cm =  0.0056     CD =  0.02685   =>   CDf =  0.00477    CDp =  0.02208

 Side 1  free  transition at x/c =  0.9330   69
 Side 2  free  transition at x/c =  0.0394   27

  74   rms: 0.2479E+00   max: -.1464E+01   D at    2  2   RLX: 0.342
       a = -4.000      CL = -0.4033
      Cm = -0.0042     CD =  0.02712   =>   CDf =  0.00465    CDp =  0.02247

 Side 1  free  transition at x/c =  0.9479   71
 Side 2  free  transition at x/c =  0.0407   26

  75   rms: 0.1926E+00   max: -.1269E+01   T at   26  2   RLX: 0.394
       a = -4.000      CL = -0.3454
      Cm = -0.0147     CD =  0.02581   =>   CDf =  0.00460    CDp =  0.02121

 Side 1  free  transition at x/c =  0.9825   73
 Side 2  free  transition at x/c =  0.0432   26

  76   rms: 0.2639E+00   max: -.1644E+01   T at   27  2   RLX: 0.304
       a = -4.000      CL = -0.3373
      Cm = -0.0182     CD =  0.02606   =>   CDf =  0.00447    CDp =  0.02158

 Side 1  free  transition at x/c =  0.9703   72
 Side 2  free  transition at x/c =  0.0420   26

  77   rms: 0.1895E+00   max: -.1504E+01   T at   26  2   RLX: 0.332
       a = -4.000      CL = -0.3291
      Cm = -0.0191     CD =  0.02929   =>   CDf =  0.00407    CDp =  0.02522

 Side 1  free  transition at x/c =  0.9646   72
 Side 2  free  transition at x/c =  0.0436   26

  78   rms: 0.4748E+00   max: -.3336E+01   T at   27  2   RLX: 0.150
       a = -4.000      CL = -0.3341
      Cm = -0.0208     CD =  0.03231   =>   CDf =  0.00395    CDp =  0.02836

 Side 1  free  transition at x/c =  0.9648   72
 Side 2  free  transition at x/c =  0.0419   26

  79   rms: 0.2424E+00   max: -.7745E+00   T at   26  2   RLX: 0.646
       a = -4.000      CL = -0.3173
      Cm = -0.0209     CD =  0.02696   =>   CDf =  0.00362    CDp =  0.02335

 Side 1  free  transition at x/c =  0.9584   71
 Side 2  free  transition at x/c =  0.0428   26

  80   rms: 0.1494E+00   max: -.6510E+00   T at   26  2   RLX: 0.768
       a = -4.000      CL = -0.2973
      Cm = -0.0202     CD =  0.02650   =>   CDf =  0.00417    CDp =  0.02232

 Side 1  free  transition at x/c =  0.9590   72
 Side 2  free  transition at x/c =  0.0430   26

  81   rms: 0.1038E+00   max: -.4986E+00   D at   26  2
       a = -4.000      CL = -0.2885
      Cm = -0.0211     CD =  0.02443   =>   CDf =  0.00523    CDp =  0.01920

 Side 1  free  transition at x/c =  0.9605   72
 Side 2  free  transition at x/c =  0.0477   27

  82   rms: 0.2552E+00   max: 0.1689E+01   D at   30  2   RLX: 0.888
       a = -4.000      CL = -0.2946
      Cm = -0.0208     CD =  0.02046   =>   CDf =  0.00608    CDp =  0.01438

 MRCHDU: Convergence failed at  30  side 2    Res =  0.1783E+01
 MRCHDU: Convergence failed at  31  side 2    Res =  0.5592E+01
 MRCHDU: Convergence failed at  32  side 2    Res =  0.4266E+01
 MRCHDU: Convergence failed at  33  side 2    Res =  0.1007E+02
 MRCHDU: Convergence failed at  34  side 2    Res =  0.4236E+03
 MRCHDU: Convergence failed at  35  side 2    Res =  0.2089E+02
 MRCHDU: Convergence failed at  36  side 2    Res =  0.1484E+02
 MRCHDU: Convergence failed at  37  side 2    Res =  0.1346E+02
 MRCHDU: Convergence failed at  38  side 2    Res =  0.1261E+02
 MRCHDU: Convergence failed at  39  side 2    Res =  0.1179E+02
 MRCHDU: Convergence failed at  40  side 2    Res =  0.1156E+02
 MRCHDU: Convergence failed at  41  side 2    Res =  0.1144E+02
 MRCHDU: Convergence failed at  42  side 2    Res =  0.1144E+02
 MRCHDU: Convergence failed at  43  side 2    Res =  0.1156E+02
 MRCHDU: Convergence failed at  44  side 2    Res =  0.1194E+02
 MRCHDU: Convergence failed at  45  side 2    Res =  0.1260E+02
 MRCHDU: Convergence failed at  46  side 2    Res =  0.1355E+02
 MRCHDU: Convergence failed at  47  side 2    Res =  0.1386E+02
 MRCHDU: Convergence failed at  48  side 2    Res =  0.1375E+02
 MRCHDU: Convergence failed at  49  side 2    Res =  0.1356E+02
 MRCHDU: Convergence failed at  50  side 2    Res =  0.1372E+02
 MRCHDU: Convergence failed at  51  side 2    Res =  0.1386E+02
 MRCHDU: Convergence failed at  52  side 2    Res =  0.1462E+02
 MRCHDU: Convergence failed at  53  side 2    Res =  0.1523E+02
 MRCHDU: Convergence failed at  54  side 2    Res =  0.1553E+02
 MRCHDU: Convergence failed at  55  side 2    Res =  0.1583E+02
 MRCHDU: Convergence failed at  56  side 2    Res =  0.1643E+02
 MRCHDU: Convergence failed at  57  side 2    Res =  0.1747E+02
 MRCHDU: Convergence failed at  58  side 2    Res =  0.1874E+02
 MRCHDU: Convergence failed at  59  side 2    Res =  0.1981E+02
 MRCHDU: Convergence failed at  60  side 2    Res =  0.2057E+02
 MRCHDU: Convergence failed at  61  side 2    Res =  0.2048E+02
 MRCHDU: Convergence failed at  62  side 2    Res =  0.2124E+02
 MRCHDU: Convergence failed at  63  side 2    Res =  0.2191E+02
 MRCHDU: Convergence failed at  64  side 2    Res =  0.2376E+02
 MRCHDU: Convergence failed at  65  side 2    Res =  0.2616E+02
 MRCHDU: Convergence failed at  66  side 2    Res =  0.2776E+02
 MRCHDU: Convergence failed at  67  side 2    Res =  0.2948E+02
 MRCHDU: Convergence failed at  68  side 2    Res =  0.3264E+02
 MRCHDU: Convergence failed at  69  side 2    Res =  0.3843E+02
 MRCHDU: Convergence failed at  70  side 2    Res =  0.4736E+02
 MRCHDU: Convergence failed at  71  side 2    Res =  0.4423E+02
 MRCHDU: Convergence failed at  72  side 2    Res =  0.5287E+02
 MRCHDU: Convergence failed at  73  side 2    Res =  0.6147E+02
 MRCHDU: Convergence failed at  74  side 2    Res =  0.1511E+02
 MRCHDU: Convergence failed at  75  side 2    Res =  0.1549E+02
 MRCHDU: Convergence failed at  76  side 2    Res =  0.1609E+02
 MRCHDU: Convergence failed at  77  side 2    Res =  0.1828E+02
 MRCHDU: Convergence failed at  78  side 2    Res =  0.2079E+02
 MRCHDU: Convergence failed at  79  side 2    Res =  0.2358E+02
 MRCHDU: Convergence failed at  80  side 2    Res =  0.2224E+02
 MRCHDU: Convergence failed at  81  side 2    Res =  0.2845E+02
 MRCHDU: Convergence failed at  82  side 2    Res =  0.4787E+02
 MRCHDU: Convergence failed at  83  side 2    Res =  0.3785E+03
 MRCHDU: Convergence failed at  84  side 2    Res =  0.4373E+02
 MRCHDU: Convergence failed at  85  side 2    Res =  0.2869E+02
 MRCHDU: Convergence failed at  86  side 2    Res =  0.2464E+02
 MRCHDU: Convergence failed at  87  side 2    Res =  0.1497E+02
 Side 1  free  transition at x/c =  0.9600   72
 Side 2  free  transition at x/c =  0.0467   27

  83   rms: 0.6027E+00   max: 0.3545E+01   D at   89  2   RLX: 0.376
       a = -4.000      CL = -0.7857
      Cm =  0.1623     CD =  0.01386   =>   CDf =  0.00192    CDp =  0.01194

 MRCHDU: Convergence failed at  37  side 2    Res =  0.2892E-03
 MRCHDU: Convergence failed at  39  side 2    Res =  0.8589E+00
 MRCHDU: Convergence failed at  40  side 2    Res =  0.5357E+00
 MRCHDU: Convergence failed at  43  side 2    Res =  0.7331E+00
 MRCHDU: Convergence failed at  46  side 2    Res =  0.2406E+00
 MRCHDU: Convergence failed at  47  side 2    Res =  0.2245E+00
 MRCHDU: Convergence failed at  49  side 2    Res =  0.2251E+00
 MRCHDU: Convergence failed at  52  side 2    Res =  0.1120E-03
 MRCHDU: Convergence failed at  54  side 2    Res =  0.1046E+01
 MRCHDU: Convergence failed at  89  side 2    Res =  0.2593E+01
 MRCHDU: Convergence failed at  90  side 2    Res =  0.5032E+02
 MRCHDU: Convergence failed at  91  side 2    Res =  0.5438E+01
 MRCHDU: Convergence failed at  92  side 2    Res =  0.2603E+01
 MRCHDU: Convergence failed at  93  side 2    Res =  0.1927E+01
 Side 1  free  transition at x/c =  0.9822   73
 Side 2  free  transition at x/c =  0.0459   27

  84   rms: 0.3171E+00   max: -.6476E+00   D at   93  2   RLX: 0.585
       a = -4.000      CL = -0.4321
      Cm =  0.0267     CD =  0.02248   =>   CDf =  0.00506    CDp =  0.01741

 Side 1  free  transition at x/c =  0.9769   73
 Side 2  free  transition at x/c =  0.0458   27

  85   rms: 0.6356E+00   max: -.2873E+01   D at   64  2   RLX: 0.174
       a = -4.000      CL = -0.3922
      Cm =  0.0077     CD =  0.02066   =>   CDf =  0.00433    CDp =  0.01633

 Side 1  free  transition at x/c =  0.9702   72
 Side 2  free  transition at x/c =  0.0460   27

  86   rms: 0.8259E+00   max: 0.2234E+01   T at   88  2   RLX: 0.192
       a = -4.000      CL = -0.4994
      Cm =  0.0235     CD =  0.02234   =>   CDf =  0.00487    CDp =  0.01747

 MRCHDU: Convergence failed at  55  side 2    Res =  0.6336E+00
 MRCHDU: Convergence failed at  80  side 2    Res =  0.1000E+00
 Side 1  free  transition at x/c =  0.9276   69
 Side 2  free  transition at x/c =  0.0439   26

  87   rms: 0.2151E+00   max: -.6241E+00   D at   93  2   RLX: 0.672
       a = -4.000      CL = -0.4175
      Cm =  0.0054     CD =  0.02883   =>   CDf =  0.00529    CDp =  0.02354

 MRCHDU: Convergence failed at  72  side 1    Res =  0.9008E+01
 MRCHDU: Convergence failed at  73  side 1    Res =  0.3684E+01
 MRCHDU: Convergence failed at  74  side 1    Res =  0.3182E+01
 MRCHDU: Convergence failed at  75  side 1    Res =  0.6193E+01
 Side 1  free  transition at x/c =  0.9512   71
 Side 2  free  transition at x/c =  0.0438   26

  88   rms: 0.3578E+00   max: 0.1410E+01   D at   29  2
       a = -4.000      CL = -0.3153
      Cm = -0.0159     CD =  0.02670   =>   CDf =  0.00579    CDp =  0.02091

 Side 1  free  transition at x/c =  0.9454   71
 Side 2  free  transition at x/c =  0.0451   27

  89   rms: 0.2113E+00   max: -.2198E+01   T at   27  2   RLX: 0.228
       a = -4.000      CL = -0.3085
      Cm = -0.0161     CD =  0.01663   =>   CDf =  0.00621    CDp =  0.01042

 Side 1  free  transition at x/c =  0.9486   71
 Side 2  free  transition at x/c =  0.0474   27

  90   rms: 0.1139E+00   max: 0.7135E+00   D at   30  2
       a = -4.000      CL = -0.2956
      Cm = -0.0210     CD =  0.02138   =>   CDf =  0.00565    CDp =  0.01573

 Side 1  free  transition at x/c =  0.9580   71
 Side 2  free  transition at x/c =  0.0467   27

  91   rms: 0.2007E-01   max: 0.2374E+00   D at   30  2
       a = -4.000      CL = -0.2896
      Cm = -0.0221     CD =  0.02169   =>   CDf =  0.00517    CDp =  0.01652

 Side 1  free  transition at x/c =  0.9658   72
 Side 2  free  transition at x/c =  0.0463   27

  92   rms: 0.1384E-01   max: 0.1758E+00   C at   72  1
       a = -4.000      CL = -0.2936
      Cm = -0.0212     CD =  0.02173   =>   CDf =  0.00519    CDp =  0.01653

 Side 1  free  transition at x/c =  0.9601   72
 Side 2  free  transition at x/c =  0.0463   27

  93   rms: 0.1230E-02   max: -.1226E-01   D at   72  1
       a = -4.000      CL = -0.2936
      Cm = -0.0212     CD =  0.02174   =>   CDf =  0.00519    CDp =  0.01654

 Side 1  free  transition at x/c =  0.9604   72
 Side 2  free  transition at x/c =  0.0463   27

  94   rms: 0.1427E-04   max: 0.1810E-03   C at   72  1
       a = -4.000      CL = -0.2936
      Cm = -0.0212     CD =  0.02174   =>   CDf =  0.00520    CDp =  0.01654
 plradd ia,ip,cpol            1           0  6.79411367E-03

 Point added to stored polar  1
 Point written to save file  v23010_Re500k.base.pol                          
 Dump file unspecified or not available
 Calculating wake trajectory ...
 Calculating source influence matrix ...

 Solving BL system ...

 Side 1  free  transition at x/c =  0.9604   72
 Side 2  free  transition at x/c =  0.0463   27

   1   rms: 0.1186E+00   max: -.7215E+00   T at   27  2   RLX: 0.693
       a = -3.500      CL = -0.2416
      Cm = -0.0245     CD =  0.01972   =>   CDf =  0.00515    CDp =  0.01457

 Side 1  free  transition at x/c =  0.9462   72
 Side 2  free  transition at x/c =  0.0479   26

   2   rms: 0.8028E-01   max: -.4588E+00   T at   26  2
       a = -3.500      CL = -0.2226
      Cm = -0.0243     CD =  0.01950   =>   CDf =  0.00504    CDp =  0.01446

 Side 1  free  transition at x/c =  0.9307   71
 Side 2  free  transition at x/c =  0.0505   26

   3   rms: 0.2317E+00   max: -.2817E+01   T at   26  2   RLX: 0.177
       a = -3.500      CL = -0.2214
      Cm = -0.0237     CD =  0.02282   =>   CDf =  0.00523    CDp =  0.01758

 Side 1  free  transition at x/c =  0.9300   71
 Side 2  free  transition at x/c =  0.0501   26

   4   rms: 0.6803E-01   max: -.4739E+00   D at   26  2
       a = -3.500      CL = -0.2252
      Cm = -0.0232     CD =  0.02125   =>   CDf =  0.00538    CDp =  0.01587

 Side 1  free  transition at x/c =  0.9282   71
 Side 2  free  transition at x/c =  0.0496   26

   5   rms: 0.2788E-01   max: -.3013E+00   D at   26  2
       a = -3.500      CL = -0.2263
      Cm = -0.0231     CD =  0.02022   =>   CDf =  0.00546    CDp =  0.01476

 Side 1  free  transition at x/c =  0.9287   71
 Side 2  free  transition at x/c =  0.0512   26

   6   rms: 0.1581E+00   max: 0.1026E+01   T at   26  2   RLX: 0.588
       a = -3.500      CL = -0.2278
      Cm = -0.0239     CD =  0.01827   =>   CDf =  0.00539    CDp =  0.01288

 Side 1  free  transition at x/c =  0.9298   71
 Side 2  free  transition at x/c =  0.0498   26

   7   rms: 0.1081E+00   max: -.9395E+00   T at   26  2   RLX: 0.532
       a = -3.500      CL = -0.2280
      Cm = -0.0236     CD =  0.02178   =>   CDf =  0.00494    CDp =  0.01684

 Side 1  free  transition at x/c =  0.9292   71
 Side 2  free  transition at x/c =  0.0516   26

   8   rms: 0.1372E+00   max: -.6537E+00   D at   34  2   RLX: 0.765
       a = -3.500      CL = -0.2269
      Cm = -0.0224     CD =  0.02529   =>   CDf =  0.00481    CDp =  0.02048

 Side 1  free  transition at x/c =  0.9271   70
 Side 2  free  transition at x/c =  0.0518   26

   9   rms: 0.1955E+00   max: 0.9149E+00   D at   29  2
       a = -3.500      CL = -0.2254
      Cm = -0.0225     CD =  0.02272   =>   CDf =  0.00572    CDp =  0.01699

 Side 1  free  transition at x/c =  0.9266   70
 Side 2  free  transition at x/c =  0.0510   26

  10   rms: 0.1314E+00   max: 0.5437E+00   D at   27  2
       a = -3.500      CL = -0.2263
      Cm = -0.0228     CD =  0.02125   =>   CDf =  0.00571    CDp =  0.01554

 Side 1  free  transition at x/c =  0.9278   70
 Side 2  free  transition at x/c =  0.0514   26

  11   rms: 0.3037E-01   max: -.3120E+00   T at   26  2
       a = -3.500      CL = -0.2242
      Cm = -0.0227     CD =  0.02220   =>   CDf =  0.00552    CDp =  0.01668

 Side 1  free  transition at x/c =  0.9280   70
 Side 2  free  transition at x/c =  0.0508   26

  12   rms: 0.1638E+00   max: 0.7477E+00   D at   27  2
       a = -3.500      CL = -0.2257
      Cm = -0.0229     CD =  0.02167   =>   CDf =  0.00566    CDp =  0.01601

 Side 1  free  transition at x/c =  0.9276   70
 Side 2  free  transition at x/c =  0.0501   26

  13   rms: 0.5400E-01   max: -.2741E+00   D at   26  2
       a = -3.500      CL = -0.2262
      Cm = -0.0230     CD =  0.02050   =>   CDf =  0.00556    CDp =  0.01494

 Side 1  free  transition at x/c =  0.9286   71
 Side 2  free  transition at x/c =  0.0515   26

  14   rms: 0.1448E+00   max: -.6189E+00   T at   27  2   RLX: 0.808
       a = -3.500      CL = -0.2258
      Cm = -0.0239     CD =  0.01849   =>   CDf =  0.00539    CDp =  0.01309

 Side 1  free  transition at x/c =  0.9299   71
 Side 2  free  transition at x/c =  0.0506   26

  15   rms: 0.1219E+00   max: 0.5754E+00   T at   26  2
       a = -3.500      CL = -0.2282
      Cm = -0.0240     CD =  0.01839   =>   CDf =  0.00502    CDp =  0.01337

 Side 1  free  transition at x/c =  0.9293   71
 Side 2  free  transition at x/c =  0.0485   26

  16   rms: 0.8983E-01   max: -.4082E+00   D at   27  2
       a = -3.500      CL = -0.2256
      Cm = -0.0234     CD =  0.01975   =>   CDf =  0.00496    CDp =  0.01479

 Side 1  free  transition at x/c =  0.9290   71
 Side 2  free  transition at x/c =  0.0510   26

  17   rms: 0.1137E+00   max: 0.6599E+00   T at   26  2   RLX: 0.861
       a = -3.500      CL = -0.2281
      Cm = -0.0239     CD =  0.01824   =>   CDf =  0.00529    CDp =  0.01295

 Side 1  free  transition at x/c =  0.9295   71
 Side 2  free  transition at x/c =  0.0495   26

  18   rms: 0.9740E-01   max: -.5785E+00   T at   26  2   RLX: 0.864
       a = -3.500      CL = -0.2258
      Cm = -0.0232     CD =  0.02048   =>   CDf =  0.00494    CDp =  0.01554

 Side 1  free  transition at x/c =  0.9290   71
 Side 2  free  transition at x/c =  0.0515   26

  19   rms: 0.8942E-01   max: -.5048E+00   D at   33  2   RLX: 0.990
       a = -3.500      CL = -0.2242
      Cm = -0.0224     CD =  0.02225   =>   CDf =  0.00505    CDp =  0.01720

 Side 1  free  transition at x/c =  0.9277   70
 Side 2  free  transition at x/c =  0.0520   26

  20   rms: 0.7500E-01   max: 0.3633E+00   D at   29  2
       a = -3.500      CL = -0.2253
      Cm = -0.0226     CD =  0.02227   =>   CDf =  0.00567    CDp =  0.01660

 Side 1  free  transition at x/c =  0.9276   70
 Side 2  free  transition at x/c =  0.0515   26

  21   rms: 0.1026E+00   max: 0.3957E+00   D at   27  2
       a = -3.500      CL = -0.2257
      Cm = -0.0227     CD =  0.02160   =>   CDf =  0.00569    CDp =  0.01592

 Side 1  free  transition at x/c =  0.9278   70
 Side 2  free  transition at x/c =  0.0517   26

  22   rms: 0.8379E-02   max: -.1018E+00   T at   26  2
       a = -3.500      CL = -0.2245
      Cm = -0.0228     CD =  0.02185   =>   CDf =  0.00557    CDp =  0.01629

 Side 1  free  transition at x/c =  0.9280   70
 Side 2  free  transition at x/c =  0.0517   26

  23   rms: 0.4897E-01   max: 0.1781E+00   D at   27  2
       a = -3.500      CL = -0.2252
      Cm = -0.0227     CD =  0.02171   =>   CDf =  0.00562    CDp =  0.01609

 Side 1  free  transition at x/c =  0.9280   70
 Side 2  free  transition at x/c =  0.0518   26

  24   rms: 0.3183E-02   max: -.2464E-01   T at   26  2
       a = -3.500      CL = -0.2246
      Cm = -0.0228     CD =  0.02177   =>   CDf =  0.00559    CDp =  0.01618

 Side 1  free  transition at x/c =  0.9281   71
 Side 2  free  transition at x/c =  0.0518   26

  25   rms: 0.5585E-02   max: 0.1829E-01   D at   27  2
       a = -3.500      CL = -0.2248
      Cm = -0.0228     CD =  0.02176   =>   CDf =  0.00561    CDp =  0.01615

 Side 1  free  transition at x/c =  0.9281   71
 Side 2  free  transition at x/c =  0.0519   26

  26   rms: 0.8157E-04   max: -.6688E-03   T at   26  2
       a = -3.500      CL = -0.2247
      Cm = -0.0228     CD =  0.02176   =>   CDf =  0.00560    CDp =  0.01616
 plradd ia,ip,cpol            2           0  6.79411367E-03

 Point added to stored polar  1
 Point written to save file  v23010_Re500k.base.pol                          
 Dump file unspecified or not available
 Calculating wake trajectory ...
 Calculating source influence matrix ...

 Solving BL system ...

 Side 1  free  transition at x/c =  0.9282   71
 Side 2  free  transition at x/c =  0.0519   26

   1   rms: 0.1152E+00   max: -.9596E+00   T at   26  2   RLX: 0.521
       a = -3.000      CL = -0.1879
      Cm = -0.0234     CD =  0.02251   =>   CDf =  0.00560    CDp =  0.01690

 Side 1  free  transition at x/c =  0.9037   69
 Side 2  free  transition at x/c =  0.0492   26

   2   rms: 0.1807E+00   max: 0.1131E+01   D at   27  2   RLX: 0.754
       a = -3.000      CL = -0.1734
      Cm = -0.0229     CD =  0.01849   =>   CDf =  0.00566    CDp =  0.01283

 Side 1  free  transition at x/c =  0.8814   69
 Side 2  free  transition at x/c =  0.0554   26

   3   rms: 0.1374E+00   max: 0.1098E+01   D at   29  2
       a = -3.000      CL = -0.1724
      Cm = -0.0225     CD =  0.01641   =>   CDf =  0.00619    CDp =  0.01022

 MRCHDU: Convergence failed at  29  side 2    Res =  0.3255E+01
 MRCHDU: Convergence failed at  30  side 2    Res =  0.1129E+01
 MRCHDU: Convergence failed at  31  side 2    Res =  0.2549E+01
 MRCHDU: Convergence failed at  32  side 2    Res =  0.1663E+02
 MRCHDU: Convergence failed at  33  side 2    Res =  0.2662E+01
 MRCHDU: Convergence failed at  34  side 2    Res =  0.1837E+01
 MRCHDU: Convergence failed at  35  side 2    Res =  0.1410E+01
 MRCHDU: Convergence failed at  36  side 2    Res =  0.1379E+01
 MRCHDU: Convergence failed at  37  side 2    Res =  0.1431E+01
 MRCHDU: Convergence failed at  38  side 2    Res =  0.1625E+01
 MRCHDU: Convergence failed at  39  side 2    Res =  0.1855E+01
 MRCHDU: Convergence failed at  40  side 2    Res =  0.2121E+01
 MRCHDU: Convergence failed at  41  side 2    Res =  0.2428E+01
 MRCHDU: Convergence failed at  42  side 2    Res =  0.2803E+01
 MRCHDU: Convergence failed at  43  side 2    Res =  0.3253E+01
 MRCHDU: Convergence failed at  44  side 2    Res =  0.3769E+01
 MRCHDU: Convergence failed at  45  side 2    Res =  0.4317E+01
 MRCHDU: Convergence failed at  46  side 2    Res =  0.4853E+01
 MRCHDU: Convergence failed at  47  side 2    Res =  0.5373E+01
 MRCHDU: Convergence failed at  48  side 2    Res =  0.5880E+01
 MRCHDU: Convergence failed at  49  side 2    Res =  0.6405E+01
 MRCHDU: Convergence failed at  50  side 2    Res =  0.6940E+01
 MRCHDU: Convergence failed at  51  side 2    Res =  0.7454E+01
 MRCHDU: Convergence failed at  52  side 2    Res =  0.7856E+01
 MRCHDU: Convergence failed at  53  side 2    Res =  0.8100E+01
 MRCHDU: Convergence failed at  54  side 2    Res =  0.8229E+01
 MRCHDU: Convergence failed at  55  side 2    Res =  0.8316E+01
 MRCHDU: Convergence failed at  56  side 2    Res =  0.8395E+01
 MRCHDU: Convergence failed at  57  side 2    Res =  0.8437E+01
 MRCHDU: Convergence failed at  58  side 2    Res =  0.8358E+01
 MRCHDU: Convergence failed at  59  side 2    Res =  0.7349E+01
 MRCHDU: Convergence failed at  60  side 2    Res =  0.7042E+01
 MRCHDU: Convergence failed at  61  side 2    Res =  0.6091E+01
 MRCHDU: Convergence failed at  62  side 2    Res =  0.4867E+01
 MRCHDU: Convergence failed at  63  side 2    Res =  0.4798E+01
 MRCHDU: Convergence failed at  64  side 2    Res =  0.4471E+01
 MRCHDU: Convergence failed at  65  side 2    Res =  0.4443E+01
 MRCHDU: Convergence failed at  66  side 2    Res =  0.4383E+01
 MRCHDU: Convergence failed at  67  side 2    Res =  0.4293E+01
 MRCHDU: Convergence failed at  68  side 2    Res =  0.3923E+01
 MRCHDU: Convergence failed at  69  side 2    Res =  0.6769E+01
 MRCHDU: Convergence failed at  70  side 2    Res =  0.7163E+01
 MRCHDU: Convergence failed at  71  side 2    Res =  0.7590E+01
 MRCHDU: Convergence failed at  72  side 2    Res =  0.8121E+01
 MRCHDU: Convergence failed at  73  side 2    Res =  0.9120E+01
 MRCHDU: Convergence failed at  74  side 2    Res =  0.1042E+02
 MRCHDU: Convergence failed at  75  side 2    Res =  0.1304E+02
 MRCHDU: Convergence failed at  76  side 2    Res =  0.1455E+02
 MRCHDU: Convergence failed at  77  side 2    Res =  0.1733E+02
 MRCHDU: Convergence failed at  78  side 2    Res =  0.2833E+02
 MRCHDU: Convergence failed at  79  side 2    Res =  0.4124E+02
 MRCHDU: Convergence failed at  80  side 2    Res =  0.8425E+02
 MRCHDU: Convergence failed at  81  side 2    Res =  0.1516E+03
 MRCHDU: Convergence failed at  82  side 2    Res =  0.4690E+02
 MRCHDU: Convergence failed at  83  side 2    Res =  0.2757E+02
 MRCHDU: Convergence failed at  84  side 2    Res =  0.1981E+02
 MRCHDU: Convergence failed at  85  side 2    Res =  0.3030E+02
 Side 1  free  transition at x/c =  0.8800   69
 Side 2  free  transition at x/c =  0.0576   26

   4   rms: 0.3760E+00   max: 0.1044E+01   D at   87  2   RLX: 0.571
       a = -3.000      CL = -0.3315
      Cm =  0.0483     CD =  0.01153   =>   CDf =  0.00213    CDp =  0.00940

 Side 1  free  transition at x/c =  0.8967   70
 Side 2  free  transition at x/c =  0.0597   26

   5   rms: 0.1937E+00   max: 0.2036E+01   T at   26  2   RLX: 0.498
       a = -3.000      CL = -0.2608
      Cm =  0.0134     CD =  0.01196   =>   CDf =  0.00721    CDp =  0.00475

 Side 1  free  transition at x/c =  0.8888   69
 Side 2  free  transition at x/c =  0.0562   26

   6   rms: 0.8895E-01   max: -.4480E+00   D at   27  2
       a = -3.000      CL = -0.1769
      Cm = -0.0215     CD =  0.01735   =>   CDf =  0.00610    CDp =  0.01126

 Side 1  free  transition at x/c =  0.8770   68
 Side 2  free  transition at x/c =  0.0550   26

   7   rms: 0.1817E-01   max: -.1379E+00   T at   26  2
       a = -3.000      CL = -0.1714
      Cm = -0.0227     CD =  0.01720   =>   CDf =  0.00577    CDp =  0.01143

 Side 1  free  transition at x/c =  0.8796   68
 Side 2  free  transition at x/c =  0.0557   26

   8   rms: 0.3687E-02   max: -.1768E-01   D at   26  2
       a = -3.000      CL = -0.1715
      Cm = -0.0227     CD =  0.01721   =>   CDf =  0.00577    CDp =  0.01144

 Side 1  free  transition at x/c =  0.8796   68
 Side 2  free  transition at x/c =  0.0558   26

   9   rms: 0.4251E-04   max: -.1676E-03   D at   26  2
       a = -3.000      CL = -0.1716
      Cm = -0.0227     CD =  0.01721   =>   CDf =  0.00578    CDp =  0.01143
 plradd ia,ip,cpol            3           0  6.79411367E-03

 Point added to stored polar  1
 Point written to save file  v23010_Re500k.base.pol                          
 Dump file unspecified or not available
 Calculating wake trajectory ...
 Calculating source influence matrix ...

 Solving BL system ...

 Side 1  free  transition at x/c =  0.8795   68
 Side 2  free  transition at x/c =  0.0558   26

   1   rms: 0.1021E+00   max: 0.7532E+00   C at   68  1   RLX: 0.674
       a = -2.500      CL = -0.1370
      Cm = -0.0217     CD =  0.01616   =>   CDf =  0.00578    CDp =  0.01038

 Side 1  free  transition at x/c =  0.8396   66
 Side 2  free  transition at x/c =  0.0590   26

   2   rms: 0.5675E-01   max: -.9155E+00   T at   26  2   RLX: 0.546
       a = -2.500      CL = -0.1277
      Cm = -0.0208     CD =  0.01778   =>   CDf =  0.00589    CDp =  0.01189

 Side 1  free  transition at x/c =  0.8322   66
 Side 2  free  transition at x/c =  0.0611   26

   3   rms: 0.6767E-01   max: -.3425E+00   D at   31  2
       a = -2.500      CL = -0.1186
      Cm = -0.0204     CD =  0.01842   =>   CDf =  0.00595    CDp =  0.01247

 Side 1  free  transition at x/c =  0.8269   65
 Side 2  free  transition at x/c =  0.0617   27

   4   rms: 0.1107E+00   max: 0.4317E+00   D at   29  2
       a = -2.500      CL = -0.1202
      Cm = -0.0202     CD =  0.01856   =>   CDf =  0.00625    CDp =  0.01231

 Side 1  free  transition at x/c =  0.8256   65
 Side 2  free  transition at x/c =  0.0612   26

   5   rms: 0.7715E-01   max: 0.2864E+00   D at   27  2
       a = -2.500      CL = -0.1200
      Cm = -0.0203     CD =  0.01811   =>   CDf =  0.00621    CDp =  0.01190

 Side 1  free  transition at x/c =  0.8260   65
 Side 2  free  transition at x/c =  0.0614   26

   6   rms: 0.3979E-02   max: -.4899E-01   T at   26  2
       a = -2.500      CL = -0.1194
      Cm = -0.0204     CD =  0.01822   =>   CDf =  0.00620    CDp =  0.01202

 Side 1  free  transition at x/c =  0.8261   65
 Side 2  free  transition at x/c =  0.0613   26

   7   rms: 0.5876E-01   max: 0.2235E+00   D at   27  2
       a = -2.500      CL = -0.1198
      Cm = -0.0204     CD =  0.01816   =>   CDf =  0.00618    CDp =  0.01198

 Side 1  free  transition at x/c =  0.8260   65
 Side 2  free  transition at x/c =  0.0611   26

   8   rms: 0.6012E-01   max: 0.2269E+00   D at   27  2
       a = -2.500      CL = -0.1197
      Cm = -0.0204     CD =  0.01808   =>   CDf =  0.00616    CDp =  0.01192

 Side 1  free  transition at x/c =  0.8261   65
 Side 2  free  transition at x/c =  0.0611   26

   9   rms: 0.5588E-01   max: 0.2141E+00   T at   27  2
       a = -2.500      CL = -0.1196
      Cm = -0.0204     CD =  0.01805   =>   CDf =  0.00615    CDp =  0.01190

 Side 1  free  transition at x/c =  0.8261   65
 Side 2  free  transition at x/c =  0.0611   26

  10   rms: 0.5358E-01   max: 0.2088E+00   T at   27  2
       a = -2.500      CL = -0.1196
      Cm = -0.0204     CD =  0.01805   =>   CDf =  0.00614    CDp =  0.01190

 Side 1  free  transition at x/c =  0.8261   65
 Side 2  free  transition at x/c =  0.0611   26

  11   rms: 0.5300E-01   max: 0.2072E+00   T at   27  2
       a = -2.500      CL = -0.1196
      Cm = -0.0204     CD =  0.01805   =>   CDf =  0.00614    CDp =  0.01190

 Side 1  free  transition at x/c =  0.8261   65
 Side 2  free  transition at x/c =  0.0611   26

  12   rms: 0.5302E-01   max: 0.2071E+00   T at   27  2
       a = -2.500      CL = -0.1196
      Cm = -0.0204     CD =  0.01805   =>   CDf =  0.00614    CDp =  0.01190

 Side 1  free  transition at x/c =  0.8261   65
 Side 2  free  transition at x/c =  0.0611   26

  13   rms: 0.5311E-01   max: 0.2072E+00   T at   27  2
       a = -2.500      CL = -0.1196
      Cm = -0.0204     CD =  0.01805   =>   CDf =  0.00614    CDp =  0.01190

 Side 1  free  transition at x/c =  0.8261   65
 Side 2  free  transition at x/c =  0.0611   26

  14   rms: 0.5316E-01   max: 0.2074E+00   T at   27  2
       a = -2.500      CL = -0.1196
      Cm = -0.0204     CD =  0.01805   =>   CDf =  0.00614    CDp =  0.01190

 Side 1  free  transition at x/c =  0.8261   65
 Side 2  free  transition at x/c =  0.0611   26

  15   rms: 0.5317E-01   max: 0.2074E+00   T at   27  2
       a = -2.500      CL = -0.1196
      Cm = -0.0204     CD =  0.01805   =>   CDf =  0.00614    CDp =  0.01190

 Side 1  free  transition at x/c =  0.8261   65
 Side 2  free  transition at x/c =  0.0611   26

  16   rms: 0.5315E-01   max: 0.2073E+00   T at   27  2
       a = -2.500      CL = -0.1196
      Cm = -0.0204     CD =  0.01805   =>   CDf =  0.00614    CDp =  0.01190

 Side 1  free  transition at x/c =  0.8261   65
 Side 2  free  transition at x/c =  0.0611   26

  17   rms: 0.5316E-01   max: 0.2074E+00   T at   27  2
       a = -2.500      CL = -0.1196
[...]
 Calculating wake trajectory ...
 Calculating source influence matrix ...

 Solving BL system ...

 Side 1  free  transition at x/c =  0.0332   32
 Side 2 forced transition at x/c =  1.0000   66

   1   rms: 0.4289E-01   max: 0.1296E+00   D at   87  1
       a = 12.750      CL =  1.3268
      Cm =  0.0211     CD =  0.02518   =>   CDf =  0.00582    CDp =  0.01935

 Side 1  free  transition at x/c =  0.0321   32
 Side 2 forced transition at x/c =  1.0000   65

   2   rms: 0.1750E-01   max: -.1399E+00   D at   32  1
       a = 12.750      CL =  1.3328
      Cm =  0.0203     CD =  0.02469   =>   CDf =  0.00605    CDp =  0.01864

 Side 1  free  transition at x/c =  0.0322   32
 Side 2 forced transition at x/c =  1.0000   65

   3   rms: 0.9855E-03   max: -.8159E-02   D at    4  1
       a = 12.750      CL =  1.3334
      Cm =  0.0202     CD =  0.02472   =>   CDf =  0.00607    CDp =  0.01865

 Side 1  free  transition at x/c =  0.0321   32
 Side 2 forced transition at x/c =  1.0000   65

   4   rms: 0.1700E-04   max: 0.9260E-04   D at   94  1
       a = 12.750      CL =  1.3334
      Cm =  0.0202     CD =  0.02472   =>   CDf =  0.00607    CDp =  0.01865
 plradd ia,ip,cpol           39           0  1.74672506E-03

 Point added to stored polar  1
 Point written to save file  v23010_Re500k.base.pol                          
 Dump file unspecified or not available
 Calculating wake trajectory ...
 Calculating source influence matrix ...

 Solving BL system ...

 Side 1  free  transition at x/c =  0.0321   32
 Side 2 forced transition at x/c =  1.0000   65

   1   rms: 0.3385E-01   max: 0.1254E+00   T at   32  1
       a = 13.000      CL =  1.3427
      Cm =  0.0223     CD =  0.02560   =>   CDf =  0.00607    CDp =  0.01953

 Side 1  free  transition at x/c =  0.0312   32
 Side 2 forced transition at x/c =  1.0000   65

   2   rms: 0.3064E-02   max: 0.2382E-01   D at   93  1
       a = 13.000      CL =  1.3405
      Cm =  0.0225     CD =  0.02567   =>   CDf =  0.00597    CDp =  0.01970

 Side 1  free  transition at x/c =  0.0312   32
 Side 2 forced transition at x/c =  1.0000   65

   3   rms: 0.6809E-04   max: 0.1235E-02   D at   92  1
       a = 13.000      CL =  1.3405
      Cm =  0.0225     CD =  0.02567   =>   CDf =  0.00597    CDp =  0.01970
 plradd ia,ip,cpol           40           0  9.69545974E-04

 Point added to stored polar  1
 Point written to save file  v23010_Re500k.base.pol                          
 Dump file unspecified or not available
 Calculating wake trajectory ...
 Calculating source influence matrix ...

 Solving BL system ...

 Side 1  free  transition at x/c =  0.0312   32
 Side 2 forced transition at x/c =  1.0000   65

   1   rms: 0.3497E-01   max: 0.1161E+00   T at   32  1
       a = 13.250      CL =  1.3466
      Cm =  0.0246     CD =  0.02682   =>   CDf =  0.00597    CDp =  0.02085

 Side 1  free  transition at x/c =  0.0302   32
 Side 2 forced transition at x/c =  1.0000   65

   2   rms: 0.3438E-02   max: 0.2857E-01   D at   91  1
       a = 13.250      CL =  1.3444
      Cm =  0.0246     CD =  0.02688   =>   CDf =  0.00588    CDp =  0.02100

 Side 1  free  transition at x/c =  0.0302   32
 Side 2 forced transition at x/c =  1.0000   65

   3   rms: 0.8071E-04   max: 0.1475E-02   D at   90  1
       a = 13.250      CL =  1.3445
      Cm =  0.0246     CD =  0.02688   =>   CDf =  0.00588    CDp =  0.02100
 plradd ia,ip,cpol           41           0  9.69545974E-04

 Point added to stored polar  1
 Point written to save file  v23010_Re500k.base.pol                          
 Dump file unspecified or not available
 Calculating wake trajectory ...
 Calculating source influence matrix ...

 Solving BL system ...

 Side 1  free  transition at x/c =  0.0302   32
 Side 2 forced transition at x/c =  1.0000   65

   1   rms: 0.3657E-01   max: 0.1055E+00   D at   84  1
       a = 13.500      CL =  1.3484
      Cm =  0.0265     CD =  0.02829   =>   CDf =  0.00588    CDp =  0.02241

 Side 1  free  transition at x/c =  0.0294   32
 Side 2 forced transition at x/c =  1.0000   65

   2   rms: 0.4083E-02   max: 0.3500E-01   D at   89  1
       a = 13.500      CL =  1.3462
      Cm =  0.0265     CD =  0.02835   =>   CDf =  0.00579    CDp =  0.02256

 Side 1  free  transition at x/c =  0.0295   32
 Side 2 forced transition at x/c =  1.0000   65

   3   rms: 0.1253E-03   max: 0.2128E-02   D at   87  1
       a = 13.500      CL =  1.3463
      Cm =  0.0265     CD =  0.02835   =>   CDf =  0.00579    CDp =  0.02256

 Side 1  free  transition at x/c =  0.0295   32
 Side 2 forced transition at x/c =  1.0000   65

   4   rms: 0.2609E-05   max: -.2081E-04   C at   65  2
       a = 13.500      CL =  1.3463
      Cm =  0.0265     CD =  0.02835   =>   CDf =  0.00579    CDp =  0.02256
 plradd ia,ip,cpol           42           0  9.69545974E-04

 Point added to stored polar  1
 Point written to save file  v23010_Re500k.base.pol                          
 Dump file unspecified or not available
 Calculating wake trajectory ...
 Calculating source influence matrix ...

 Solving BL system ...

 Side 1  free  transition at x/c =  0.0295   32
 Side 2 forced transition at x/c =  1.0000   65

   1   rms: 0.3854E-01   max: 0.1171E+00   D at   83  1
       a = 13.750      CL =  1.3489
      Cm =  0.0280     CD =  0.03004   =>   CDf =  0.00579    CDp =  0.02425

 Side 1  free  transition at x/c =  0.0287   32
 Side 2 forced transition at x/c =  1.0000   65

   2   rms: 0.4998E-02   max: 0.4150E-01   D at   86  1
       a = 13.750      CL =  1.3461
      Cm =  0.0280     CD =  0.03015   =>   CDf =  0.00571    CDp =  0.02444

 Side 1  free  transition at x/c =  0.0288   32
 Side 2 forced transition at x/c =  1.0000   65

   3   rms: 0.1482E-03   max: 0.2839E-02   D at   84  1
       a = 13.750      CL =  1.3460
      Cm =  0.0280     CD =  0.03014   =>   CDf =  0.00570    CDp =  0.02444

 Side 1  free  transition at x/c =  0.0288   32
 Side 2 forced transition at x/c =  1.0000   65

   4   rms: 0.3540E-05   max: 0.3161E-04   D at   84  1
       a = 13.750      CL =  1.3460
      Cm =  0.0280     CD =  0.03014   =>   CDf =  0.00570    CDp =  0.02444
 plradd ia,ip,cpol           43           0  9.69545974E-04

 Point added to stored polar  1
 Point written to save file  v23010_Re500k.base.pol                          
 Dump file unspecified or not available
 Calculating wake trajectory ...
 Calculating source influence matrix ...

 Solving BL system ...

 Side 1  free  transition at x/c =  0.0288   32
 Side 2 forced transition at x/c =  1.0000   65

   1   rms: 0.4275E-01   max: 0.1409E+00   D at   82  1
       a = 14.000      CL =  1.3451
      Cm =  0.0290     CD =  0.03239   =>   CDf =  0.00570    CDp =  0.02669

 Side 1  free  transition at x/c =  0.0281   32
 Side 2 forced transition at x/c =  1.0000   65

   2   rms: 0.7996E-02   max: 0.5674E-01   D at   83  1
       a = 14.000      CL =  1.3408
      Cm =  0.0289     CD =  0.03264   =>   CDf =  0.00563    CDp =  0.02702

 Side 1  free  transition at x/c =  0.0281   32
 Side 2 forced transition at x/c =  1.0000   65

   3   rms: 0.4128E-03   max: 0.6363E-02   D at   81  1
       a = 14.000      CL =  1.3407
      Cm =  0.0289     CD =  0.03262   =>   CDf =  0.00561    CDp =  0.02700

 Side 1  free  transition at x/c =  0.0281   32
 Side 2 forced transition at x/c =  1.0000   65

   4   rms: 0.1197E-04   max: 0.6453E-04   D at   80  1
       a = 14.000      CL =  1.3407
      Cm =  0.0289     CD =  0.03261   =>   CDf =  0.00561    CDp =  0.02700
 plradd ia,ip,cpol           44           0  9.69545974E-04

 Point added to stored polar  1
 Point written to save file  v23010_Re500k.base.pol                          
 Dump file unspecified or not available
 Calculating wake trajectory ...
 Calculating source influence matrix ...

 Solving BL system ...

 Side 1  free  transition at x/c =  0.0281   32
 Side 2 forced transition at x/c =  1.0000   65

   1   rms: 0.5044E-01   max: 0.1767E+00   D at   78  1
       a = 14.250      CL =  1.3346
      Cm =  0.0291     CD =  0.03580   =>   CDf =  0.00522    CDp =  0.03058

 Side 1  free  transition at x/c =  0.0275   33
 Side 2 forced transition at x/c =  1.0000   64

   2   rms: 0.1040E-01   max: 0.7120E-01   D at   79  1
       a = 14.250      CL =  1.3295
      Cm =  0.0289     CD =  0.03611   =>   CDf =  0.00552    CDp =  0.03059

 Side 1  free  transition at x/c =  0.0275   33
 Side 2 forced transition at x/c =  1.0000   64

   3   rms: 0.8637E-03   max: -.9225E-02   D at    4  1
       a = 14.250      CL =  1.3293
      Cm =  0.0289     CD =  0.03604   =>   CDf =  0.00550    CDp =  0.03053

 Side 1  free  transition at x/c =  0.0275   33
 Side 2 forced transition at x/c =  1.0000   64

   4   rms: 0.8140E-05   max: 0.4581E-04   D at   73  2
       a = 14.250      CL =  1.3293
      Cm =  0.0289     CD =  0.03604   =>   CDf =  0.00550    CDp =  0.03053
 plradd ia,ip,cpol           45           0  9.69545974E-04

 Point added to stored polar  1
 Point written to save file  v23010_Re500k.base.pol                          
 Dump file unspecified or not available
 Calculating wake trajectory ...
 Calculating source influence matrix ...

 Solving BL system ...

 Side 1  free  transition at x/c =  0.0275   33
 Side 2 forced transition at x/c =  1.0000   64

   1   rms: 0.5748E-01   max: 0.2119E+00   D at   75  1   RLX: 0.990
       a = 14.500      CL =  1.3191
      Cm =  0.0282     CD =  0.04029   =>   CDf =  0.00551    CDp =  0.03479

 Side 1  free  transition at x/c =  0.0271   32
 Side 2 forced transition at x/c =  1.0000   64

   2   rms: 0.6998E-02   max: -.6286E-01   D at   32  1
       a = 14.500      CL =  1.3208
      Cm =  0.0283     CD =  0.03958   =>   CDf =  0.00539    CDp =  0.03420

 Side 1  free  transition at x/c =  0.0271   32
 Side 2 forced transition at x/c =  1.0000   64

   3   rms: 0.1302E-02   max: -.6115E-02   D at   76  1
       a = 14.500      CL =  1.3216
      Cm =  0.0283     CD =  0.03951   =>   CDf =  0.00538    CDp =  0.03412

 Side 1  free  transition at x/c =  0.0271   32
 Side 2 forced transition at x/c =  1.0000   64

   4   rms: 0.9903E-04   max: -.4550E-03   D at   74  2
       a = 14.500      CL =  1.3217
      Cm =  0.0283     CD =  0.03951   =>   CDf =  0.00538    CDp =  0.03413
 plradd ia,ip,cpol           46           0  9.69545974E-04

 Point added to stored polar  1
 Point written to save file  v23010_Re500k.base.pol                          
 Dump file unspecified or not available
 Calculating wake trajectory ...
 Calculating source influence matrix ...

 Solving BL system ...

 Side 1  free  transition at x/c =  0.0271   32
 Side 2 forced transition at x/c =  1.0000   64

   1   rms: 0.4072E-01   max: 0.1333E+00   D at   73  1   RLX: 0.948
       a = 14.750      CL =  1.3253
      Cm =  0.0273     CD =  0.04237   =>   CDf =  0.00538    CDp =  0.03698

 Side 1  free  transition at x/c =  0.0266   32
 Side 2 forced transition at x/c =  1.0000   64

   2   rms: 0.8978E-02   max: 0.5625E-01   D at   73  1
       a = 14.750      CL =  1.3208
      Cm =  0.0272     CD =  0.04270   =>   CDf =  0.00525    CDp =  0.03744

 Side 1  free  transition at x/c =  0.0267   32
 Side 2 forced transition at x/c =  1.0000   64

   3   rms: 0.8811E-03   max: 0.5896E-02   D at   72  1
       a = 14.750      CL =  1.3202
      Cm =  0.0273     CD =  0.04264   =>   CDf =  0.00524    CDp =  0.03740

 Side 1  free  transition at x/c =  0.0267   32
 Side 2 forced transition at x/c =  1.0000   64

   4   rms: 0.5289E-04   max: 0.2540E-03   D at   75  2
       a = 14.750      CL =  1.3202
      Cm =  0.0273     CD =  0.04264   =>   CDf =  0.00524    CDp =  0.03740
 plradd ia,ip,cpol           47           0  9.69545974E-04

 Point added to stored polar  1
 Point written to save file  v23010_Re500k.base.pol                          
 Dump file unspecified or not available
 Calculating wake trajectory ...
 Calculating source influence matrix ...

 Solving BL system ...

 Side 1  free  transition at x/c =  0.0267   32
 Side 2 forced transition at x/c =  1.0000   64

   1   rms: 0.4412E-01   max: 0.1577E+00   D at   70  1   RLX: 0.892
       a = 15.000      CL =  1.3206
      Cm =  0.0258     CD =  0.04605   =>   CDf =  0.00524    CDp =  0.04081

 Side 1  free  transition at x/c =  0.0261   32
 Side 2 forced transition at x/c =  1.0000   64

   2   rms: 0.1099E-01   max: 0.6741E-01   D at   70  1
       a = 15.000      CL =  1.3160
      Cm =  0.0256     CD =  0.04655   =>   CDf =  0.00512    CDp =  0.04143

 Side 1  free  transition at x/c =  0.0262   32
 Side 2 forced transition at x/c =  1.0000   64

   3   rms: 0.1247E-02   max: 0.1027E-01   D at   69  1
       a = 15.000      CL =  1.3152
      Cm =  0.0257     CD =  0.04647   =>   CDf =  0.00510    CDp =  0.04137

 Side 1  free  transition at x/c =  0.0262   32
 Side 2 forced transition at x/c =  1.0000   64

   4   rms: 0.8131E-04   max: 0.5759E-03   D at   75  2
       a = 15.000      CL =  1.3151
      Cm =  0.0257     CD =  0.04646   =>   CDf =  0.00510    CDp =  0.04136
 plradd ia,ip,cpol           48           0  9.69545974E-04

 Point added to stored polar  1
 Point written to save file  v23010_Re500k.base.pol                          
 Dump file unspecified or not available
 Calculating wake trajectory ...
 Calculating source influence matrix ...

 Solving BL system ...

 Side 1  free  transition at x/c =  0.0262   32
 Side 2 forced transition at x/c =  1.0000   64

   1   rms: 0.4530E-01   max: 0.1715E+00   D at   67  1   RLX: 0.838
       a = 15.250      CL =  1.3137
      Cm =  0.0239     CD =  0.05023   =>   CDf =  0.00511    CDp =  0.04513

 Side 1  free  transition at x/c =  0.0258   32
 Side 2 forced transition at x/c =  1.0000   64

   2   rms: 0.1362E-01   max: 0.7600E-01   D at   67  1
       a = 15.250      CL =  1.3086
      Cm =  0.0236     CD =  0.05098   =>   CDf =  0.00500    CDp =  0.04598

 Side 1  free  transition at x/c =  0.0258   32
 Side 2 forced transition at x/c =  1.0000   64

   3   rms: 0.2201E-02   max: 0.1495E-01   D at   66  1
       a = 15.250      CL =  1.3071
      Cm =  0.0237     CD =  0.05089   =>   CDf =  0.00497    CDp =  0.04592

 Side 1  free  transition at x/c =  0.0259   32
 Side 2 forced transition at x/c =  1.0000   64

   4   rms: 0.1932E-03   max: 0.8595E-03   D at   76  2
       a = 15.250      CL =  1.3069
      Cm =  0.0237     CD =  0.05087   =>   CDf =  0.00497    CDp =  0.04590

 Side 1  free  transition at x/c =  0.0259   32
 Side 2 forced transition at x/c =  1.0000   64

   5   rms: 0.8932E-05   max: -.9466E-04   C at   64  2
       a = 15.250      CL =  1.3069
      Cm =  0.0237     CD =  0.05087   =>   CDf =  0.00497    CDp =  0.04590
 plradd ia,ip,cpol           49           0  9.69545974E-04

 Point added to stored polar  1
 Point written to save file  v23010_Re500k.base.pol                          
 Dump file unspecified or not available
 Calculating wake trajectory ...
 Calculating source influence matrix ...

 Solving BL system ...

 Side 1  free  transition at x/c =  0.0259   32
 Side 2 forced transition at x/c =  1.0000   64

   1   rms: 0.4522E-01   max: 0.1766E+00   D at   65  1   RLX: 0.789
       a = 15.500      CL =  1.3051
      Cm =  0.0217     CD =  0.05478   =>   CDf =  0.00497    CDp =  0.04981

 Side 1  free  transition at x/c =  0.0254   32
 Side 2 forced transition at x/c =  1.0000   64

   2   rms: 0.1588E-01   max: 0.8574E-01   D at   65  1
       a = 15.500      CL =  1.2994
      Cm =  0.0212     CD =  0.05586   =>   CDf =  0.00488    CDp =  0.05098

 Side 1  free  transition at x/c =  0.0255   32
 Side 2 forced transition at x/c =  1.0000   64

   3   rms: 0.2616E-02   max: 0.1363E-01   D at   63  1
       a = 15.500      CL =  1.2976
      Cm =  0.0213     CD =  0.05571   =>   CDf =  0.00485    CDp =  0.05086

 Side 1  free  transition at x/c =  0.0255   32
 Side 2 forced transition at x/c =  1.0000   64

   4   rms: 0.2236E-03   max: 0.1640E-02   D at   76  2
       a = 15.500      CL =  1.2974
      Cm =  0.0213     CD =  0.05568   =>   CDf =  0.00485    CDp =  0.05084

 Side 1  free  transition at x/c =  0.0255   32
 Side 2 forced transition at x/c =  1.0000   64

   5   rms: 0.9782E-05   max: -.1138E-03   C at   64  2
       a = 15.500      CL =  1.2974
      Cm =  0.0213     CD =  0.05568   =>   CDf =  0.00485    CDp =  0.05083
 plradd ia,ip,cpol           50           0  9.69545974E-04

 Point added to stored polar  1
 Point written to save file  v23010_Re500k.base.pol                          
 Dump file unspecified or not available
 Calculating wake trajectory ...
 Calculating source influence matrix ...

 Solving BL system ...

 Side 1  free  transition at x/c =  0.0255   32
 Side 2 forced transition at x/c =  1.0000   64

   1   rms: 0.4431E-01   max: 0.1783E+00   D at   62  1   RLX: 0.744
       a = 15.750      CL =  1.2955
      Cm =  0.0192     CD =  0.05966   =>   CDf =  0.00485    CDp =  0.05481

 Side 1  free  transition at x/c =  0.0250   32
 Side 2 forced transition at x/c =  1.0000   64

   2   rms: 0.1688E-01   max: 0.8836E-01   D at   62  1
       a = 15.750      CL =  1.2896
      Cm =  0.0186     CD =  0.06096   =>   CDf =  0.00477    CDp =  0.05620

 Side 1  free  transition at x/c =  0.0250   32
 Side 2 forced transition at x/c =  1.0000   64

   3   rms: 0.3133E-02   max: 0.1647E-01   D at   61  1
       a = 15.750      CL =  1.2874
      Cm =  0.0188     CD =  0.06078   =>   CDf =  0.00473    CDp =  0.05604

 Side 1  free  transition at x/c =  0.0251   32
 Side 2 forced transition at x/c =  1.0000   64

   4   rms: 0.2655E-03   max: -.1349E-02   C at   64  2
       a = 15.750      CL =  1.2872
      Cm =  0.0188     CD =  0.06074   =>   CDf =  0.00473    CDp =  0.05601

 Side 1  free  transition at x/c =  0.0251   32
 Side 2 forced transition at x/c =  1.0000   64

   5   rms: 0.1307E-04   max: -.1370E-03   C at   64  2
       a = 15.750      CL =  1.2872
      Cm =  0.0188     CD =  0.06073   =>   CDf =  0.00473    CDp =  0.05601
 plradd ia,ip,cpol           51           0  9.69545974E-04

 Point added to stored polar  1
 Point written to save file  v23010_Re500k.base.pol                          
 Dump file unspecified or not available
 Calculating wake trajectory ...
 Calculating source influence matrix ...

 Solving BL system ...

 Side 1  free  transition at x/c =  0.0251   32
 Side 2 forced transition at x/c =  1.0000   64

   1   rms: 0.4492E-01   max: 0.1840E+00   D at   60  1   RLX: 0.701
       a = 16.000      CL =  1.2834
      Cm =  0.0167     CD =  0.06491   =>   CDf =  0.00473    CDp =  0.06018

 Side 1  free  transition at x/c =  0.0248   32
 Side 2 forced transition at x/c =  1.0000   64

   2   rms: 0.1809E-01   max: 0.8772E-01   D at   59  1
       a = 16.000      CL =  1.2770
      Cm =  0.0160     CD =  0.06649   =>   CDf =  0.00466    CDp =  0.06183

 Side 1  free  transition at x/c =  0.0248   32
 Side 2 forced transition at x/c =  1.0000   64

   3   rms: 0.3606E-02   max: 0.1491E-01   D at   77  2
       a = 16.000      CL =  1.2745
      Cm =  0.0161     CD =  0.06625   =>   CDf =  0.00462    CDp =  0.06163

 Side 1  free  transition at x/c =  0.0248   32
 Side 2 forced transition at x/c =  1.0000   64

   4   rms: 0.3350E-03   max: 0.2403E-02   D at   77  2
       a = 16.000      CL =  1.2742
      Cm =  0.0161     CD =  0.06619   =>   CDf =  0.00462    CDp =  0.06158

 Side 1  free  transition at x/c =  0.0248   32
 Side 2 forced transition at x/c =  1.0000   64

   5   rms: 0.1566E-04   max: -.1284E-03   C at   64  2
       a = 16.000      CL =  1.2742
      Cm =  0.0161     CD =  0.06619   =>   CDf =  0.00462    CDp =  0.06157
 plradd ia,ip,cpol           52           0  9.69545974E-04

 Point added to stored polar  1
 Point written to save file  v23010_Re500k.base.pol                          
 Dump file unspecified or not available

.OPERva   c>  
 Polar accumulation disabled

.OPERv   c>  
 XFOIL   c>  
 XFOIL   c>  