
 ===================================================
  XFOIL Version 6.99
  Copyright (C) 2000   Mark Drela, Harold Youngren

  This software comes with ABSOLUTELY NO WARRANTY,
    subject to the GNU General Public License.

  Caveat computor
 ===================================================

 File  xfoil.def  not found

   QUIT    Exit program

  .OPER    Direct operating point(s)
  .MDES    Complex mapping design routine
  .QDES    Surface speed design routine
  .GDES    Geometry design routine

   SAVE f  Write airfoil to labeled coordinate file
   PSAV f  Write airfoil to plain coordinate file
   ISAV f  Write airfoil to ISES coordinate file
   MSAV f  Write airfoil to MSES coordinate file
   REVE    Reverse written-airfoil node ordering

   LOAD f  Read buffer airfoil from coordinate file
   NACA i  Set NACA 4,5-digit airfoil and buffer airfoil
   INTE    Set buffer airfoil by interpolating two airfoils
   NORM    Buffer airfoil normalization toggle
   XYCM rr Change CM reference location, currently  0.25000 0.00000

   BEND    Display structural properties of current airfoil

   PCOP    Set current-airfoil panel nodes directly from buffer airfoil points
   PANE    Set current-airfoil panel nodes ( 160 ) based on curvature
  .PPAR    Show/change paneling

  .PLOP    Plotting options

   WDEF f  Write  current-settings file
   RDEF f  Reread current-settings file
   NAME s  Specify new airfoil name
   NINC    Increment name version number

   Z       Zoom    | (available in all menus)
   U       Unzoom  | 

 XFOIL   c>  
 Labeled airfoil file.  Name:    BOEING VERTOL V43012-1.58 AIRFOIL             

 Number of input coordinate points:  73
 Counterclockwise ordering
 Max thickness =     0.120371  at x =   0.319
 Max camber    =     0.030628  at x =   0.149

  LE  x,y  =  -0.00181   0.00720  |   Chord =   1.00183
  TE  x,y  =   1.00000   0.00000  |

 Current airfoil nodes set from buffer airfoil nodes (  73 )

 WARNING: Poor input coordinate distribution
          Excessive panel angle   69.7  at i =  37
          Repaneling with PANE and/or PPAR suggested
           (doing GDES,CADD before repaneling _may_
            improve excessively coarse LE spacing

 XFOIL   c>  
 XFOIL   c>  
 Sharp trailing edge

 Paneling parameters used...
   Number of panel nodes       160
   Panel bunching parameter    1.000
   TE/LE panel density ratio   0.150
   Refined-area/LE panel density ratio    0.200
   Top    side refined area x/c limits  1.000 1.000
   Bottom side refined area x/c limits  1.000 1.000

 XFOIL   c>  
.OPERi   c>  
 Xtr/c     =  1.0000    top    side
 Xtr/c     =  1.0000    bottom side
 Ncrit     =    9.00   ( 0.070 % turb. level )
 Vacc      =  0.0100

 Klag  =  5.6000     Uxwt  =    1.00
 A     =  6.7000     B     =  0.7500       KCt = 0.01485
 CtiniK=  1.8000     CtiniX=  3.3000

..VPAR   c>  
..VPAR   c>  
.OPERi   c>  
 M  =    0.0000
 Re =    300000

.OPERv   c>  
.OPERv   c>  
.OPERv   c>  
 Polar  1 newly created for accumulation
 Airfoil archived with polar: BOEING VERTOL V43012-1.58 AIRFOIL               

Enter  polar save filename  OR  <return> for no file   s>  
 New polar save file available

Enter  polar dump filename  OR  <return> for no file   s>  
 Polar dump file will NOT be written

 Polar accumulation enabled

.OPERva   c>   Calculating unit vorticity distributions ...
 Calculating wake trajectory ...
 Calculating source influence matrix ...

 Solving BL system ...

 Initializing BL ...
    side            1  ...
 MRCHUE: Inverse mode at  44     Hk =   3.800
 MRCHUE: Inverse mode at  45     Hk =   4.398
 MRCHUE: Inverse mode at  46     Hk =   4.983
 MRCHUE: Inverse mode at  47     Hk =   5.552
 MRCHUE: Inverse mode at  48     Hk =   6.108
 MRCHUE: Inverse mode at  49     Hk =   6.652
 MRCHUE: Inverse mode at  50     Hk =   7.190
 MRCHUE: Inverse mode at  51     Hk =   7.725
 MRCHUE: Inverse mode at  52     Hk =   8.256
 MRCHUE: Inverse mode at  53     Hk =   6.581
 MRCHUE: Inverse mode at  54     Hk =   4.725
 MRCHUE: Inverse mode at  55     Hk =   3.440
 MRCHUE: Inverse mode at  56     Hk =   2.500
    side            2  ...
 MRCHUE: Inverse mode at  20     Hk =   3.800
 MRCHUE: Inverse mode at  21     Hk =   4.476
 MRCHUE: Convergence failed at  22  side 2    Res =  0.5172E+01
 MRCHUE: Convergence failed at  23  side 2    Res =  0.4017E+01
 MRCHUE: Inverse mode at  24     Hk =   5.224
 MRCHUE: Inverse mode at  25     Hk =   5.962
 MRCHUE: Inverse mode at  26     Hk =   6.711
 MRCHUE: Inverse mode at  27     Hk =   7.479
 MRCHUE: Inverse mode at  28     Hk =   8.279
 MRCHUE: Inverse mode at  29     Hk =   9.148
 MRCHUE: Inverse mode at  30     Hk =   5.770
 MRCHUE: Inverse mode at  31     Hk =   2.531
 MRCHUE: Inverse mode at  32     Hk =   2.500
 MRCHUE: Inverse mode at  33     Hk =   2.500
 MRCHUE: Inverse mode at  87     Hk =   2.500
 MRCHUE: Inverse mode at  88     Hk =   2.500

 MRCHDU: Convergence failed at  22  side 2    Res =  0.6013E+01
 MRCHDU: Convergence failed at  23  side 2    Res =  0.1121E+02
 MRCHDU: Convergence failed at  24  side 2    Res =  0.9218E+01
 MRCHDU: Convergence failed at  25  side 2    Res =  0.5540E+01
 MRCHDU: Convergence failed at  26  side 2    Res =  0.8017E+01
 MRCHDU: Convergence failed at  27  side 2    Res =  0.1954E+02
 MRCHDU: Convergence failed at  28  side 2    Res =  0.2557E+02
 MRCHDU: Convergence failed at  29  side 2    Res =  0.9194E+01
 MRCHDU: Convergence failed at  30  side 2    Res =  0.1015E+02
 MRCHDU: Convergence failed at  31  side 2    Res =  0.2071E+02
 MRCHDU: Convergence failed at  32  side 2    Res =  0.2471E+03
 MRCHDU: Convergence failed at  33  side 2    Res =  0.8659E+02
 MRCHDU: Convergence failed at  34  side 2    Res =  0.1718E+02
 MRCHDU: Convergence failed at  35  side 2    Res =  0.4566E+02
 MRCHDU: Convergence failed at  36  side 2    Res =  0.3464E+03
 MRCHDU: Convergence failed at  37  side 2    Res =  0.3258E+02
 MRCHDU: Convergence failed at  38  side 2    Res =  0.1683E+02
 MRCHDU: Convergence failed at  39  side 2    Res =  0.1516E+02
 MRCHDU: Convergence failed at  40  side 2    Res =  0.1414E+02
 MRCHDU: Convergence failed at  41  side 2    Res =  0.1074E+02
 MRCHDU: Convergence failed at  42  side 2    Res =  0.1088E+02
 MRCHDU: Convergence failed at  43  side 2    Res =  0.1270E+02
 MRCHDU: Convergence failed at  44  side 2    Res =  0.1340E+02
 MRCHDU: Convergence failed at  45  side 2    Res =  0.1357E+02
 MRCHDU: Convergence failed at  46  side 2    Res =  0.1433E+02
 MRCHDU: Convergence failed at  47  side 2    Res =  0.1510E+02
 MRCHDU: Convergence failed at  48  side 2    Res =  0.1625E+02
 MRCHDU: Convergence failed at  49  side 2    Res =  0.1781E+02
 MRCHDU: Convergence failed at  50  side 2    Res =  0.1968E+02
 MRCHDU: Convergence failed at  51  side 2    Res =  0.2441E+02
 MRCHDU: Convergence failed at  52  side 2    Res =  0.2612E+02
 MRCHDU: Convergence failed at  53  side 2    Res =  0.2660E+02
 MRCHDU: Convergence failed at  54  side 2    Res =  0.2909E+02
 MRCHDU: Convergence failed at  55  side 2    Res =  0.3029E+02
 MRCHDU: Convergence failed at  56  side 2    Res =  0.2990E+02
 MRCHDU: Convergence failed at  57  side 2    Res =  0.3023E+02
 MRCHDU: Convergence failed at  58  side 2    Res =  0.3141E+02
 MRCHDU: Convergence failed at  59  side 2    Res =  0.3319E+02
 MRCHDU: Convergence failed at  60  side 2    Res =  0.3648E+02
 MRCHDU: Convergence failed at  61  side 2    Res =  0.4024E+02
 MRCHDU: Convergence failed at  62  side 2    Res =  0.4393E+02
 MRCHDU: Convergence failed at  63  side 2    Res =  0.9346E+02
 MRCHDU: Convergence failed at  64  side 2    Res =  0.8107E+02
 MRCHDU: Convergence failed at  65  side 2    Res =  0.7204E+02
 MRCHDU: Convergence failed at  66  side 2    Res =  0.6410E+02
 MRCHDU: Convergence failed at  67  side 2    Res =  0.5738E+02
 MRCHDU: Convergence failed at  68  side 2    Res =  0.5203E+02
 MRCHDU: Convergence failed at  69  side 2    Res =  0.4697E+02
 MRCHDU: Convergence failed at  70  side 2    Res =  0.4291E+02
 MRCHDU: Convergence failed at  71  side 2    Res =  0.3968E+02
 MRCHDU: Convergence failed at  72  side 2    Res =  0.3717E+02
 MRCHDU: Convergence failed at  73  side 2    Res =  0.2186E+03
 MRCHDU: Convergence failed at  74  side 2    Res =  0.1979E+02
 MRCHDU: Convergence failed at  75  side 2    Res =  0.3090E+02
 MRCHDU: Convergence failed at  76  side 2    Res =  0.3509E+02
 MRCHDU: Convergence failed at  77  side 2    Res =  0.3862E+02
 MRCHDU: Convergence failed at  78  side 2    Res =  0.4388E+02
 MRCHDU: Convergence failed at  79  side 2    Res =  0.5754E+02
 MRCHDU: Convergence failed at  80  side 2    Res =  0.6503E+02
 MRCHDU: Convergence failed at  81  side 2    Res =  0.6976E+02
 MRCHDU: Convergence failed at  82  side 2    Res =  0.8353E+02
 MRCHDU: Convergence failed at  83  side 2    Res =  0.8703E+02
 MRCHDU: Convergence failed at  84  side 2    Res =  0.3464E+03
 MRCHDU: Convergence failed at  85  side 2    Res =  0.3400E+02
 MRCHDU: Convergence failed at  86  side 2    Res =  0.3920E+02
 MRCHDU: Convergence failed at  87  side 2    Res =  0.2549E+02
 MRCHDU: Convergence failed at  88  side 2    Res =  0.2475E+02
 Side 1  free  transition at x/c =  0.6571   53
 Side 2  free  transition at x/c =  0.0550   30

   1   rms: 0.1259E+01   max: -.1208E+01   U at   88  2   RLX: 0.261
       a = -4.000      CL = -2.1714
      Cm =  0.5287     CD =  0.00585   =>   CDf =  0.00336    CDp =  0.00249

 Side 1  free  transition at x/c =  0.6728   54
 Side 2  free  transition at x/c =  0.0544   30

   2   rms: 0.1584E+01   max: 0.2496E+02   C at   30  2   RLX: 0.060
       a = -4.000      CL = -1.9960
      Cm =  0.4822     CD =  0.00827   =>   CDf =  0.01708    CDp = -0.00881

 Side 1  free  transition at x/c =  0.6767   54
 Side 2  free  transition at x/c =  0.0476   29

   3   rms: 0.8979E+00   max: 0.3483E+01   T at   29  2   RLX: 0.216
       a = -4.000      CL = -1.5349
      Cm =  0.3517     CD =  0.00818   =>   CDf =  0.01635    CDp = -0.00818

 Side 1  free  transition at x/c =  0.6928   55
 Side 2  free  transition at x/c =  0.0431   28

   4   rms: 0.7319E+00   max: -.6403E+00   U at   88  2   RLX: 0.211
       a = -4.000      CL = -1.2057
      Cm =  0.2596     CD =  0.00837   =>   CDf =  0.01426    CDp = -0.00589

 Side 1  free  transition at x/c =  0.7082   56
 Side 2  free  transition at x/c =  0.0422   28

   5   rms: 0.6820E+00   max: -.3258E+01   T at   56  1   RLX: 0.153
       a = -4.000      CL = -1.0293
      Cm =  0.2107     CD =  0.00881   =>   CDf =  0.01279    CDp = -0.00398

 Side 1  free  transition at x/c =  0.7213   56
 Side 2  free  transition at x/c =  0.0422   28

   6   rms: 0.5919E+00   max: 0.1959E+01   D at   32  2   RLX: 0.282
       a = -4.000      CL = -0.7477
      Cm =  0.1337     CD =  0.01041   =>   CDf =  0.01189    CDp = -0.00147

 Side 1  free  transition at x/c =  0.7440   58
 Side 2  free  transition at x/c =  0.0437   28

   7   rms: 0.6737E+00   max: -.2980E+01   T at   28  2   RLX: 0.168
       a = -4.000      CL = -0.6440
      Cm =  0.1048     CD =  0.01316   =>   CDf =  0.01065    CDp =  0.00251

 Side 1  free  transition at x/c =  0.7551   58
 Side 2  free  transition at x/c =  0.0453   29

   8   rms: 0.5039E+00   max: 0.2607E+01   D at   31  2   RLX: 0.403
       a = -4.000      CL = -0.4158
      Cm =  0.0436     CD =  0.01269   =>   CDf =  0.01011    CDp =  0.00258

 Side 1  free  transition at x/c =  0.7893   61
 Side 2  free  transition at x/c =  0.0519   29

   9   rms: 0.3332E+02   max: -.3998E+03   T at   29  2   RLX: 0.001
       a = -4.000      CL = -0.4232
      Cm =  0.0419     CD =  0.01357   =>   CDf =  0.00859    CDp =  0.00497

 Side 1  free  transition at x/c =  0.7891   61
 Side 2  free  transition at x/c =  0.0556   29

  10   rms: 0.9699E+00   max: -.8948E+01   T at   29  2   RLX: 0.056
       a = -4.000      CL = -0.4082
      Cm =  0.0367     CD =  0.01536   =>   CDf =  0.00838    CDp =  0.00698

 Side 1  free  transition at x/c =  0.7918   61
 Side 2  free  transition at x/c =  0.0626   30

  11   rms: 0.1807E+01   max: 0.2199E+02   T at   30  2   RLX: 0.053
       a = -4.000      CL = -0.3886
      Cm =  0.0325     CD =  0.01214   =>   CDf =  0.00846    CDp =  0.00368

 MRCHDU: Convergence failed at  30  side 2    Res =  0.2132E+03
 MRCHDU: Convergence failed at  31  side 2    Res =  0.1705E+03
 MRCHDU: Convergence failed at  32  side 2    Res =  0.1472E+03
 MRCHDU: Convergence failed at  33  side 2    Res =  0.1524E+03
 MRCHDU: Convergence failed at  34  side 2    Res =  0.5458E+02
 MRCHDU: Convergence failed at  35  side 2    Res =  0.5384E+02
 MRCHDU: Convergence failed at  36  side 2    Res =  0.9296E+02
 MRCHDU: Convergence failed at  37  side 2    Res =  0.1236E+03
 MRCHDU: Convergence failed at  38  side 2    Res =  0.1680E+03
 MRCHDU: Convergence failed at  39  side 2    Res =  0.8374E+02
 MRCHDU: Convergence failed at  40  side 2    Res =  0.9329E+02
 MRCHDU: Convergence failed at  41  side 2    Res =  0.4362E+03
 MRCHDU: Convergence failed at  42  side 2    Res =  0.9653E+03
 MRCHDU: Convergence failed at  43  side 2    Res =  0.6182E+03
 MRCHDU: Convergence failed at  44  side 2    Res =  0.9474E+02
 MRCHDU: Convergence failed at  45  side 2    Res =  0.9199E+02
 MRCHDU: Convergence failed at  46  side 2    Res =  0.8932E+02
 MRCHDU: Convergence failed at  47  side 2    Res =  0.8611E+02
 MRCHDU: Convergence failed at  48  side 2    Res =  0.8254E+02
 MRCHDU: Convergence failed at  49  side 2    Res =  0.6985E+03
 MRCHDU: Convergence failed at  50  side 2    Res =  0.1340E+03
 MRCHDU: Convergence failed at  51  side 2    Res =  0.1461E+03
 MRCHDU: Convergence failed at  52  side 2    Res =  0.4292E+03
 MRCHDU: Convergence failed at  53  side 2    Res =  0.1983E+03
 MRCHDU: Convergence failed at  54  side 2    Res =  0.1220E+03
 MRCHDU: Convergence failed at  55  side 2    Res =  0.1257E+03
 MRCHDU: Convergence failed at  56  side 2    Res =  0.1326E+03
 MRCHDU: Convergence failed at  57  side 2    Res =  0.1518E+03
 MRCHDU: Convergence failed at  58  side 2    Res =  0.2079E+03
 MRCHDU: Convergence failed at  59  side 2    Res =  0.1415E+03
 MRCHDU: Convergence failed at  60  side 2    Res =  0.2248E+03
 MRCHDU: Convergence failed at  61  side 2    Res =  0.3166E+04
 MRCHDU: Convergence failed at  62  side 2    Res =  0.5394E+03
 MRCHDU: Convergence failed at  63  side 2    Res =  0.3136E+03
 MRCHDU: Convergence failed at  64  side 2    Res =  0.2300E+03
 MRCHDU: Convergence failed at  65  side 2    Res =  0.1392E+03
 MRCHDU: Convergence failed at  66  side 2    Res =  0.1142E+03
 MRCHDU: Convergence failed at  67  side 2    Res =  0.1031E+03
 MRCHDU: Convergence failed at  68  side 2    Res =  0.9284E+02
 MRCHDU: Convergence failed at  69  side 2    Res =  0.7430E+02
 MRCHDU: Convergence failed at  70  side 2    Res =  0.6623E+02
 MRCHDU: Convergence failed at  71  side 2    Res =  0.6058E+02
 MRCHDU: Convergence failed at  72  side 2    Res =  0.7804E+02
 MRCHDU: Convergence failed at  73  side 2    Res =  0.8136E+02
 MRCHDU: Convergence failed at  74  side 2    Res =  0.8024E+02
 MRCHDU: Convergence failed at  75  side 2    Res =  0.8858E+02
 MRCHDU: Convergence failed at  76  side 2    Res =  0.6830E+02
 MRCHDU: Convergence failed at  77  side 2    Res =  0.1475E+04
 MRCHDU: Convergence failed at  78  side 2    Res =  0.7136E+02
 MRCHDU: Convergence failed at  79  side 2    Res =  0.7751E+02
 MRCHDU: Convergence failed at  80  side 2    Res =  0.1376E+03
 MRCHDU: Convergence failed at  81  side 2    Res =  0.2027E+03
 MRCHDU: Convergence failed at  82  side 2    Res =  0.2129E+03
 MRCHDU: Convergence failed at  83  side 2    Res =  0.2974E+03
 MRCHDU: Convergence failed at  84  side 2    Res =  0.2897E+04
 MRCHDU: Convergence failed at  85  side 2    Res =  0.1029E+04
 MRCHDU: Convergence failed at  86  side 2    Res =  0.2723E+04
 MRCHDU: Convergence failed at  87  side 2    Res =  0.4971E+03
 Side 1  free  transition at x/c =  0.7966   62
 Side 2  free  transition at x/c =  0.0540   29

  12   rms: 0.1990E+01   max: -.2364E+02   T at   29  2   RLX: 0.021
       a = -4.000      CL = -1.5827
      Cm =  0.4096     CD =  0.00536   =>   CDf =  0.00278    CDp =  0.00258

 Side 1  free  transition at x/c =  0.7976   62
 Side 2  free  transition at x/c =  0.0563   29

  13   rms: 0.1804E+01   max: -.1123E+02   C at   62  1   RLX: 0.045
       a = -4.000      CL = -1.1703
      Cm =  0.2669     CD =  0.04644   =>   CDf =  0.00307    CDp =  0.04338

 Side 1  free  transition at x/c =  0.8107   63
 Side 2  free  transition at x/c =  0.0561   29

  14   rms: 0.1190E+01   max: -.8189E+01   C at   63  1   RLX: 0.061
       a = -4.000      CL = -1.1298
      Cm =  0.2520     CD =  0.05164   =>   CDf =  0.00316    CDp =  0.04848

 Side 1  free  transition at x/c =  0.8312   64
 Side 2  free  transition at x/c =  0.0563   29

  15   rms: 0.9614E+00   max: -.1002E+02   C at   64  1   RLX: 0.050
       a = -4.000      CL = -1.0875
      Cm =  0.2385     CD =  0.05710   =>   CDf =  0.00309    CDp =  0.05401

 Side 1  free  transition at x/c =  0.8438   64
 Side 2  free  transition at x/c =  0.0565   29

  16   rms: 0.8081E+00   max: -.3808E+01   T at   64  1   RLX: 0.131
       a = -4.000      CL = -0.9168
      Cm =  0.1915     CD =  0.05878   =>   CDf =  0.00315    CDp =  0.05562

 Side 1  free  transition at x/c =  0.9028   68
 Side 2  free  transition at x/c =  0.0568   29

  17   rms: 0.1226E+01   max: -.1611E+02   C at   68  1   RLX: 0.031
       a = -4.000      CL = -0.9270
      Cm =  0.1927     CD =  0.07218   =>   CDf =  0.00289    CDp =  0.06929

 Side 1  free  transition at x/c =  0.9102   68
 Side 2  free  transition at x/c =  0.0569   29

  18   rms: 0.1404E+01   max: -.1825E+02   C at   68  1   RLX: 0.027
       a = -4.000      CL = -0.9332
      Cm =  0.1931     CD =  0.07573   =>   CDf =  0.00273    CDp =  0.07300

 Side 1  free  transition at x/c =  0.9077   68
 Side 2  free  transition at x/c =  0.0570   29

  19   rms: 0.6543E+00   max: -.3552E+01   T at   68  1   RLX: 0.141
       a = -4.000      CL = -0.7646
      Cm =  0.1486     CD =  0.06904   =>   CDf =  0.00289    CDp =  0.06615

 Side 1 forced transition at x/c =  1.0000   75
 Side 2  free  transition at x/c =  0.0571   29

  20   rms: 0.4793E+00   max: -.1149E+01   D at   70  1   RLX: 0.435
       a = -4.000      CL = -0.4294
      Cm =  0.0603     CD =  0.06164   =>   CDf =  0.00266    CDp =  0.05898

 Side 1 forced transition at x/c =  1.0000   75
 Side 2  free  transition at x/c =  0.0573   29

  21   rms: 0.4032E+00   max: 0.1408E+01   C at   75  1   RLX: 0.421
       a = -4.000      CL = -0.2469
      Cm = -0.0114     CD =  0.05934   =>   CDf =  0.00296    CDp =  0.05638

 Side 1 forced transition at x/c =  1.0000   75
 Side 2  free  transition at x/c =  0.0575   29

  22   rms: 0.4912E+00   max: -.1533E+01   D at  104  2   RLX: 0.326
       a = -4.000      CL = -0.2117
      Cm = -0.0438     CD =  0.05797   =>   CDf =  0.00285    CDp =  0.05512

 Side 1 forced transition at x/c =  1.0000   75
 Side 2  free  transition at x/c =  0.0576   29
 idif Ue xi dudx           1  0.13485834      3.53920460E-03   38.104137    
 Uenew xinew           2  1.95866879E-02  5.14030457E-04

  23   rms: 0.4474E+00   max: -.1645E+01   D at   58  2   RLX: 0.304
       a = -4.000      CL = -0.1829
      Cm = -0.0598     CD =  0.04805   =>   CDf =  0.00318    CDp =  0.04488

 Side 1 forced transition at x/c =  1.0000   74
 Side 2  free  transition at x/c =  0.0706   32

  24   rms: 0.1053E+01   max: 0.5416E+01   T at   32  2   RLX: 0.277
       a = -4.000      CL = -0.2389
      Cm = -0.0461     CD =  0.03496   =>   CDf =  0.00585    CDp =  0.02912

 MRCHDU: Convergence failed at  35  side 2    Res =  0.1444E+01
 MRCHDU: Convergence failed at  36  side 2    Res =  0.2396E+02
 MRCHDU: Convergence failed at  37  side 2    Res =  0.1204E+02
 MRCHDU: Convergence failed at  38  side 2    Res =  0.9180E+01
 MRCHDU: Convergence failed at  39  side 2    Res =  0.7875E+01
 MRCHDU: Convergence failed at  40  side 2    Res =  0.7530E+01
 MRCHDU: Convergence failed at  41  side 2    Res =  0.7897E+01
 MRCHDU: Convergence failed at  42  side 2    Res =  0.7745E+01
 MRCHDU: Convergence failed at  43  side 2    Res =  0.7337E+01
 MRCHDU: Convergence failed at  44  side 2    Res =  0.6786E+01
 MRCHDU: Convergence failed at  45  side 2    Res =  0.6581E+01
 MRCHDU: Convergence failed at  46  side 2    Res =  0.6675E+01
 MRCHDU: Convergence failed at  47  side 2    Res =  0.6758E+01
 MRCHDU: Convergence failed at  48  side 2    Res =  0.6846E+01
 MRCHDU: Convergence failed at  49  side 2    Res =  0.6947E+01
 MRCHDU: Convergence failed at  50  side 2    Res =  0.7047E+01
 MRCHDU: Convergence failed at  51  side 2    Res =  0.7121E+01
 MRCHDU: Convergence failed at  52  side 2    Res =  0.7186E+01
 MRCHDU: Convergence failed at  53  side 2    Res =  0.7269E+01
 MRCHDU: Convergence failed at  54  side 2    Res =  0.7362E+01
 MRCHDU: Convergence failed at  55  side 2    Res =  0.7438E+01
 MRCHDU: Convergence failed at  56  side 2    Res =  0.7479E+01
 MRCHDU: Convergence failed at  57  side 2    Res =  0.7463E+01
 MRCHDU: Convergence failed at  58  side 2    Res =  0.7420E+01
 MRCHDU: Convergence failed at  59  side 2    Res =  0.7504E+01
 MRCHDU: Convergence failed at  60  side 2    Res =  0.1571E+02
 MRCHDU: Convergence failed at  61  side 2    Res =  0.1647E+02
 MRCHDU: Convergence failed at  62  side 2    Res =  0.1685E+02
 MRCHDU: Convergence failed at  63  side 2    Res =  0.1698E+02
 MRCHDU: Convergence failed at  64  side 2    Res =  0.1687E+02
 MRCHDU: Convergence failed at  65  side 2    Res =  0.1670E+02
 MRCHDU: Convergence failed at  66  side 2    Res =  0.1652E+02
 MRCHDU: Convergence failed at  67  side 2    Res =  0.1636E+02
 MRCHDU: Convergence failed at  68  side 2    Res =  0.1621E+02
 MRCHDU: Convergence failed at  69  side 2    Res =  0.1609E+02
 MRCHDU: Convergence failed at  70  side 2    Res =  0.1589E+02
 MRCHDU: Convergence failed at  71  side 2    Res =  0.1580E+02
 MRCHDU: Convergence failed at  72  side 2    Res =  0.1540E+02
 MRCHDU: Convergence failed at  73  side 2    Res =  0.1473E+02
 MRCHDU: Convergence failed at  74  side 2    Res =  0.1371E+02
 MRCHDU: Convergence failed at  75  side 2    Res =  0.1261E+02
 MRCHDU: Convergence failed at  76  side 2    Res =  0.1094E+02
 MRCHDU: Convergence failed at  77  side 2    Res =  0.1318E+02
 MRCHDU: Convergence failed at  78  side 2    Res =  0.1168E+02
 MRCHDU: Convergence failed at  79  side 2    Res =  0.1448E+02
 MRCHDU: Convergence failed at  80  side 2    Res =  0.1686E+02
 MRCHDU: Convergence failed at  81  side 2    Res =  0.1949E+02
 MRCHDU: Convergence failed at  82  side 2    Res =  0.2953E+02
 MRCHDU: Convergence failed at  83  side 2    Res =  0.3138E+02
 MRCHDU: Convergence failed at  84  side 2    Res =  0.4370E+02
 MRCHDU: Convergence failed at  85  side 2    Res =  0.6959E+02
 MRCHDU: Convergence failed at  86  side 2    Res =  0.1237E+03
 MRCHDU: Convergence failed at  87  side 2    Res =  0.6333E+03
 MRCHDU: Convergence failed at  88  side 2    Res =  0.2835E+03
 Side 1  free  transition at x/c =  0.9466   70
 Side 2  free  transition at x/c =  0.0580   31

  25   rms: 0.6070E+00   max: -.2551E+01   T at   31  2   RLX: 0.196
       a = -4.000      CL = -0.8966
      Cm =  0.1990     CD =  0.02349   =>   CDf =  0.00231    CDp =  0.02118

 Side 1  free  transition at x/c =  0.9438   70
 Side 2  free  transition at x/c =  0.0581   31

  26   rms: 0.4131E+00   max: 0.6693E+00   T at   89  2   RLX: 0.629
       a = -4.000      CL = -0.4151
      Cm =  0.0477     CD =  0.02153   =>   CDf =  0.00841    CDp =  0.01312

 Side 1  free  transition at x/c =  0.9017   68
 Side 2  free  transition at x/c =  0.0578   30

  27   rms: 0.2078E+00   max: -.7950E+00   T at   30  2   RLX: 0.629
       a = -4.000      CL = -0.2146
      Cm = -0.0099     CD =  0.02646   =>   CDf =  0.00622    CDp =  0.02024

 Side 1  free  transition at x/c =  0.9057   68
 Side 2  free  transition at x/c =  0.0582   30

  28   rms: 0.1165E+00   max: -.7062E+00   D at   30  2   RLX: 0.708
       a = -4.000      CL = -0.1438
      Cm = -0.0313     CD =  0.02832   =>   CDf =  0.00519    CDp =  0.02313

 Side 1  free  transition at x/c =  0.8947   67
 Side 2  free  transition at x/c =  0.0589   30

  29   rms: 0.7668E-01   max: -.5169E+00   D at   30  2   RLX: 0.967
       a = -4.000      CL = -0.1191
      Cm = -0.0386     CD =  0.02649   =>   CDf =  0.00518    CDp =  0.02131

 Side 1  free  transition at x/c =  0.8922   67
 Side 2  free  transition at x/c =  0.0599   30

  30   rms: 0.3273E-01   max: -.1745E+00   D at   30  2
       a = -4.000      CL = -0.1208
      Cm = -0.0384     CD =  0.02613   =>   CDf =  0.00528    CDp =  0.02084

 Side 1  free  transition at x/c =  0.8920   67
 Side 2  free  transition at x/c =  0.0607   30

  31   rms: 0.5122E-02   max: -.2690E-01   D at   30  2
       a = -4.000      CL = -0.1217
      Cm = -0.0382     CD =  0.02613   =>   CDf =  0.00539    CDp =  0.02074

 Side 1  free  transition at x/c =  0.8918   67
 Side 2  free  transition at x/c =  0.0608   30

  32   rms: 0.1366E-03   max: -.4453E-03   D at   36  2
       a = -4.000      CL = -0.1218
      Cm = -0.0382     CD =  0.02614   =>   CDf =  0.00541    CDp =  0.02073

 Side 1  free  transition at x/c =  0.8918   67
 Side 2  free  transition at x/c =  0.0608   30

  33   rms: 0.1955E-05   max: 0.1741E-04   T at   30  2
       a = -4.000      CL = -0.1218
      Cm = -0.0382     CD =  0.02614   =>   CDf =  0.00541    CDp =  0.02073
 plradd ia,ip,cpol            1           0  1.83831737E-03

 Point added to stored polar  1
 Point written to save file  v43012_Re300k.base.pol                          
 Dump file unspecified or not available
 Calculating wake trajectory ...
 Calculating source influence matrix ...

 Solving BL system ...

 Side 1  free  transition at x/c =  0.8918   67
 Side 2  free  transition at x/c =  0.0608   30

   1   rms: 0.9606E-01   max: -.8404E+00   T at   30  2   RLX: 0.595
       a = -3.500      CL = -0.0942
      Cm = -0.0370     CD =  0.02444   =>   CDf =  0.00535    CDp =  0.01910

 Side 1  free  transition at x/c =  0.8590   66
 Side 2  free  transition at x/c =  0.0636   29

   2   rms: 0.9239E-01   max: -.1097E+01   T at   29  2   RLX: 0.456
       a = -3.500      CL = -0.0813
      Cm = -0.0367     CD =  0.02610   =>   CDf =  0.00543    CDp =  0.02067

 Side 1  free  transition at x/c =  0.8531   66
 Side 2  free  transition at x/c =  0.0649   29

   3   rms: 0.6000E-01   max: -.5006E+00   T at   29  2   RLX: 0.999
       a = -3.500      CL = -0.0583
      Cm = -0.0370     CD =  0.02629   =>   CDf =  0.00549    CDp =  0.02080

 Side 1  free  transition at x/c =  0.8459   66
 Side 2  free  transition at x/c =  0.0655   29

   4   rms: 0.9191E-01   max: 0.3975E+00   D at   30  2
       a = -3.500      CL = -0.0610
      Cm = -0.0368     CD =  0.02636   =>   CDf =  0.00605    CDp =  0.02031

 Side 1  free  transition at x/c =  0.8460   66
 Side 2  free  transition at x/c =  0.0688   30

   5   rms: 0.1517E+00   max: 0.9896E+00   D at   35  2
       a = -3.500      CL = -0.0699
      Cm = -0.0364     CD =  0.02333   =>   CDf =  0.00666    CDp =  0.01667

 Side 1  free  transition at x/c =  0.8473   66
 Side 2  free  transition at x/c =  0.0690   30

   6   rms: 0.2496E-01   max: 0.3124E+00   D at   34  2
       a = -3.500      CL = -0.0656
      Cm = -0.0371     CD =  0.02360   =>   CDf =  0.00598    CDp =  0.01763

 Side 1  free  transition at x/c =  0.8473   66
 Side 2  free  transition at x/c =  0.0684   30

   7   rms: 0.1820E-02   max: 0.3476E-01   D at   34  2
       a = -3.500      CL = -0.0653
      Cm = -0.0372     CD =  0.02357   =>   CDf =  0.00598    CDp =  0.01759

 Side 1  free  transition at x/c =  0.8474   66
 Side 2  free  transition at x/c =  0.0685   30

   8   rms: 0.2167E-04   max: 0.2453E-03   D at   35  2
       a = -3.500      CL = -0.0653
      Cm = -0.0372     CD =  0.02357   =>   CDf =  0.00598    CDp =  0.01759
 plradd ia,ip,cpol            2           0  3.31662316E-03

 Point added to stored polar  1
 Point written to save file  v43012_Re300k.base.pol                          
 Dump file unspecified or not available
 Calculating wake trajectory ...
 Calculating source influence matrix ...

 Solving BL system ...

 Side 1  free  transition at x/c =  0.8474   66
 Side 2  free  transition at x/c =  0.0685   30

   1   rms: 0.1377E+00   max: -.8929E+00   T at   30  2   RLX: 0.560
       a = -3.000      CL = -0.0320
      Cm = -0.0379     CD =  0.02121   =>   CDf =  0.00598    CDp =  0.01523

 Side 1  free  transition at x/c =  0.8201   64
 Side 2  free  transition at x/c =  0.0709   30

   2   rms: 0.7611E-01   max: -.5184E+00   T at   30  2   RLX: 0.965
       a = -3.000      CL = -0.0167
      Cm = -0.0357     CD =  0.02124   =>   CDf =  0.00587    CDp =  0.01538

 Side 1  free  transition at x/c =  0.7896   62
 Side 2  free  transition at x/c =  0.0748   30

   3   rms: 0.1024E+00   max: -.1437E+01   T at   30  2   RLX: 0.348
       a = -3.000      CL = -0.0152
      Cm = -0.0348     CD =  0.02422   =>   CDf =  0.00614    CDp =  0.01809

 Side 1  free  transition at x/c =  0.7899   62
 Side 2  free  transition at x/c =  0.0741   30

   4   rms: 0.2873E-01   max: -.4931E+00   D at   30  2
       a = -3.000      CL = -0.0130
      Cm = -0.0354     CD =  0.02264   =>   CDf =  0.00623    CDp =  0.01640

 Side 1  free  transition at x/c =  0.7920   62
 Side 2  free  transition at x/c =  0.0758   30

   5   rms: 0.5598E+00   max: 0.4324E+01   T at   30  2   RLX: 0.147
       a = -3.000      CL = -0.0130
      Cm = -0.0363     CD =  0.01993   =>   CDf =  0.00636    CDp =  0.01357

 Side 1  free  transition at x/c =  0.7926   62
 Side 2  free  transition at x/c =  0.0732   30

   6   rms: 0.7846E-01   max: -.3982E+00   D at   31  2
       a = -3.000      CL = -0.0125
      Cm = -0.0358     CD =  0.02187   =>   CDf =  0.00589    CDp =  0.01597

 Side 1  free  transition at x/c =  0.7925   62
 Side 2  free  transition at x/c =  0.0765   30

   7   rms: 0.1199E+00   max: -.4757E+00   T at   31  2
       a = -3.000      CL = -0.0125
      Cm = -0.0363     CD =  0.02054   =>   CDf =  0.00620    CDp =  0.01435

 Side 1  free  transition at x/c =  0.7930   62
 Side 2  free  transition at x/c =  0.0755   30

   8   rms: 0.1108E+00   max: 0.5692E+00   T at   30  2
       a = -3.000      CL = -0.0151
      Cm = -0.0365     CD =  0.01978   =>   CDf =  0.00606    CDp =  0.01373

 Side 1  free  transition at x/c =  0.7925   62
 Side 2  free  transition at x/c =  0.0732   30

   9   rms: 0.7650E-01   max: -.4278E+00   T at   30  2
       a = -3.000      CL = -0.0123
      Cm = -0.0358     CD =  0.02176   =>   CDf =  0.00592    CDp =  0.01584

 Side 1  free  transition at x/c =  0.7927   62
 Side 2  free  transition at x/c =  0.0754   30

  10   rms: 0.4375E-01   max: -.3323E+00   D at   30  2
       a = -3.000      CL = -0.0109
      Cm = -0.0351     CD =  0.02355   =>   CDf =  0.00608    CDp =  0.01747

 Side 1  free  transition at x/c =  0.7915   62
 Side 2  free  transition at x/c =  0.0767   30

  11   rms: 0.1914E-01   max: -.1650E+00   D at   38  2
       a = -3.000      CL = -0.0132
      Cm = -0.0343     CD =  0.02450   =>   CDf =  0.00645    CDp =  0.01805

 Side 1  free  transition at x/c =  0.7912   62
 Side 2  free  transition at x/c =  0.0771   31

  12   rms: 0.6835E-01   max: 0.2108E+00   T at   31  2
       a = -3.000      CL = -0.0145
      Cm = -0.0340     CD =  0.02502   =>   CDf =  0.00671    CDp =  0.01831

 Side 1  free  transition at x/c =  0.7908   62
 Side 2  free  transition at x/c =  0.0768   30

  13   rms: 0.7573E-01   max: 0.2718E+00   D at   35  2
       a = -3.000      CL = -0.0157
      Cm = -0.0340     CD =  0.02442   =>   CDf =  0.00673    CDp =  0.01769

 Side 1  free  transition at x/c =  0.7913   62
 Side 2  free  transition at x/c =  0.0770   31

  14   rms: 0.2172E-01   max: 0.8854E-01   T at   31  2
       a = -3.000      CL = -0.0128
      Cm = -0.0343     CD =  0.02519   =>   CDf =  0.00663    CDp =  0.01856

 Side 1  free  transition at x/c =  0.7906   62
 Side 2  free  transition at x/c =  0.0769   30

  15   rms: 0.8663E-01   max: 0.3267E+00   D at   35  2
       a = -3.000      CL = -0.0160
      Cm = -0.0339     CD =  0.02445   =>   CDf =  0.00676    CDp =  0.01768

 Side 1  free  transition at x/c =  0.7913   62
 Side 2  free  transition at x/c =  0.0770   31

  16   rms: 0.2853E-01   max: 0.1067E+00   T at   31  2
       a = -3.000      CL = -0.0130
      Cm = -0.0342     CD =  0.02515   =>   CDf =  0.00664    CDp =  0.01851

 Side 1  free  transition at x/c =  0.7906   62
 Side 2  free  transition at x/c =  0.0769   30

  17   rms: 0.8217E-01   max: 0.3080E+00   D at   35  2
       a = -3.000      CL = -0.0159
      Cm = -0.0339     CD =  0.02445   =>   CDf =  0.00676    CDp =  0.01769

 Side 1  free  transition at x/c =  0.7913   62
 Side 2  free  transition at x/c =  0.0770   31

  18   rms: 0.2898E-01   max: 0.1075E+00   T at   31  2
       a = -3.000      CL = -0.0131
      Cm = -0.0342     CD =  0.02515   =>   CDf =  0.00664    CDp =  0.01850

 Side 1  free  transition at x/c =  0.7906   62
 Side 2  free  transition at x/c =  0.0769   30

  19   rms: 0.8213E-01   max: 0.3078E+00   D at   35  2
       a = -3.000      CL = -0.0159
      Cm = -0.0339     CD =  0.02445   =>   CDf =  0.00676    CDp =  0.01769

 Side 1  free  transition at x/c =  0.7913   62
 Side 2  free  transition at x/c =  0.0770   31

  20   rms: 0.2882E-01   max: 0.1071E+00   T at   31  2
       a = -3.000      CL = -0.0130
      Cm = -0.0342     CD =  0.02515   =>   CDf =  0.00664    CDp =  0.01851

 Side 1  free  transition at x/c =  0.7906   62
 Side 2  free  transition at x/c =  0.0769   30

  21   rms: 0.8221E-01   max: 0.3081E+00   D at   35  2
       a = -3.000      CL = -0.0159
      Cm = -0.0339     CD =  0.02445   =>   CDf =  0.00676    CDp =  0.01769

 Side 1  free  transition at x/c =  0.7913   62
 Side 2  free  transition at x/c =  0.0770   31

  22   rms: 0.2881E-01   max: 0.1071E+00   T at   31  2
       a = -3.000      CL = -0.0130
      Cm = -0.0342     CD =  0.02515   =>   CDf =  0.00664    CDp =  0.01851

 Side 1  free  transition at x/c =  0.7906   62
 Side 2  free  transition at x/c =  0.0769   30

  23   rms: 0.8221E-01   max: 0.3081E+00   D at   35  2
       a = -3.000      CL = -0.0159
      Cm = -0.0339     CD =  0.02445   =>   CDf =  0.00676    CDp =  0.01769

 Side 1  free  transition at x/c =  0.7913   62
 Side 2  free  transition at x/c =  0.0770   31

  24   rms: 0.2882E-01   max: 0.1071E+00   T at   31  2
       a = -3.000      CL = -0.0130
      Cm = -0.0342     CD =  0.02515   =>   CDf =  0.00664    CDp =  0.01851

 Side 1  free  transition at x/c =  0.7906   62
 Side 2  free  transition at x/c =  0.0769   30

  25   rms: 0.8220E-01   max: 0.3080E+00   D at   35  2
       a = -3.000      CL = -0.0159
      Cm = -0.0339     CD =  0.02445   =>   CDf =  0.00676    CDp =  0.01769

 Side 1  free  transition at x/c =  0.7913   62
 Side 2  free  transition at x/c =  0.0770   31

  26   rms: 0.2883E-01   max: 0.1071E+00   T at   31  2
       a = -3.000      CL = -0.0130
      Cm = -0.0342     CD =  0.02515   =>   CDf =  0.00664    CDp =  0.01850

 Side 1  free  transition at x/c =  0.7906   62
 Side 2  free  transition at x/c =  0.0769   30

  27   rms: 0.8218E-01   max: 0.3080E+00   D at   35  2
       a = -3.000      CL = -0.0159
      Cm = -0.0339     CD =  0.02445   =>   CDf =  0.00676    CDp =  0.01769

 Side 1  free  transition at x/c =  0.7913   62
 Side 2  free  transition at x/c =  0.0770   31

  28   rms: 0.2884E-01   max: 0.1072E+00   T at   31  2
       a = -3.000      CL = -0.0130
      Cm = -0.0342     CD =  0.02515   =>   CDf =  0.00664    CDp =  0.01850

 Side 1  free  transition at x/c =  0.7906   62
 Side 2  free  transition at x/c =  0.0769   30

  29   rms: 0.8219E-01   max: 0.3080E+00   D at   35  2
       a = -3.000      CL = -0.0159
      Cm = -0.0339     CD =  0.02445   =>   CDf =  0.00676    CDp =  0.01769

 Side 1  free  transition at x/c =  0.7913   62
 Side 2  free  transition at x/c =  0.0770   31

  30   rms: 0.2883E-01   max: 0.1071E+00   T at   31  2
       a = -3.000      CL = -0.0130
      Cm = -0.0342     CD =  0.02515   =>   CDf =  0.00664    CDp =  0.01851

 Side 1  free  transition at x/c =  0.7906   62
 Side 2  free  transition at x/c =  0.0769   30

  31   rms: 0.8220E-01   max: 0.3080E+00   D at   35  2
       a = -3.000      CL = -0.0159
      Cm = -0.0339     CD =  0.02445   =>   CDf =  0.00676    CDp =  0.01769

 Side 1  free  transition at x/c =  0.7913   62
 Side 2  free  transition at x/c =  0.0770   31

  32   rms: 0.2883E-01   max: 0.1072E+00   T at   31  2
       a = -3.000      CL = -0.0130
      Cm = -0.0342     CD =  0.02515   =>   CDf =  0.00664    CDp =  0.01851

 Side 1  free  transition at x/c =  0.7906   62
 Side 2  free  transition at x/c =  0.0769   30

  33   rms: 0.8220E-01   max: 0.3081E+00   D at   35  2
       a = -3.000      CL = -0.0159
      Cm = -0.0339     CD =  0.02445   =>   CDf =  0.00676    CDp =  0.01769

 Side 1  free  transition at x/c =  0.7913   62
 Side 2  free  transition at x/c =  0.0770   31

  34   rms: 0.2882E-01   max: 0.1071E+00   T at   31  2
       a = -3.000      CL = -0.0130
      Cm = -0.0342     CD =  0.02515   =>   CDf =  0.00664    CDp =  0.01850

 Side 1  free  transition at x/c =  0.7906   62
 Side 2  free  transition at x/c =  0.0769   30

  35   rms: 0.8219E-01   max: 0.3080E+00   D at   35  2
       a = -3.000      CL = -0.0159
      Cm = -0.0339     CD =  0.02445   =>   CDf =  0.00676    CDp =  0.01769

 Side 1  free  transition at x/c =  0.7913   62
 Side 2  free  transition at x/c =  0.0770   31

  36   rms: 0.2883E-01   max: 0.1071E+00   T at   31  2
       a = -3.000      CL = -0.0130
      Cm = -0.0342     CD =  0.02515   =>   CDf =  0.00664    CDp =  0.01850

 Side 1  free  transition at x/c =  0.7906   62
 Side 2  free  transition at x/c =  0.0769   30

  37   rms: 0.8219E-01   max: 0.3080E+00   D at   35  2
       a = -3.000      CL = -0.0159
      Cm = -0.0339     CD =  0.02445   =>   CDf =  0.00676    CDp =  0.01769

 Side 1  free  transition at x/c =  0.7913   62
 Side 2  free  transition at x/c =  0.0770   31

  38   rms: 0.2882E-01   max: 0.1071E+00   T at   31  2
       a = -3.000      CL = -0.0130
      Cm = -0.0342     CD =  0.02515   =>   CDf =  0.00664    CDp =  0.01851

 Side 1  free  transition at x/c =  0.7906   62
 Side 2  free  transition at x/c =  0.0769   30

  39   rms: 0.8220E-01   max: 0.3081E+00   D at   35  2
       a = -3.000      CL = -0.0159
      Cm = -0.0339     CD =  0.02445   =>   CDf =  0.00676    CDp =  0.01769

 Side 1  free  transition at x/c =  0.7913   62
 Side 2  free  transition at x/c =  0.0770   31

  40   rms: 0.2882E-01   max: 0.1071E+00   T at   31  2
       a = -3.000      CL = -0.0130
      Cm = -0.0342     CD =  0.02515   =>   CDf =  0.00664    CDp =  0.01850

 Side 1  free  transition at x/c =  0.7906   62
 Side 2  free  transition at x/c =  0.0769   30

  41   rms: 0.8219E-01   max: 0.3080E+00   D at   35  2
       a = -3.000      CL = -0.0159
      Cm = -0.0339     CD =  0.02445   =>   CDf =  0.00676    CDp =  0.01769

 Side 1  free  transition at x/c =  0.7913   62
 Side 2  free  transition at x/c =  0.0770   31

  42   rms: 0.2883E-01   max: 0.1071E+00   T at   31  2
       a = -3.000      CL = -0.0130
      Cm = -0.0342     CD =  0.02515   =>   CDf =  0.00664    CDp =  0.01850

 Side 1  free  transition at x/c =  0.7906   62
 Side 2  free  transition at x/c =  0.0769   30

  43   rms: 0.8219E-01   max: 0.3080E+00   D at   35  2
       a = -3.000      CL = -0.0159
      Cm = -0.0339     CD =  0.02445   =>   CDf =  0.00676    CDp =  0.01769

 Side 1  free  transition at x/c =  0.7913   62
 Side 2  free  transition at x/c =  0.0770   31

  44   rms: 0.2882E-01   max: 0.1071E+00   T at   31  2
       a = -3.000      CL = -0.0130
      Cm = -0.0342     CD =  0.02515   =>   CDf =  0.00664    CDp =  0.01851

 Side 1  free  transition at x/c =  0.7906   62
 Side 2  free  transition at x/c =  0.0769   30

  45   rms: 0.8221E-01   max: 0.3081E+00   D at   35  2
       a = -3.000      CL = -0.0159
      Cm = -0.0339     CD =  0.02445   =>   CDf =  0.00676    CDp =  0.01769

 Side 1  free  transition at x/c =  0.7913   62
 Side 2  free  transition at x/c =  0.0770   31

  46   rms: 0.2884E-01   max: 0.1072E+00   T at   31  2
       a = -3.000      CL = -0.0130
      Cm = -0.0342     CD =  0.02515   =>   CDf =  0.00664    CDp =  0.01850

 Side 1  free  transition at x/c =  0.7906   62
 Side 2  free  transition at x/c =  0.0769   30

  47   rms: 0.8219E-01   max: 0.3080E+00   D at   35  2
       a = -3.000      CL = -0.0159
      Cm = -0.0339     CD =  0.02445   =>   CDf =  0.00676    CDp =  0.01769

 Side 1  free  transition at x/c =  0.7913   62
 Side 2  free  transition at x/c =  0.0770   31

  48   rms: 0.2882E-01   max: 0.1071E+00   T at   31  2
       a = -3.000      CL = -0.0130
      Cm = -0.0342     CD =  0.02515   =>   CDf =  0.00664    CDp =  0.01850

 Side 1  free  transition at x/c =  0.7906   62
 Side 2  free  transition at x/c =  0.0769   30

  49   rms: 0.8219E-01   max: 0.3080E+00   D at   35  2
       a = -3.000      CL = -0.0159
      Cm = -0.0339     CD =  0.02445   =>   CDf =  0.00676    CDp =  0.01769

 Side 1  free  transition at x/c =  0.7913   62
 Side 2  free  transition at x/c =  0.0770   31

  50   rms: 0.2882E-01   max: 0.1071E+00   T at   31  2
       a = -3.000      CL = -0.0130
      Cm = -0.0342     CD =  0.02515   =>   CDf =  0.00664    CDp =  0.01851

 Side 1  free  transition at x/c =  0.7906   62
 Side 2  free  transition at x/c =  0.0769   30

  51   rms: 0.8221E-01   max: 0.3081E+00   D at   35  2
       a = -3.000      CL = -0.0159
      Cm = -0.0339     CD =  0.02445   =>   CDf =  0.00676    CDp =  0.01769

 Side 1  free  transition at x/c =  0.7913   62
 Side 2  free  transition at x/c =  0.0770   31

  52   rms: 0.2883E-01   max: 0.1072E+00   T at   31  2
       a = -3.000      CL = -0.0130
      Cm = -0.0342     CD =  0.02515   =>   CDf =  0.00664    CDp =  0.01851

 Side 1  free  transition at x/c =  0.7906   62
 Side 2  free  transition at x/c =  0.0769   30

  53   rms: 0.8220E-01   max: 0.3080E+00   D at   35  2
       a = -3.000      CL = -0.0159
      Cm = -0.0339     CD =  0.02445   =>   CDf =  0.00676    CDp =  0.01769

 Side 1  free  transition at x/c =  0.7913   62
 Side 2  free  transition at x/c =  0.0770   31

  54   rms: 0.2882E-01   max: 0.1071E+00   T at   31  2
       a = -3.000      CL = -0.0130
      Cm = -0.0342     CD =  0.02515   =>   CDf =  0.00664    CDp =  0.01851

 Side 1  free  transition at x/c =  0.7906   62
 Side 2  free  transition at x/c =  0.0769   30

  55   rms: 0.8221E-01   max: 0.3081E+00   D at   35  2
       a = -3.000      CL = -0.0159
      Cm = -0.0339     CD =  0.02445   =>   CDf =  0.00676    CDp =  0.01769

 Side 1  free  transition at x/c =  0.7913   62
 Side 2  free  transition at x/c =  0.0770   31

  56   rms: 0.2881E-01   max: 0.1071E+00   T at   31  2
       a = -3.000      CL = -0.0130
      Cm = -0.0342     CD =  0.02515   =>   CDf =  0.00664    CDp =  0.01851

 Side 1  free  transition at x/c =  0.7906   62
 Side 2  free  transition at x/c =  0.0769   30

  57   rms: 0.8221E-01   max: 0.3081E+00   D at   35  2
       a = -3.000      CL = -0.0159
      Cm = -0.0339     CD =  0.02445   =>   CDf =  0.00676    CDp =  0.01769

 Side 1  free  transition at x/c =  0.7913   62
 Side 2  free  transition at x/c =  0.0770   31

  58   rms: 0.2881E-01   max: 0.1071E+00   T at   31  2
       a = -3.000      CL = -0.0130
      Cm = -0.0342     CD =  0.02515   =>   CDf =  0.00664    CDp =  0.01851

 Side 1  free  transition at x/c =  0.7906   62
 Side 2  free  transition at x/c =  0.0769   30

  59   rms: 0.8221E-01   max: 0.3081E+00   D at   35  2
       a = -3.000      CL = -0.0159
      Cm = -0.0339     CD =  0.02445   =>   CDf =  0.00676    CDp =  0.01769

 Side 1  free  transition at x/c =  0.7913   62
 Side 2  free  transition at x/c =  0.0770   31

  60   rms: 0.2882E-01   max: 0.1071E+00   T at   31  2
       a = -3.000      CL = -0.0130
      Cm = -0.0342     CD =  0.02515   =>   CDf =  0.00664    CDp =  0.01850

 Side 1  free  transition at x/c =  0.7906   62
 Side 2  free  transition at x/c =  0.0769   30

  61   rms: 0.8220E-01   max: 0.3080E+00   D at   35  2
       a = -3.000      CL = -0.0159
      Cm = -0.0339     CD =  0.02445   =>   CDf =  0.00676    CDp =  0.01769

 Side 1  free  transition at x/c =  0.7913   62
 Side 2  free  transition at x/c =  0.0770   31

  62   rms: 0.2882E-01   max: 0.1071E+00   T at   31  2
       a = -3.000      CL = -0.0130
      Cm = -0.0342     CD =  0.02515   =>   CDf =  0.00664    CDp =  0.01850

 Side 1  free  transition at x/c =  0.7906   62
 Side 2  free  transition at x/c =  0.0769   30

  63   rms: 0.8219E-01   max: 0.3080E+00   D at   35  2
       a = -3.000      CL = -0.0159
      Cm = -0.0339     CD =  0.02445   =>   CDf =  0.00676    CDp =  0.01769

 Side 1  free  transition at x/c =  0.7913   62
 Side 2  free  transition at x/c =  0.0770   31

  64   rms: 0.2882E-01   max: 0.1071E+00   T at   31  2
       a = -3.000      CL = -0.0130
      Cm = -0.0342     CD =  0.02515   =>   CDf =  0.00664    CDp =  0.01851

 Side 1  free  transition at x/c =  0.7906   62
 Side 2  free  transition at x/c =  0.0769   30

  65   rms: 0.8221E-01   max: 0.3081E+00   D at   35  2
       a = -3.000      CL = -0.0159
      Cm = -0.0339     CD =  0.02445   =>   CDf =  0.00676    CDp =  0.01769

 Side 1  free  transition at x/c =  0.7913   62
 Side 2  free  transition at x/c =  0.0770   31

  66   rms: 0.2882E-01   max: 0.1071E+00   T at   31  2
       a = -3.000      CL = -0.0130
      Cm = -0.0342     CD =  0.02515   =>   CDf =  0.00664    CDp =  0.01851

 Side 1  free  transition at x/c =  0.7906   62
 Side 2  free  transition at x/c =  0.0769   30

  67   rms: 0.8221E-01   max: 0.3081E+00   D at   35  2
       a = -3.000      CL = -0.0159
      Cm = -0.0339     CD =  0.02445   =>   CDf =  0.00676    CDp =  0.01769

 Side 1  free  transition at x/c =  0.7913   62
 Side 2  free  transition at x/c =  0.0770   31

  68   rms: 0.2883E-01   max: 0.1071E+00   T at   31  2
       a = -3.000      CL = -0.0130
      Cm = -0.0342     CD =  0.02515   =>   CDf =  0.00664    CDp =  0.01850

 Side 1  free  transition at x/c =  0.7906   62
 Side 2  free  transition at x/c =  0.0769   30

  69   rms: 0.8219E-01   max: 0.3080E+00   D at   35  2
       a = -3.000      CL = -0.0159
      Cm = -0.0339     CD =  0.02445   =>   CDf =  0.00676    CDp =  0.01769

 Side 1  free  transition at x/c =  0.7913   62
 Side 2  free  transition at x/c =  0.0770   31

  70   rms: 0.2883E-01   max: 0.1071E+00   T at   31  2
       a = -3.000      CL = -0.0130
      Cm = -0.0342     CD =  0.02515   =>   CDf =  0.00664    CDp =  0.01851

 Side 1  free  transition at x/c =  0.7906   62
 Side 2  free  transition at x/c =  0.0769   30

  71   rms: 0.8221E-01   max: 0.3081E+00   D at   35  2
       a = -3.000      CL = -0.0159
      Cm = -0.0339     CD =  0.02445   =>   CDf =  0.00676    CDp =  0.01769

 Side 1  free  transition at x/c =  0.7913   62
 Side 2  free  transition at x/c =  0.0770   31

  72   rms: 0.2882E-01   max: 0.1071E+00   T at   31  2
       a = -3.000      CL = -0.0130
      Cm = -0.0342     CD =  0.02515   =>   CDf =  0.00664    CDp =  0.01851

 Side 1  free  transition at x/c =  0.7906   62
 Side 2  free  transition at x/c =  0.0769   30

  73   rms: 0.8220E-01   max: 0.3081E+00   D at   35  2
       a = -3.000      CL = -0.0159
      Cm = -0.0339     CD =  0.02445   =>   CDf =  0.00676    CDp =  0.01769

 Side 1  free  transition at x/c =  0.7913   62
 Side 2  free  transition at x/c =  0.0770   31

  74   rms: 0.2881E-01   max: 0.1071E+00   T at   31  2
       a = -3.000      CL = -0.0130
      Cm = -0.0342     CD =  0.02515   =>   CDf =  0.00664    CDp =  0.01851

 Side 1  free  transition at x/c =  0.7906   62
 Side 2  free  transition at x/c =  0.0769   30

  75   rms: 0.8221E-01   max: 0.3081E+00   D at   35  2
       a = -3.000      CL = -0.0159
      Cm = -0.0339     CD =  0.02445   =>   CDf =  0.00676    CDp =  0.01769

 Side 1  free  transition at x/c =  0.7913   62
 Side 2  free  transition at x/c =  0.0770   31

  76   rms: 0.2883E-01   max: 0.1071E+00   T at   31  2
       a = -3.000      CL = -0.0130
      Cm = -0.0342     CD =  0.02515   =>   CDf =  0.00664    CDp =  0.01850

 Side 1  free  transition at x/c =  0.7906   62
 Side 2  free  transition at x/c =  0.0769   30

  77   rms: 0.8220E-01   max: 0.3080E+00   D at   35  2
       a = -3.000      CL = -0.0159
      Cm = -0.0339     CD =  0.02445   =>   CDf =  0.00676    CDp =  0.01769

 Side 1  free  transition at x/c =  0.7913   62
 Side 2  free  transition at x/c =  0.0770   31

  78   rms: 0.2882E-01   max: 0.1071E+00   T at   31  2
       a = -3.000      CL = -0.0130
      Cm = -0.0342     CD =  0.02515   =>   CDf =  0.00664    CDp =  0.01851

 Side 1  free  transition at x/c =  0.7906   62
 Side 2  free  transition at x/c =  0.0769   30

  79   rms: 0.8221E-01   max: 0.3081E+00   D at   35  2
       a = -3.000      CL = -0.0159
      Cm = -0.0339     CD =  0.02445   =>   CDf =  0.00676    CDp =  0.01769

 Side 1  free  transition at x/c =  0.7913   62
 Side 2  free  transition at x/c =  0.0770   31

  80   rms: 0.2882E-01   max: 0.1071E+00   T at   31  2
       a = -3.000      CL = -0.0130
      Cm = -0.0342     CD =  0.02515   =>   CDf =  0.00664    CDp =  0.01851

 Side 1  free  transition at x/c =  0.7906   62
 Side 2  free  transition at x/c =  0.0769   30

  81   rms: 0.8220E-01   max: 0.3081E+00   D at   35  2
       a = -3.000      CL = -0.0159
      Cm = -0.0339     CD =  0.02445   =>   CDf =  0.00676    CDp =  0.01769

 Side 1  free  transition at x/c =  0.7913   62
 Side 2  free  transition at x/c =  0.0770   31

  82   rms: 0.2882E-01   max: 0.1071E+00   T at   31  2
       a = -3.000      CL = -0.0130
      Cm = -0.0342     CD =  0.02515   =>   CDf =  0.00664    CDp =  0.01851

 Side 1  free  transition at x/c =  0.7906   62
 Side 2  free  transition at x/c =  0.0769   30

  83   rms: 0.8220E-01   max: 0.3081E+00   D at   35  2
       a = -3.000      CL = -0.0159
      Cm = -0.0339     CD =  0.02445   =>   CDf =  0.00676    CDp =  0.01769

 Side 1  free  transition at x/c =  0.7913   62
 Side 2  free  transition at x/c =  0.0770   31

  84   rms: 0.2881E-01   max: 0.1071E+00   T at   31  2
       a = -3.000      CL = -0.0130
      Cm = -0.0342     CD =  0.02515   =>   CDf =  0.00664    CDp =  0.01851

 Side 1  free  transition at x/c =  0.7906   62
 Side 2  free  transition at x/c =  0.0769   30

  85   rms: 0.8221E-01   max: 0.3081E+00   D at   35  2
       a = -3.000      CL = -0.0159
      Cm = -0.0339     CD =  0.02445   =>   CDf =  0.00676    CDp =  0.01769

 Side 1  free  transition at x/c =  0.7913   62
 Side 2  free  transition at x/c =  0.0770   31

  86   rms: 0.2881E-01   max: 0.1071E+00   T at   31  2
       a = -3.000      CL = -0.0130
      Cm = -0.0342     CD =  0.02515   =>   CDf =  0.00664    CDp =  0.01851

 Side 1  free  transition at x/c =  0.7906   62
 Side 2  free  transition at x/c =  0.0769   30

  87   rms: 0.8222E-01   max: 0.3081E+00   D at   35  2
       a = -3.000      CL = -0.0159
      Cm = -0.0339     CD =  0.02445   =>   CDf =  0.00676    CDp =  0.01769

 Side 1  free  transition at x/c =  0.7913   62
 Side 2  free  transition at x/c =  0.0770   31

  88   rms: 0.2883E-01   max: 0.1071E+00   T at   31  2
       a = -3.000      CL = -0.0130
      Cm = -0.0342     CD =  0.02515   =>   CDf =  0.00664    CDp =  0.01851

 Side 1  free  transition at x/c =  0.7906   62
 Side 2  free  transition at x/c =  0.0769   30

  89   rms: 0.8219E-01   max: 0.3080E+00   D at   35  2
       a = -3.000      CL = -0.0159
      Cm = -0.0339     CD =  0.02445   =>   CDf =  0.00676    CDp =  0.01769

 Side 1  free  transition at x/c =  0.7913   62
 Side 2  free  transition at x/c =  0.0770   31

  90   rms: 0.2881E-01   max: 0.1071E+00   T at   31  2
       a = -3.000      CL = -0.0130
      Cm = -0.0342     CD =  0.02515   =>   CDf =  0.00664    CDp =  0.01851

 Side 1  free  transition at x/c =  0.7906   62
 Side 2  free  transition at x/c =  0.0769   30

  91   rms: 0.8221E-01   max: 0.3081E+00   D at   35  2
       a = -3.000      CL = -0.0159
      Cm = -0.0339     CD =  0.02445   =>   CDf =  0.00676    CDp =  0.01769

 Side 1  free  transition at x/c =  0.7913   62
 Side 2  free  transition at x/c =  0.0770   31

  92   rms: 0.2882E-01   max: 0.1071E+00   T at   31  2
       a = -3.000      CL = -0.0130
      Cm = -0.0342     CD =  0.02515   =>   CDf =  0.00664    CDp =  0.01851

 Side 1  free  transition at x/c =  0.7906   62
 Side 2  free  transition at x/c =  0.0769   30

  93   rms: 0.8221E-01   max: 0.3081E+00   D at   35  2
       a = -3.000      CL = -0.0159
      Cm = -0.0339     CD =  0.02445   =>   CDf =  0.00676    CDp =  0.01769

 Side 1  free  transition at x/c =  0.7913   62
 Side 2  free  transition at x/c =  0.0770   31

  94   rms: 0.2882E-01   max: 0.1071E+00   T at   31  2
       a = -3.000      CL = -0.0130
      Cm = -0.0342     CD =  0.02515   =>   CDf =  0.00664    CDp =  0.01851

 Side 1  free  transition at x/c =  0.7906   62
 Side 2  free  transition at x/c =  0.0769   30

  95   rms: 0.8220E-01   max: 0.3080E+00   D at   35  2
       a = -3.000      CL = -0.0159
      Cm = -0.0339     CD =  0.02445   =>   CDf =  0.00676    CDp =  0.01769

 Side 1  free  transition at x/c =  0.7913   62
 Side 2  free  transition at x/c =  0.0770   31

  96   rms: 0.2882E-01   max: 0.1071E+00   T at   31  2
       a = -3.000      CL = -0.0130
      Cm = -0.0342     CD =  0.02515   =>   CDf =  0.00664    CDp =  0.01851

 Side 1  free  transition at x/c =  0.7906   62
 Side 2  free  transition at x/c =  0.0769   30

  97   rms: 0.8220E-01   max: 0.3080E+00   D at   35  2
       a = -3.000      CL = -0.0159
      Cm = -0.0339     CD =  0.02445   =>   CDf =  0.00676    CDp =  0.01769

 Side 1  free  transition at x/c =  0.7913   62
 Side 2  free  transition at x/c =  0.0770   31

  98   rms: 0.2884E-01   max: 0.1072E+00   T at   31  2
       a = -3.000      CL = -0.0130
      Cm = -0.0342     CD =  0.02515   =>   CDf =  0.00664    CDp =  0.01850

 Side 1  free  transition at x/c =  0.7906   62
 Side 2  free  transition at x/c =  0.0769   30

  99   rms: 0.8219E-01   max: 0.3080E+00   D at   35  2
       a = -3.000      CL = -0.0159
      Cm = -0.0339     CD =  0.02445   =>   CDf =  0.00676    CDp =  0.01769

 Side 1  free  transition at x/c =  0.7913   62
 Side 2  free  transition at x/c =  0.0770   31

 100   rms: 0.2883E-01   max: 0.1071E+00   T at   31  2
       a = -3.000      CL = -0.0130
      Cm = -0.0342     CD =  0.02515   =>   CDf =  0.00664    CDp =  0.01850

 Side 1  free  transition at x/c =  0.7906   62
 Side 2  free  transition at x/c =  0.0769   30

 101   rms: 0.8220E-01   max: 0.3080E+00   D at   35  2
       a = -3.000      CL = -0.0159
      Cm = -0.0339     CD =  0.02445   =>   CDf =  0.00676    CDp =  0.01769

 Side 1  free  transition at x/c =  0.7913   62
 Side 2  free  transition at x/c =  0.0770   31

 102   rms: 0.2884E-01   max: 0.1072E+00   T at   31  2
       a = -3.000      CL = -0.0130
      Cm = -0.0342     CD =  0.02515   =>   CDf =  0.00664    CDp =  0.01850

 Side 1  free  transition at x/c =  0.7906   62
 Side 2  free  transition at x/c =  0.0769   30

 103   rms: 0.8218E-01   max: 0.3080E+00   D at   35  2
       a = -3.000      CL = -0.0159
      Cm = -0.0339     CD =  0.02445   =>   CDf =  0.00676    CDp =  0.01769

 Side 1  free  transition at x/c =  0.7913   62
 Side 2  free  transition at x/c =  0.0770   31

 104   rms: 0.2882E-01   max: 0.1071E+00   T at   31  2
       a = -3.000      CL = -0.0130
      Cm = -0.0342     CD =  0.02515   =>   CDf =  0.00664    CDp =  0.01851

 Side 1  free  transition at x/c =  0.7906   62
 Side 2  free  transition at x/c =  0.0769   30

 105   rms: 0.8220E-01   max: 0.3081E+00   D at   35  2
       a = -3.000      CL = -0.0159
      Cm = -0.0339     CD =  0.02445   =>   CDf =  0.00676    CDp =  0.01769

 Side 1  free  transition at x/c =  0.7913   62
 Side 2  free  transition at x/c =  0.0770   31

 106   rms: 0.2882E-01   max: 0.1071E+00   T at   31  2
       a = -3.000      CL = -0.0130
      Cm = -0.0342     CD =  0.02515   =>   CDf =  0.00664    CDp =  0.01851

 Side 1  free  transition at x/c =  0.7906   62
 Side 2  free  transition at x/c =  0.0769   30

 107   rms: 0.8220E-01   max: 0.3081E+00   D at   35  2
       a = -3.000      CL = -0.0159
      Cm = -0.0339     CD =  0.02445   =>   CDf =  0.00676    CDp =  0.01769

 Side 1  free  transition at x/c =  0.7913   62
 Side 2  free  transition at x/c =  0.0770   31

 108   rms: 0.2881E-01   max: 0.1071E+00   T at   31  2
       a = -3.000      CL = -0.0130
      Cm = -0.0342     CD =  0.02515   =>   CDf =  0.00664    CDp =  0.01851

 Side 1  free  transition at x/c =  0.7906   62
 Side 2  free  transition at x/c =  0.0769   30

 109   rms: 0.8220E-01   max: 0.3081E+00   D at   35  2
       a = -3.000      CL = -0.0159
      Cm = -0.0339     CD =  0.02445   =>   CDf =  0.00676    CDp =  0.01769

 Side 1  free  transition at x/c =  0.7913   62
 Side 2  free  transition at x/c =  0.0770   31

 110   rms: 0.2881E-01   max: 0.1071E+00   T at   31  2
       a = -3.000      CL = -0.0130
      Cm = -0.0342     CD =  0.02515   =>   CDf =  0.00664    CDp =  0.01851

 Side 1  free  transition at x/c =  0.7906   62
 Side 2  free  transition at x/c =  0.0769   30

 111   rms: 0.8221E-01   max: 0.3081E+00   D at   35  2
       a = -3.000      CL = -0.0159
      Cm = -0.0339     CD =  0.02445   =>   CDf =  0.00676    CDp =  0.01769

 Side 1  free  transition at x/c =  0.7913   62
 Side 2  free  transition at x/c =  0.0770   31

 112   rms: 0.2882E-01   max: 0.1071E+00   T at   31  2
       a = -3.000      CL = -0.0130
      Cm = -0.0342     CD =  0.02515   =>   CDf =  0.00664    CDp =  0.01851

 Side 1  free  transition at x/c =  0.7906   62
 Side 2  free  transition at x/c =  0.0769   30

 113   rms: 0.8220E-01   max: 0.3081E+00   D at   35  2
       a = -3.000      CL = -0.0159
      Cm = -0.0339     CD =  0.02445   =>   CDf =  0.00676    CDp =  0.01769

 Side 1  free  transition at x/c =  0.7913   62
 Side 2  free  transition at x/c =  0.0770   31

 114   rms: 0.2883E-01   max: 0.1071E+00   T at   31  2
       a = -3.000      CL = -0.0130
      Cm = -0.0342     CD =  0.02515   =>   CDf =  0.00664    CDp =  0.01851

 Side 1  free  transition at x/c =  0.7906   62
 Side 2  free  transition at x/c =  0.0769   30

 115   rms: 0.8220E-01   max: 0.3081E+00   D at   35  2
       a = -3.000      CL = -0.0159
      Cm = -0.0339     CD =  0.02445   =>   CDf =  0.00676    CDp =  0.01769

 Side 1  free  transition at x/c =  0.7913   62
 Side 2  free  transition at x/c =  0.0770   31

 116   rms: 0.2885E-01   max: 0.1072E+00   T at   31  2
       a = -3.000      CL = -0.0130
      Cm = -0.0342     CD =  0.02515   =>   CDf =  0.00664    CDp =  0.01850

 Side 1  free  transition at x/c =  0.7906   62
 Side 2  free  transition at x/c =  0.0769   30

 117   rms: 0.8218E-01   max: 0.3080E+00   D at   35  2
       a = -3.000      CL = -0.0159
      Cm = -0.0339     CD =  0.02445   =>   CDf =  0.00676    CDp =  0.01769

 Side 1  free  transition at x/c =  0.7913   62
 Side 2  free  transition at x/c =  0.0770   31

 118   rms: 0.2883E-01   max: 0.1071E+00   T at   31  2
       a = -3.000      CL = -0.0130
      Cm = -0.0342     CD =  0.02515   =>   CDf =  0.00664    CDp =  0.01850

 Side 1  free  transition at x/c =  0.7906   62
 Side 2  free  transition at x/c =  0.0769   30

 119   rms: 0.8220E-01   max: 0.3080E+00   D at   35  2
       a = -3.000      CL = -0.0159
      Cm = -0.0339     CD =  0.02445   =>   CDf =  0.00676    CDp =  0.01769

 Side 1  free  transition at x/c =  0.7913   62
 Side 2  free  transition at x/c =  0.0770   31

 120   rms: 0.2883E-01   max: 0.1071E+00   T at   31  2
       a = -3.000      CL = -0.0130
      Cm = -0.0342     CD =  0.02515   =>   CDf =  0.00664    CDp =  0.01851

 Side 1  free  transition at x/c =  0.7906   62
 Side 2  free  transition at x/c =  0.0769   30

 121   rms: 0.8220E-01   max: 0.3081E+00   D at   35  2
       a = -3.000      CL = -0.0159
      Cm = -0.0339     CD =  0.02445   =>   CDf =  0.00676    CDp =  0.01769

 Side 1  free  transition at x/c =  0.7913   62
 Side 2  free  transition at x/c =  0.0770   31

 122   rms: 0.2882E-01   max: 0.1071E+00   T at   31  2
       a = -3.000      CL = -0.0130
      Cm = -0.0342     CD =  0.02515   =>   CDf =  0.00664    CDp =  0.01851

 Side 1  free  transition at x/c =  0.7906   62
 Side 2  free  transition at x/c =  0.0769   30

 123   rms: 0.8220E-01   max: 0.3080E+00   D at   35  2
       a = -3.000      CL = -0.0159
      Cm = -0.0339     CD =  0.02445   =>   CDf =  0.00676    CDp =  0.01769

 Side 1  free  transition at x/c =  0.7913   62
 Side 2  free  transition at x/c =  0.0770   31

 124   rms: 0.2882E-01   max: 0.1071E+00   T at   31  2
       a = -3.000      CL = -0.0130
      Cm = -0.0342     CD =  0.02515   =>   CDf =  0.00664    CDp =  0.01851

 Side 1  free  transition at x/c =  0.7906   62
 Side 2  free  transition at x/c =  0.0769   30

 125   rms: 0.8220E-01   max: 0.3081E+00   D at   35  2
       a = -3.000      CL = -0.0159
      Cm = -0.0339     CD =  0.02445   =>   CDf =  0.00676    CDp =  0.01769

 Side 1  free  transition at x/c =  0.7913   62
 Side 2  free  transition at x/c =  0.0770   31

 126   rms: 0.2882E-01   max: 0.1071E+00   T at   31  2
       a = -3.000      CL = -0.0130
      Cm = -0.0342     CD =  0.02515   =>   CDf =  0.00664    CDp =  0.01851

 Side 1  free  transition at x/c =  0.7906   62
 Side 2  free  transition at x/c =  0.0769   30

 127   rms: 0.8220E-01   max: 0.3080E+00   D at   35  2
       a = -3.000      CL = -0.0159
      Cm = -0.0339     CD =  0.02445   =>   CDf =  0.00676    CDp =  0.01769

 Side 1  free  transition at x/c =  0.7913   62
 Side 2  free  transition at x/c =  0.0770   31

 128   rms: 0.2882E-01   max: 0.1071E+00   T at   31  2
       a = -3.000      CL = -0.0130
      Cm = -0.0342     CD =  0.02515   =>   CDf =  0.00664    CDp =  0.01851

 Side 1  free  transition at x/c =  0.7906   62
 Side 2  free  transition at x/c =  0.0769   30

 129   rms: 0.8220E-01   max: 0.3081E+00   D at   35  2
       a = -3.000      CL = -0.0159
      Cm = -0.0339     CD =  0.02445   =>   CDf =  0.00676    CDp =  0.01769

 Side 1  free  transition at x/c =  0.7913   62
 Side 2  free  transition at x/c =  0.0770   31

 130   rms: 0.2882E-01   max: 0.1071E+00   T at   31  2
       a = -3.000      CL = -0.0130
      Cm = -0.0342     CD =  0.02515   =>   CDf =  0.00664    CDp =  0.01850

 Side 1  free  transition at x/c =  0.7906   62
 Side 2  free  transition at x/c =  0.0769   30

 131   rms: 0.8219E-01   max: 0.3080E+00   D at   35  2
       a = -3.000      CL = -0.0159
      Cm = -0.0339     CD =  0.02445   =>   CDf =  0.00676    CDp =  0.01769

 Side 1  free  transition at x/c =  0.7913   62
 Side 2  free  transition at x/c =  0.0770   31

 132   rms: 0.2884E-01   max: 0.1072E+00   T at   31  2
       a = -3.000      CL = -0.0130
      Cm = -0.0342     CD =  0.02515   =>   CDf =  0.00664    CDp =  0.01850

 Side 1  free  transition at x/c =  0.7906   62
 Side 2  free  transition at x/c =  0.0769   30

 133   rms: 0.8219E-01   max: 0.3080E+00   D at   35  2
       a = -3.000      CL = -0.0159
      Cm = -0.0339     CD =  0.02445   =>   CDf =  0.00676    CDp =  0.01769

 Side 1  free  transition at x/c =  0.7913   62
 Side 2  free  transition at x/c =  0.0770   31

 134   rms: 0.2881E-01   max: 0.1071E+00   T at   31  2
       a = -3.000      CL = -0.0130
      Cm = -0.0342     CD =  0.02515   =>   CDf =  0.00664    CDp =  0.01851

 Side 1  free  transition at x/c =  0.7906   62
 Side 2  free  transition at x/c =  0.0769   30

 135   rms: 0.8220E-01   max: 0.3080E+00   D at   35  2
       a = -3.000      CL = -0.0159
      Cm = -0.0339     CD =  0.02445   =>   CDf =  0.00676    CDp =  0.01769

 Side 1  free  transition at x/c =  0.7913   62
 Side 2  free  transition at x/c =  0.0770   31

 136   rms: 0.2881E-01   max: 0.1071E+00   T at   31  2
       a = -3.000      CL = -0.0130
      Cm = -0.0342     CD =  0.02515   =>   CDf =  0.00664    CDp =  0.01851

 Side 1  free  transition at x/c =  0.7906   62
 Side 2  free  transition at x/c =  0.0769   30

 137   rms: 0.8220E-01   max: 0.3081E+00   D at   35  2
       a = -3.000      CL = -0.0159
      Cm = -0.0339     CD =  0.02445   =>   CDf =  0.00676    CDp =  0.01769

 Side 1  free  transition at x/c =  0.7913   62
 Side 2  free  transition at x/c =  0.0770   31

 138   rms: 0.2883E-01   max: 0.1072E+00   T at   31  2
       a = -3.000      CL = -0.0130
      Cm = -0.0342     CD =  0.02515   =>   CDf =  0.00664    CDp =  0.01850

 Side 1  free  transition at x/c =  0.7906   62
 Side 2  free  transition at x/c =  0.0769   30

 139   rms: 0.8219E-01   max: 0.3080E+00   D at   35  2
       a = -3.000      CL = -0.0159
      Cm = -0.0339     CD =  0.02445   =>   CDf =  0.00676    CDp =  0.01769

 Side 1  free  transition at x/c =  0.7913   62
 Side 2  free  transition at x/c =  0.0770   31

 140   rms: 0.2881E-01   max: 0.1071E+00   T at   31  2
       a = -3.000      CL = -0.0130
      Cm = -0.0342     CD =  0.02515   =>   CDf =  0.00664    CDp =  0.01851

 Side 1  free  transition at x/c =  0.7906   62
 Side 2  free  transition at x/c =  0.0769   30

 141   rms: 0.8221E-01   max: 0.3081E+00   D at   35  2
       a = -3.000      CL = -0.0159
      Cm = -0.0339     CD =  0.02445   =>   CDf =  0.00676    CDp =  0.01769

 Side 1  free  transition at x/c =  0.7913   62
 Side 2  free  transition at x/c =  0.0770   31

 142   rms: 0.2881E-01   max: 0.1071E+00   T at   31  2
       a = -3.000      CL = -0.0130
      Cm = -0.0342     CD =  0.02515   =>   CDf =  0.00664    CDp =  0.01851

 Side 1  free  transition at x/c =  0.7906   62
 Side 2  free  transition at x/c =  0.0769   30

 143   rms: 0.8221E-01   max: 0.3081E+00   D at   35  2
       a = -3.000      CL = -0.0159
      Cm = -0.0339     CD =  0.02445   =>   CDf =  0.00676    CDp =  0.01769

 Side 1  free  transition at x/c =  0.7913   62
 Side 2  free  transition at x/c =  0.0770   31

 144   rms: 0.2883E-01   max: 0.1072E+00   T at   31  2
       a = -3.000      CL = -0.0130
      Cm = -0.0342     CD =  0.02515   =>   CDf =  0.00664    CDp =  0.01850

 Side 1  free  transition at x/c =  0.7906   62
 Side 2  free  transition at x/c =  0.0769   30

 145   rms: 0.8218E-01   max: 0.3080E+00   D at   35  2
       a = -3.000      CL = -0.0159
      Cm = -0.0339     CD =  0.02445   =>   CDf =  0.00676    CDp =  0.01769

 Side 1  free  transition at x/c =  0.7913   62
 Side 2  free  transition at x/c =  0.0770   31

 146   rms: 0.2882E-01   max: 0.1071E+00   T at   31  2
       a = -3.000      CL = -0.0130
      Cm = -0.0342     CD =  0.02515   =>   CDf =  0.00664    CDp =  0.01850

 Side 1  free  transition at x/c =  0.7906   62
 Side 2  free  transition at x/c =  0.0769   30

 147   rms: 0.8220E-01   max: 0.3080E+00   D at   35  2
       a = -3.000      CL = -0.0159
      Cm = -0.0339     CD =  0.02445   =>   CDf =  0.00676    CDp =  0.01769

 Side 1  free  transition at x/c =  0.7913   62
 Side 2  free  transition at x/c =  0.0770   31

 148   rms: 0.2883E-01   max: 0.1071E+00   T at   31  2
       a = -3.000      CL = -0.0130
      Cm = -0.0342     CD =  0.02515   =>   CDf =  0.00664    CDp =  0.01850

 Side 1  free  transition at x/c =  0.7906   62
 Side 2  free  transition at x/c =  0.0769   30

 149   rms: 0.8219E-01   max: 0.3080E+00   D at   35  2
       a = -3.000      CL = -0.0159
      Cm = -0.0339     CD =  0.02445   =>   CDf =  0.00676    CDp =  0.01769

 Side 1  free  transition at x/c =  0.7913   62
 Side 2  free  transition at x/c =  0.0770   31

 150   rms: 0.2882E-01   max: 0.1071E+00   T at   31  2
       a = -3.000      CL = -0.0130
      Cm = -0.0342     CD =  0.02515   =>   CDf =  0.00664    CDp =  0.01851

 Side 1  free  transition at x/c =  0.7906   62
 Side 2  free  transition at x/c =  0.0769   30

 151   rms: 0.8221E-01   max: 0.3081E+00   D at   35  2
       a = -3.000      CL = -0.0159
      Cm = -0.0339     CD =  0.02445   =>   CDf =  0.00676    CDp =  0.01769

 Side 1  free  transition at x/c =  0.7913   62
 Side 2  free  transition at x/c =  0.0770   31

 152   rms: 0.2882E-01   max: 0.1071E+00   T at   31  2
       a = -3.000      CL = -0.0130
      Cm = -0.0342     CD =  0.02515   =>   CDf =  0.00664    CDp =  0.01851

 Side 1  free  transition at x/c =  0.7906   62
 Side 2  free  transition at x/c =  0.0769   30

 153   rms: 0.8220E-01   max: 0.3081E+00   D at   35  2
       a = -3.000      CL = -0.0159
      Cm = -0.0339     CD =  0.02445   =>   CDf =  0.00676    CDp =  0.01769

 Side 1  free  transition at x/c =  0.7913   62
 Side 2  free  transition at x/c =  0.0770   31

 154   rms: 0.2882E-01   max: 0.1071E+00   T at   31  2
       a = -3.000      CL = -0.0130
      Cm = -0.0342     CD =  0.02515   =>   CDf =  0.00664    CDp =  0.01851

 Side 1  free  transition at x/c =  0.7906   62
 Side 2  free  transition at x/c =  0.0769   30

 155   rms: 0.8220E-01   max: 0.3080E+00   D at   35  2
       a = -3.000      CL = -0.0159
      Cm = -0.0339     CD =  0.02445   =>   CDf =  0.00676    CDp =  0.01769
 VISCAL:  Convergence failed
 Calculating wake trajectory ...
 Calculating source influence matrix ...

 Solving BL system ...

 Side 1  free  transition at x/c =  0.7913   62
 Side 2  free  transition at x/c =  0.0770   31

   1   rms: 0.3563E+00   max: 0.1490E+01   T at   31  2
       a = -2.500      CL =  0.0515
      Cm = -0.0310     CD =  0.03774   =>   CDf =  0.00658    CDp =  0.03116

 Side 1  free  transition at x/c =  0.7194   59
 Side 2  free  transition at x/c =  0.0737   29

   2   rms: 0.2689E+00   max: 0.3086E+01   D at   30  2   RLX: 0.202
       a = -2.500      CL =  0.0499
      Cm = -0.0299     CD =  0.01327   =>   CDf =  0.00761    CDp =  0.00567

 Side 1  free  transition at x/c =  0.7245   60
 Side 2  free  transition at x/c =  0.0728   29

   3   rms: 0.2417E+00   max: 0.1842E+01   D at   31  2   RLX: 0.649
       a = -2.500      CL =  0.0390
      Cm = -0.0313     CD =  0.01766   =>   CDf =  0.00738    CDp =  0.01028

 Side 1  free  transition at x/c =  0.7363   60
 Side 2  free  transition at x/c =  0.0763   29

   4   rms: 0.5190E-01   max: -.3830E+00   D at   29  2
       a = -2.500      CL =  0.0344
      Cm = -0.0312     CD =  0.02346   =>   CDf =  0.00699    CDp =  0.01648

 TRCHEK2: N2 convergence failed.
 x:  0.10773  0.11911  0.11988  N:  8.565  9.000  9.034  Nx:  38.606   dN: 0.453E-02
 TRCHEK2: N2 convergence failed.
 x:  0.10773  0.11927  0.11988  N:  8.565  9.000  9.034  Nx:  38.610   dN: 0.109E-01
 TRCHEK2: N2 convergence failed.
 x:  0.10773  0.11973  0.11988  N:  8.565  9.000  9.028  Nx:  38.619   dN: 0.287E-01
 TRCHEK2: N2 convergence failed.
 x:  0.10773  0.11915  0.11988  N:  8.565  9.000  9.003  Nx:  71.563   dN:-0.253E-01
 TRCHEK2: N2 convergence failed.
 x:  0.10773  0.11988  0.11988  N:  8.565  9.000  9.034  Nx:  38.616   dN: 0.341E-01
 TRCHEK2: N2 convergence failed.
 x:  0.10773  0.11988  0.11988  N:  8.565  9.000  9.087  Nx:  42.976   dN: 0.874E-01
 Side 1  free  transition at x/c =  0.7394   60
 Side 2  free  transition at x/c =  0.0938   31

   5   rms: 0.5663E+00   max: 0.4749E+01   D at   31  2   RLX: 0.316
       a = -2.500      CL =  0.0368
      Cm = -0.0327     CD =  0.01553   =>   CDf =  0.00730    CDp =  0.00822

 Side 1  free  transition at x/c =  0.7387   60
 Side 2  free  transition at x/c =  0.0944   31

   6   rms: 0.3794E+00   max: 0.2292E+01   D at   31  2   RLX: 0.654
       a = -2.500      CL =  0.0313
      Cm = -0.0319     CD =  0.01865   =>   CDf =  0.00723    CDp =  0.01142

 Side 1  free  transition at x/c =  0.7393   60
 Side 2  free  transition at x/c =  0.0881   30

   7   rms: 0.1024E+00   max: -.4858E+00   D at   31  2
       a = -2.500      CL =  0.0346
      Cm = -0.0321     CD =  0.02249   =>   CDf =  0.00675    CDp =  0.01574

 Side 1  free  transition at x/c =  0.7388   60
 Side 2  free  transition at x/c =  0.0880   30

   8   rms: 0.9477E-01   max: 0.4680E+00   D at   31  2
       a = -2.500      CL =  0.0306
      Cm = -0.0318     CD =  0.02156   =>   CDf =  0.00708    CDp =  0.01448

 Side 1  free  transition at x/c =  0.7395   60
 Side 2  free  transition at x/c =  0.0861   30

   9   rms: 0.5917E-01   max: 0.3597E+00   D at   31  2
       a = -2.500      CL =  0.0313
      Cm = -0.0324     CD =  0.02026   =>   CDf =  0.00695    CDp =  0.01331

 Side 1  free  transition at x/c =  0.7401   60
 Side 2  free  transition at x/c =  0.0851   30

  10   rms: 0.1374E-01   max: 0.1119E+00   D at   34  2
       a = -2.500      CL =  0.0325
      Cm = -0.0329     CD =  0.01953   =>   CDf =  0.00685    CDp =  0.01267

 Side 1  free  transition at x/c =  0.7404   60
 Side 2  free  transition at x/c =  0.0847   30

  11   rms: 0.1259E-02   max: 0.1261E-01   D at   34  2
       a = -2.500      CL =  0.0326
      Cm = -0.0330     CD =  0.01951   =>   CDf =  0.00680    CDp =  0.01271

 Side 1  free  transition at x/c =  0.7404   60
 Side 2  free  transition at x/c =  0.0846   30

  12   rms: 0.2389E-04   max: -.3014E-03   T at   30  2
       a = -2.500      CL =  0.0326
      Cm = -0.0330     CD =  0.01951   =>   CDf =  0.00680    CDp =  0.01271
 plradd ia,ip,cpol            3           0  3.31662316E-03

 Point added to stored polar  1
 Point written to save file  v43012_Re300k.base.pol                          
 Dump file unspecified or not available
 Calculating wake trajectory ...
 Calculating source influence matrix ...

 Solving BL system ...

 Side 1  free  transition at x/c =  0.7404   60
 Side 2  free  transition at x/c =  0.0846   30

   1   rms: 0.1045E+00   max: -.1810E+01   T at   30  2   RLX: 0.276
       a = -2.000      CL =  0.0463
      Cm = -0.0321     CD =  0.01956   =>   CDf =  0.00680    CDp =  0.01276

 Side 1  free  transition at x/c =  0.7237   60
 Side 2  free  transition at x/c =  0.0880   30

   2   rms: 0.1523E+00   max: 0.1057E+01   T at   33  2   RLX: 0.538
       a = -2.000      CL =  0.0678
      Cm = -0.0293     CD =  0.02778   =>   CDf =  0.00680    CDp =  0.02098

 Side 1  free  transition at x/c =  0.7033   58
 Side 2  free  transition at x/c =  0.0849   30

   3   rms: 0.2113E+00   max: 0.1612E+01   D at   31  2   RLX: 0.814
       a = -2.000      CL =  0.0756
      Cm = -0.0293     CD =  0.01954   =>   CDf =  0.00704    CDp =  0.01249

 Side 1  free  transition at x/c =  0.6900   59
 Side 2  free  transition at x/c =  0.1001   30

   4   rms: 0.2090E+00   max: 0.1143E+01   D at   31  2
       a = -2.000      CL =  0.0749
      Cm = -0.0287     CD =  0.02058   =>   CDf =  0.00737    CDp =  0.01321

 Side 1  free  transition at x/c =  0.6895   59
 Side 2  free  transition at x/c =  0.0944   30

   5   rms: 0.4563E-01   max: -.5209E+00   D at   30  2   RLX: 0.960
       a = -2.000      CL =  0.0794
      Cm = -0.0303     CD =  0.01849   =>   CDf =  0.00713    CDp =  0.01136

 Side 1  free  transition at x/c =  0.6899   59
 Side 2  free  transition at x/c =  0.0940   30

   6   rms: 0.2022E-01   max: -.2891E+00   D at   30  2
       a = -2.000      CL =  0.0807
      Cm = -0.0307     CD =  0.01791   =>   CDf =  0.00712    CDp =  0.01080

 Side 1  free  transition at x/c =  0.6902   59
 Side 2  free  transition at x/c =  0.0958   30

   7   rms: 0.8953E-02   max: -.7641E-01   D at   30  2
       a = -2.000      CL =  0.0806
      Cm = -0.0306     CD =  0.01792   =>   CDf =  0.00714    CDp =  0.01078

 Side 1  free  transition at x/c =  0.6903   59
 Side 2  free  transition at x/c =  0.0965   30

   8   rms: 0.8050E-03   max: -.6348E-02   D at   30  2
       a = -2.000      CL =  0.0804
      Cm = -0.0306     CD =  0.01793   =>   CDf =  0.00717    CDp =  0.01076

 Side 1  free  transition at x/c =  0.6903   59
 Side 2  free  transition at x/c =  0.0965   30

   9   rms: 0.1454E-04   max: 0.2015E-03   T at   30  2
       a = -2.000      CL =  0.0804
      Cm = -0.0306     CD =  0.01793   =>   CDf =  0.00718    CDp =  0.01075
 plradd ia,ip,cpol            4           0  5.03313728E-03

 Point added to stored polar  1
 Point written to save file  v43012_Re300k.base.pol                          
 Dump file unspecified or not available
 Calculating wake trajectory ...
 Calculating source influence matrix ...

 Solving BL system ...

 Side 1  free  transition at x/c =  0.6903   59
 Side 2  free  transition at x/c =  0.0965   30

   1   rms: 0.1141E+00   max: -.1871E+01   T at   30  2   RLX: 0.267
       a = -1.500      CL =  0.0933
      Cm = -0.0297     CD =  0.01808   =>   CDf =  0.00718    CDp =  0.01090

 Side 1  free  transition at x/c =  0.6771   58
 Side 2  free  transition at x/c =  0.1049   31

   2   rms: 0.8064E-01   max: -.6747E+00   T at   31  2   RLX: 0.741
       a = -1.500      CL =  0.1204
      Cm = -0.0291     CD =  0.01596   =>   CDf =  0.00741    CDp =  0.00856

 Side 1  free  transition at x/c =  0.6484   56
 Side 2  free  transition at x/c =  0.1106   31

   3   rms: 0.3968E-01   max: -.7041E+00   T at   31  2   RLX: 0.710
       a = -1.500      CL =  0.1254
      Cm = -0.0281     CD =  0.01766   =>   CDf =  0.00741    CDp =  0.01025

 MRCHDU: Convergence failed at  38  side 2    Res =  0.2542E+02
 MRCHDU: Convergence failed at  39  side 2    Res =  0.3179E+02
 MRCHDU: Convergence failed at  40  side 2    Res =  0.3643E+02
 TRCHEK2: N2 convergence failed.
 x:  0.27848  0.29343  0.29566  N:  8.963  9.000  9.008  Nx:   3.590   dN: 0.215E-01
 TRCHEK2: N2 convergence failed.
 x:  0.27848  0.29265  0.29566  N:  8.963  9.000  9.005  Nx:   3.667   dN:-0.590E-02
 TRCHEK2: N2 convergence failed.
 x:  0.27848  0.29301  0.29566  N:  8.963  9.000  9.009  Nx:   3.610   dN: 0.205E-01
 TRCHEK2: N2 convergence failed.
 x:  0.27848  0.29253  0.29566  N:  8.963  9.000  9.006  Nx:   3.737   dN:-0.126E-01
 TRCHEK2: N2 convergence failed.
 x:  0.27848  0.29295  0.29566  N:  8.963  9.000  9.004  Nx:   3.641   dN:-0.664E-02
 TRCHEK2: N2 convergence failed.
 x:  0.27848  0.29207  0.29566  N:  8.963  9.000  9.007  Nx:   4.495   dN:-0.261E-02
 TRCHEK2: N2 convergence failed.
 x:  0.27848  0.29290  0.29566  N:  8.963  9.000  9.004  Nx:   3.671   dN:-0.858E-01
 TRCHEK2: N2 convergence failed.
 x:  0.27848  0.29205  0.29566  N:  8.963  9.000  9.007  Nx:   4.719   dN:-0.255E-02
 TRCHEK2: N2 convergence failed.
 x:  0.27848  0.29287  0.29566  N:  8.963  9.000  9.005  Nx:   3.713   dN:-0.163E-01
 TRCHEK2: N2 convergence failed.
 x:  0.27848  0.29380  0.29566  N:  8.963  9.000  9.007  Nx:   3.656   dN: 0.244E-01
 TRCHEK2: N2 convergence failed.
 x:  0.27848  0.29287  0.29566  N:  8.963  9.000  9.005  Nx:   3.713   dN:-0.169E-01
 TRCHEK2: N2 convergence failed.
 x:  0.27848  0.29219  0.29566  N:  8.963  9.000  9.007  Nx:   4.641   dN:-0.244E-02
 TRCHEK2: N2 convergence failed.
 x:  0.27848  0.29284  0.29566  N:  8.963  9.000  9.005  Nx:   3.764   dN:-0.867E-02
 TRCHEK2: N2 convergence failed.
 x:  0.27848  0.29301  0.29566  N:  8.963  9.000  9.009  Nx:   3.685   dN: 0.223E-01
 TRCHEK2: N2 convergence failed.
 x:  0.27848  0.29278  0.29566  N:  8.963  9.000  9.005  Nx:   3.809   dN:-0.630E-02
 TRCHEK2: N2 convergence failed.
 x:  0.27848  0.29302  0.29566  N:  8.963  9.000  9.009  Nx:   3.688   dN: 0.224E-01
[...]

 Side 1  free  transition at x/c =  0.1500   46
 Side 2 forced transition at x/c =  1.0000   65

   4   rms: 0.1029E-05   max: 0.4826E-05   D at    6  1
       a = 12.500      CL =  1.4214
      Cm =  0.0162     CD =  0.02681   =>   CDf =  0.00670    CDp =  0.02012
 plradd ia,ip,cpol           39           0 -6.28988957E-04

 Point added to stored polar  1
 Point written to save file  v43012_Re300k.base.pol                          
 Dump file unspecified or not available
 Calculating wake trajectory ...
 Calculating source influence matrix ...

 Solving BL system ...

 Side 1  free  transition at x/c =  0.1500   46
 Side 2 forced transition at x/c =  1.0000   65

   1   rms: 0.3251E-01   max: 0.1142E+00   T at   46  1
       a = 12.750      CL =  1.4355
      Cm =  0.0178     CD =  0.02739   =>   CDf =  0.00670    CDp =  0.02069

 Side 1  free  transition at x/c =  0.1482   46
 Side 2 forced transition at x/c =  1.0000   65

   2   rms: 0.5288E-02   max: 0.2555E-01   T at   46  1
       a = 12.750      CL =  1.4401
      Cm =  0.0170     CD =  0.02763   =>   CDf =  0.00670    CDp =  0.02093

 Side 1  free  transition at x/c =  0.1478   46
 Side 2 forced transition at x/c =  1.0000   65

   3   rms: 0.3842E-03   max: 0.2274E-02   T at   46  1
       a = 12.750      CL =  1.4403
      Cm =  0.0169     CD =  0.02766   =>   CDf =  0.00672    CDp =  0.02094

 Side 1  free  transition at x/c =  0.1478   46
 Side 2 forced transition at x/c =  1.0000   65

   4   rms: 0.2197E-04   max: 0.9245E-04   D at   95  1
       a = 12.750      CL =  1.4403
      Cm =  0.0169     CD =  0.02766   =>   CDf =  0.00673    CDp =  0.02094
 plradd ia,ip,cpol           40           0 -6.28988957E-04

 Point added to stored polar  1
 Point written to save file  v43012_Re300k.base.pol                          
 Dump file unspecified or not available
 Calculating wake trajectory ...
 Calculating source influence matrix ...

 Solving BL system ...

 Side 1  free  transition at x/c =  0.1478   46
 Side 2 forced transition at x/c =  1.0000   65

   1   rms: 0.4624E-01   max: 0.1368E+00   T at   46  1
       a = 13.000      CL =  1.4686
      Cm =  0.0158     CD =  0.02914   =>   CDf =  0.00673    CDp =  0.02241

 Side 1  free  transition at x/c =  0.1458   45
 Side 2 forced transition at x/c =  1.0000   65

   2   rms: 0.2087E-01   max: -.1441E+00   D at   45  1
       a = 13.000      CL =  1.4499
      Cm =  0.0192     CD =  0.02840   =>   CDf =  0.00655    CDp =  0.02185

 Side 1  free  transition at x/c =  0.1467   45
 Side 2 forced transition at x/c =  1.0000   65

   3   rms: 0.1898E-02   max: 0.2329E-01   D at   95  1
       a = 13.000      CL =  1.4497
      Cm =  0.0191     CD =  0.02839   =>   CDf =  0.00658    CDp =  0.02181

 Side 1  free  transition at x/c =  0.1467   45
 Side 2 forced transition at x/c =  1.0000   65

   4   rms: 0.2830E-04   max: 0.3226E-03   D at   68  2
       a = 13.000      CL =  1.4497
      Cm =  0.0191     CD =  0.02839   =>   CDf =  0.00658    CDp =  0.02182
 plradd ia,ip,cpol           41           0 -6.28988957E-04

 Point added to stored polar  1
 Point written to save file  v43012_Re300k.base.pol                          
 Dump file unspecified or not available
 Calculating wake trajectory ...
 Calculating source influence matrix ...

 Solving BL system ...

 Side 1  free  transition at x/c =  0.1467   45
 Side 2 forced transition at x/c =  1.0000   65

   1   rms: 0.2970E-01   max: 0.9568E-01   T at   45  1
       a = 13.250      CL =  1.4555
      Cm =  0.0219     CD =  0.02906   =>   CDf =  0.00658    CDp =  0.02248

 Side 1  free  transition at x/c =  0.1451   45
 Side 2 forced transition at x/c =  1.0000   65

   2   rms: 0.2210E-02   max: -.1284E-01   D at   46  1
       a = 13.250      CL =  1.4553
      Cm =  0.0218     CD =  0.02905   =>   CDf =  0.00641    CDp =  0.02264

 Side 1  free  transition at x/c =  0.1451   45
 Side 2 forced transition at x/c =  1.0000   65

   3   rms: 0.1803E-03   max: -.8191E-03   D at   93  1
       a = 13.250      CL =  1.4555
      Cm =  0.0217     CD =  0.02905   =>   CDf =  0.00641    CDp =  0.02264

 Side 1  free  transition at x/c =  0.1451   45
 Side 2 forced transition at x/c =  1.0000   65

   4   rms: 0.7129E-06   max: -.4622E-05   D at   87  2
       a = 13.250      CL =  1.4555
      Cm =  0.0217     CD =  0.02905   =>   CDf =  0.00641    CDp =  0.02264
 plradd ia,ip,cpol           42           0 -6.28988957E-04

 Point added to stored polar  1
 Point written to save file  v43012_Re300k.base.pol                          
 Dump file unspecified or not available
 Calculating wake trajectory ...
 Calculating source influence matrix ...

 Solving BL system ...

 Side 1  free  transition at x/c =  0.1451   45
 Side 2 forced transition at x/c =  1.0000   65

   1   rms: 0.3116E-01   max: 0.8321E-01   T at   45  1
       a = 13.500      CL =  1.4635
      Cm =  0.0239     CD =  0.02983   =>   CDf =  0.00606    CDp =  0.02377

 Side 1  free  transition at x/c =  0.1434   46
 Side 2 forced transition at x/c =  1.0000   64

   2   rms: 0.3241E-02   max: -.2857E-01   D at    3  1
       a = 13.500      CL =  1.4629
      Cm =  0.0239     CD =  0.02980   =>   CDf =  0.00626    CDp =  0.02354

 Side 1  free  transition at x/c =  0.1435   46
 Side 2 forced transition at x/c =  1.0000   64

   3   rms: 0.1012E-02   max: -.1330E-01   D at    4  1
       a = 13.500      CL =  1.4631
      Cm =  0.0238     CD =  0.02980   =>   CDf =  0.00626    CDp =  0.02354

 Side 1  free  transition at x/c =  0.1435   46
 Side 2 forced transition at x/c =  1.0000   64

   4   rms: 0.2063E-05   max: -.1194E-04   D at    9  1
       a = 13.500      CL =  1.4631
      Cm =  0.0238     CD =  0.02980   =>   CDf =  0.00626    CDp =  0.02354
 plradd ia,ip,cpol           43           0 -6.28988957E-04

 Point added to stored polar  1
 Point written to save file  v43012_Re300k.base.pol                          
 Dump file unspecified or not available
 Calculating wake trajectory ...
 Calculating source influence matrix ...

 Solving BL system ...

 Side 1  free  transition at x/c =  0.1435   46
 Side 2 forced transition at x/c =  1.0000   64

   1   rms: 0.3056E-01   max: 0.9404E-01   T at   46  1
       a = 13.750      CL =  1.4700
      Cm =  0.0260     CD =  0.03054   =>   CDf =  0.00626    CDp =  0.02428

 Side 1  free  transition at x/c =  0.1416   46
 Side 2 forced transition at x/c =  1.0000   64

   2   rms: 0.1124E-02   max: 0.6359E-02   D at   91  1
       a = 13.750      CL =  1.4708
      Cm =  0.0258     CD =  0.03051   =>   CDf =  0.00615    CDp =  0.02436

 Side 1  free  transition at x/c =  0.1416   46
 Side 2 forced transition at x/c =  1.0000   64

   3   rms: 0.4194E-05   max: -.4256E-04   D at   75  2
       a = 13.750      CL =  1.4708
      Cm =  0.0258     CD =  0.03051   =>   CDf =  0.00615    CDp =  0.02436
 plradd ia,ip,cpol           44           0 -6.28988957E-04

 Point added to stored polar  1
 Point written to save file  v43012_Re300k.base.pol                          
 Dump file unspecified or not available
 Calculating wake trajectory ...
 Calculating source influence matrix ...

 Solving BL system ...

 Side 1  free  transition at x/c =  0.1416   46
 Side 2 forced transition at x/c =  1.0000   64

   1   rms: 0.3163E-01   max: 0.8180E-01   T at   46  1
       a = 14.000      CL =  1.4797
      Cm =  0.0275     CD =  0.03131   =>   CDf =  0.00615    CDp =  0.02516

 Side 1  free  transition at x/c =  0.1401   46
 Side 2 forced transition at x/c =  1.0000   64

   2   rms: 0.8238E-03   max: 0.7881E-02   D at   90  1
       a = 14.000      CL =  1.4801
      Cm =  0.0274     CD =  0.03128   =>   CDf =  0.00606    CDp =  0.02522

 Side 1  free  transition at x/c =  0.1400   46
 Side 2 forced transition at x/c =  1.0000   64

   3   rms: 0.5569E-04   max: 0.2809E-03   D at   90  1
       a = 14.000      CL =  1.4800
      Cm =  0.0274     CD =  0.03128   =>   CDf =  0.00606    CDp =  0.02523
 plradd ia,ip,cpol           45           0 -6.28988957E-04

 Point added to stored polar  1
 Point written to save file  v43012_Re300k.base.pol                          
 Dump file unspecified or not available
 Calculating wake trajectory ...
 Calculating source influence matrix ...

 Solving BL system ...

 Side 1  free  transition at x/c =  0.1400   46
 Side 2 forced transition at x/c =  1.0000   64

   1   rms: 0.3082E-01   max: 0.7928E-01   T at   46  1
       a = 14.250      CL =  1.4899
      Cm =  0.0288     CD =  0.03214   =>   CDf =  0.00606    CDp =  0.02608

 Side 1  free  transition at x/c =  0.1385   46
 Side 2 forced transition at x/c =  1.0000   64

   2   rms: 0.2397E-02   max: -.2062E-01   D at   46  1
       a = 14.250      CL =  1.4895
      Cm =  0.0288     CD =  0.03210   =>   CDf =  0.00598    CDp =  0.02611

 Side 1  free  transition at x/c =  0.1386   46
 Side 2 forced transition at x/c =  1.0000   64

   3   rms: 0.2637E-03   max: -.1053E-02   D at   90  1
       a = 14.250      CL =  1.4897
      Cm =  0.0288     CD =  0.03210   =>   CDf =  0.00598    CDp =  0.02611

 Side 1  free  transition at x/c =  0.1386   46
 Side 2 forced transition at x/c =  1.0000   64

   4   rms: 0.4035E-05   max: 0.2720E-04   C at   64  2
       a = 14.250      CL =  1.4897
      Cm =  0.0288     CD =  0.03210   =>   CDf =  0.00598    CDp =  0.02611
 plradd ia,ip,cpol           46           0 -1.22355425E-03

 Point added to stored polar  1
 Point written to save file  v43012_Re300k.base.pol                          
 Dump file unspecified or not available
 Calculating wake trajectory ...
 Calculating source influence matrix ...

 Solving BL system ...

 Side 1  free  transition at x/c =  0.1386   46
 Side 2 forced transition at x/c =  1.0000   64

   1   rms: 0.3114E-01   max: 0.9181E-01   T at   46  1   RLX: 0.974
       a = 14.500      CL =  1.4995
      Cm =  0.0300     CD =  0.03294   =>   CDf =  0.00561    CDp =  0.02733

 Side 1  free  transition at x/c =  0.1370   47
 Side 2 forced transition at x/c =  1.0000   63

   2   rms: 0.3025E-02   max: -.2784E-01   D at   47  1
       a = 14.500      CL =  1.4996
      Cm =  0.0300     CD =  0.03294   =>   CDf =  0.00594    CDp =  0.02700

 Side 1  free  transition at x/c =  0.1370   47
 Side 2 forced transition at x/c =  1.0000   63

   3   rms: 0.3729E-03   max: -.1447E-02   D at   89  1
       a = 14.500      CL =  1.4999
      Cm =  0.0300     CD =  0.03293   =>   CDf =  0.00594    CDp =  0.02699

 Side 1  free  transition at x/c =  0.1370   47
 Side 2 forced transition at x/c =  1.0000   63

   4   rms: 0.2182E-05   max: 0.2843E-04   C at   63  2
       a = 14.500      CL =  1.4999
      Cm =  0.0300     CD =  0.03293   =>   CDf =  0.00594    CDp =  0.02700
 plradd ia,ip,cpol           47           0 -1.22355425E-03

 Point added to stored polar  1
 Point written to save file  v43012_Re300k.base.pol                          
 Dump file unspecified or not available
 Calculating wake trajectory ...
 Calculating source influence matrix ...

 Solving BL system ...

 Side 1  free  transition at x/c =  0.1370   47
 Side 2 forced transition at x/c =  1.0000   63

   1   rms: 0.3175E-01   max: 0.1064E+00   T at   47  1   RLX: 0.942
       a = 14.750      CL =  1.5106
      Cm =  0.0310     CD =  0.03382   =>   CDf =  0.00594    CDp =  0.02788

 Side 1  free  transition at x/c =  0.1354   47
 Side 2 forced transition at x/c =  1.0000   63

   2   rms: 0.6625E-02   max: 0.2901E-01   T at   47  1
       a = 14.750      CL =  1.5152
      Cm =  0.0307     CD =  0.03390   =>   CDf =  0.00593    CDp =  0.02797

 Side 1  free  transition at x/c =  0.1349   47
 Side 2 forced transition at x/c =  1.0000   63

   3   rms: 0.6787E-03   max: 0.3232E-02   T at   47  1
       a = 14.750      CL =  1.5156
      Cm =  0.0307     CD =  0.03394   =>   CDf =  0.00596    CDp =  0.02798

 Side 1  free  transition at x/c =  0.1348   47
 Side 2 forced transition at x/c =  1.0000   63

   4   rms: 0.3249E-04   max: 0.1493E-03   D at   88  1
       a = 14.750      CL =  1.5156
      Cm =  0.0307     CD =  0.03395   =>   CDf =  0.00596    CDp =  0.02798
 plradd ia,ip,cpol           48           0 -1.61042530E-03

 Point added to stored polar  1
 Point written to save file  v43012_Re300k.base.pol                          
 Dump file unspecified or not available
 Calculating wake trajectory ...
 Calculating source influence matrix ...

 Solving BL system ...

 Side 1  free  transition at x/c =  0.1348   47
 Side 2 forced transition at x/c =  1.0000   63

   1   rms: 0.4649E-01   max: 0.1639E+00   T at   47  1   RLX: 0.946
       a = 15.000      CL =  1.5408
      Cm =  0.0303     CD =  0.03530   =>   CDf =  0.00597    CDp =  0.02934

 Side 1  free  transition at x/c =  0.1321   46
 Side 2 forced transition at x/c =  1.0000   63

   2   rms: 0.3612E-01   max: -.1954E+00   D at   46  1
       a = 15.000      CL =  1.5147
      Cm =  0.0326     CD =  0.03537   =>   CDf =  0.00574    CDp =  0.02963

 Side 1  free  transition at x/c =  0.1336   46
 Side 2 forced transition at x/c =  1.0000   63

   3   rms: 0.3280E-02   max: 0.3973E-01   D at   89  1
       a = 15.000      CL =  1.5144
      Cm =  0.0324     CD =  0.03536   =>   CDf =  0.00576    CDp =  0.02960

 Side 1  free  transition at x/c =  0.1336   46
 Side 2 forced transition at x/c =  1.0000   63

   4   rms: 0.1870E-03   max: -.1658E-02   D at   89  1
       a = 15.000      CL =  1.5145
      Cm =  0.0324     CD =  0.03535   =>   CDf =  0.00575    CDp =  0.02959

 Side 1  free  transition at x/c =  0.1336   46
 Side 2 forced transition at x/c =  1.0000   63

   5   rms: 0.2791E-05   max: 0.3862E-04   C at   63  2
       a = 15.000      CL =  1.5145
      Cm =  0.0324     CD =  0.03535   =>   CDf =  0.00575    CDp =  0.02959
 plradd ia,ip,cpol           49           0 -1.61042530E-03

 Point added to stored polar  1
 Point written to save file  v43012_Re300k.base.pol                          
 Dump file unspecified or not available
 Calculating wake trajectory ...
 Calculating source influence matrix ...

 Solving BL system ...

 Side 1  free  transition at x/c =  0.1336   46
 Side 2 forced transition at x/c =  1.0000   63

   1   rms: 0.3401E-01   max: 0.1066E+00   D at   83  1   RLX: 0.852
       a = 15.250      CL =  1.5135
      Cm =  0.0337     CD =  0.03675   =>   CDf =  0.00576    CDp =  0.03099

 Side 1  free  transition at x/c =  0.1320   46
 Side 2 forced transition at x/c =  1.0000   63

   2   rms: 0.5258E-02   max: 0.3294E-01   D at   86  1
       a = 15.250      CL =  1.5125
      Cm =  0.0338     CD =  0.03694   =>   CDf =  0.00559    CDp =  0.03135

 Side 1  free  transition at x/c =  0.1318   46
 Side 2 forced transition at x/c =  1.0000   63

   3   rms: 0.2879E-03   max: -.1952E-02   D at   86  1
       a = 15.250      CL =  1.5127
      Cm =  0.0338     CD =  0.03691   =>   CDf =  0.00556    CDp =  0.03135

 Side 1  free  transition at x/c =  0.1318   46
 Side 2 forced transition at x/c =  1.0000   63

   4   rms: 0.1057E-04   max: 0.5135E-04   C at   63  2
       a = 15.250      CL =  1.5127
      Cm =  0.0338     CD =  0.03691   =>   CDf =  0.00556    CDp =  0.03135
 plradd ia,ip,cpol           50           0 -1.61042530E-03

 Point added to stored polar  1
 Point written to save file  v43012_Re300k.base.pol                          
 Dump file unspecified or not available
 Calculating wake trajectory ...
 Calculating source influence matrix ...

 Solving BL system ...

 Side 1  free  transition at x/c =  0.1318   46
 Side 2 forced transition at x/c =  1.0000   63

   1   rms: 0.3227E-01   max: 0.1014E+00   D at   81  1   RLX: 0.813
       a = 15.500      CL =  1.5135
      Cm =  0.0345     CD =  0.03833   =>   CDf =  0.00556    CDp =  0.03276

 Side 1  free  transition at x/c =  0.1299   46
 Side 2 forced transition at x/c =  1.0000   63

   2   rms: 0.6481E-02   max: -.3750E-01   D at   46  1
       a = 15.500      CL =  1.5127
      Cm =  0.0347     CD =  0.03855   =>   CDf =  0.00544    CDp =  0.03311

 Side 1  free  transition at x/c =  0.1296   46
 Side 2 forced transition at x/c =  1.0000   63

   3   rms: 0.5560E-03   max: -.2837E-02   D at   84  1
       a = 15.500      CL =  1.5130
      Cm =  0.0347     CD =  0.03850   =>   CDf =  0.00541    CDp =  0.03308

 Side 1  free  transition at x/c =  0.1296   46
 Side 2 forced transition at x/c =  1.0000   63

   4   rms: 0.3846E-04   max: 0.1528E-03   C at   63  2
       a = 15.500      CL =  1.5131
      Cm =  0.0347     CD =  0.03850   =>   CDf =  0.00541    CDp =  0.03308
 plradd ia,ip,cpol           51           0 -1.61042530E-03

 Point added to stored polar  1
 Point written to save file  v43012_Re300k.base.pol                          
 Dump file unspecified or not available
 Calculating wake trajectory ...
 Calculating source influence matrix ...

 Solving BL system ...

 Side 1  free  transition at x/c =  0.1296   46
 Side 2 forced transition at x/c =  1.0000   63

   1   rms: 0.3217E-01   max: 0.9436E-01   D at   80  1   RLX: 0.779
       a = 15.750      CL =  1.5154
      Cm =  0.0351     CD =  0.03987   =>   CDf =  0.00502    CDp =  0.03485

 Side 1  free  transition at x/c =  0.1276   47
 Side 2 forced transition at x/c =  1.0000   62

   2   rms: 0.8490E-02   max: -.6486E-01   D at   47  1
       a = 15.750      CL =  1.5151
      Cm =  0.0352     CD =  0.04007   =>   CDf =  0.00534    CDp =  0.03474

 Side 1  free  transition at x/c =  0.1273   47
 Side 2 forced transition at x/c =  1.0000   62

   3   rms: 0.1050E-02   max: -.5278E-02   D at   47  1
       a = 15.750      CL =  1.5156
      Cm =  0.0352     CD =  0.04000   =>   CDf =  0.00532    CDp =  0.03468

 Side 1  free  transition at x/c =  0.1273   47
 Side 2 forced transition at x/c =  1.0000   62

   4   rms: 0.1103E-03   max: -.3372E-03   D at   73  2
       a = 15.750      CL =  1.5156
      Cm =  0.0352     CD =  0.04000   =>   CDf =  0.00532    CDp =  0.03468

 Side 1  free  transition at x/c =  0.1273   47
 Side 2 forced transition at x/c =  1.0000   62

   5   rms: 0.6745E-05   max: 0.2836E-04   C at   62  2
       a = 15.750      CL =  1.5157
      Cm =  0.0352     CD =  0.04000   =>   CDf =  0.00532    CDp =  0.03468
 plradd ia,ip,cpol           52           0 -1.61042530E-03

 Point added to stored polar  1
 Point written to save file  v43012_Re300k.base.pol                          
 Dump file unspecified or not available
 Calculating wake trajectory ...
 Calculating source influence matrix ...

 Solving BL system ...

 Side 1  free  transition at x/c =  0.1273   47
 Side 2 forced transition at x/c =  1.0000   62

   1   rms: 0.3210E-01   max: 0.1118E+00   T at   47  1   RLX: 0.750
       a = 16.000      CL =  1.5186
      Cm =  0.0353     CD =  0.04128   =>   CDf =  0.00532    CDp =  0.03596

 Side 1  free  transition at x/c =  0.1252   47
 Side 2 forced transition at x/c =  1.0000   62

   2   rms: 0.9652E-02   max: -.9677E-01   D at   47  1
       a = 16.000      CL =  1.5185
      Cm =  0.0354     CD =  0.04158   =>   CDf =  0.00530    CDp =  0.03628

 Side 1  free  transition at x/c =  0.1248   47
 Side 2 forced transition at x/c =  1.0000   62

   3   rms: 0.2010E-02   max: -.8458E-02   D at   82  1
       a = 16.000      CL =  1.5199
      Cm =  0.0354     CD =  0.04143   =>   CDf =  0.00530    CDp =  0.03613

 Side 1  free  transition at x/c =  0.1247   47
 Side 2 forced transition at x/c =  1.0000   62

   4   rms: 0.8220E-04   max: 0.7402E-03   C at   62  2
       a = 16.000      CL =  1.5199
      Cm =  0.0354     CD =  0.04144   =>   CDf =  0.00531    CDp =  0.03614
 plradd ia,ip,cpol           53           0 -1.61042530E-03

 Point added to stored polar  1
 Point written to save file  v43012_Re300k.base.pol                          
 Dump file unspecified or not available

.OPERva   c>  
 Polar accumulation disabled

.OPERv   c>  
 XFOIL   c>  
 XFOIL   c>  