
 ===================================================
  XFOIL Version 6.99
  Copyright (C) 2000   Mark Drela, Harold Youngren

  This software comes with ABSOLUTELY NO WARRANTY,
    subject to the GNU General Public License.

  Caveat computor
 ===================================================

 File  xfoil.def  not found

   QUIT    Exit program

  .OPER    Direct operating point(s)
  .MDES    Complex mapping design routine
  .QDES    Surface speed design routine
  .GDES    Geometry design routine

   SAVE f  Write airfoil to labeled coordinate file
   PSAV f  Write airfoil to plain coordinate file
   ISAV f  Write airfoil to ISES coordinate file
   MSAV f  Write airfoil to MSES coordinate file
   REVE    Reverse written-airfoil node ordering

   LOAD f  Read buffer airfoil from coordinate file
   NACA i  Set NACA 4,5-digit airfoil and buffer airfoil
   INTE    Set buffer airfoil by interpolating two airfoils
   NORM    Buffer airfoil normalization toggle
   XYCM rr Change CM reference location, currently  0.25000 0.00000

   BEND    Display structural properties of current airfoil

   PCOP    Set current-airfoil panel nodes directly from buffer airfoil points
   PANE    Set current-airfoil panel nodes ( 160 ) based on curvature
  .PPAR    Show/change paneling

  .PLOP    Plotting options

   WDEF f  Write  current-settings file
   RDEF f  Reread current-settings file
   NAME s  Specify new airfoil name
   NINC    Increment name version number

   Z       Zoom    | (available in all menus)
   U       Unzoom  | 

 XFOIL   c>  
 Labeled airfoil file.  Name:    BOEING VERTOL V43015-2.48 AIRFOIL             

 Number of input coordinate points:  41
 Counterclockwise ordering
 Max thickness =     0.150238  at x =   0.298
 Max camber    =     0.027765  at x =   0.151

  LE  x,y  =  -0.00250   0.01076  |   Chord =   1.00255
  TE  x,y  =   1.00000   0.00000  |

 Current airfoil nodes set from buffer airfoil nodes (  41 )

 WARNING: Poor input coordinate distribution
          Excessive panel angle   59.8  at i =  21
          Repaneling with PANE and/or PPAR suggested
           (doing GDES,CADD before repaneling _may_
            improve excessively coarse LE spacing

 XFOIL   c>  
 XFOIL   c>  
 Sharp trailing edge

 Paneling parameters used...
   Number of panel nodes       160
   Panel bunching parameter    1.000
   TE/LE panel density ratio   0.150
   Refined-area/LE panel density ratio    0.200
   Top    side refined area x/c limits  1.000 1.000
   Bottom side refined area x/c limits  1.000 1.000

 XFOIL   c>  
.OPERi   c>  
 Xtr/c     =  1.0000    top    side
 Xtr/c     =  1.0000    bottom side
 Ncrit     =    9.00   ( 0.070 % turb. level )
 Vacc      =  0.0100

 Klag  =  5.6000     Uxwt  =    1.00
 A     =  6.7000     B     =  0.7500       KCt = 0.01485
 CtiniK=  1.8000     CtiniX=  3.3000

..VPAR   c>  
..VPAR   c>  
.OPERi   c>  
 M  =    0.0000
 Re =    500000

.OPERv   c>  
.OPERv   c>  
.OPERv   c>  
 Polar  1 newly created for accumulation
 Airfoil archived with polar: BOEING VERTOL V43015-2.48 AIRFOIL               

Enter  polar save filename  OR  <return> for no file   s>  
 New polar save file available

Enter  polar dump filename  OR  <return> for no file   s>  
 Polar dump file will NOT be written

 Polar accumulation enabled

.OPERva   c>   Calculating unit vorticity distributions ...
 Calculating wake trajectory ...
 Calculating source influence matrix ...

 Solving BL system ...

 Initializing BL ...
    side            1  ...
 MRCHUE: Inverse mode at  53     Hk =   4.225
 MRCHUE: Inverse mode at  54     Hk =   4.959
 MRCHUE: Inverse mode at  55     Hk =   5.679
 MRCHUE: Inverse mode at  56     Hk =   6.387
 MRCHUE: Inverse mode at  57     Hk =   4.356
 MRCHUE: Inverse mode at  58     Hk =   2.500
 MRCHUE: Inverse mode at  75     Hk =   2.500
    side            2  ...
 MRCHUE: Inverse mode at  22     Hk =   3.800
 MRCHUE: Inverse mode at  23     Hk =   4.664
 MRCHUE: Inverse mode at  24     Hk =   5.490
 MRCHUE: Convergence failed at  25  side 2    Res =  0.4823E+01
 MRCHUE: Inverse mode at  26     Hk =   6.340
 MRCHUE: Inverse mode at  27     Hk =   7.191
 MRCHUE: Inverse mode at  28     Hk =   8.059
 MRCHUE: Inverse mode at  29     Hk =   8.955
 MRCHUE: Inverse mode at  30     Hk =   7.849
 MRCHUE: Inverse mode at  31     Hk =   4.012
 MRCHUE: Inverse mode at  32     Hk =   2.500
 MRCHUE: Inverse mode at  86     Hk =   2.500
 MRCHUE: Convergence failed at  87  side 2    Res =  0.3852E+01

 MRCHDU: Convergence failed at  31  side 2    Res =  0.1034E+03
 MRCHDU: Convergence failed at  32  side 2    Res =  0.8356E+01
 MRCHDU: Convergence failed at  33  side 2    Res =  0.4155E+01
 MRCHDU: Convergence failed at  34  side 2    Res =  0.2361E+02
 MRCHDU: Convergence failed at  35  side 2    Res =  0.1514E+02
 MRCHDU: Convergence failed at  36  side 2    Res =  0.7509E+01
 MRCHDU: Convergence failed at  37  side 2    Res =  0.6101E+01
 MRCHDU: Convergence failed at  38  side 2    Res =  0.1176E+02
 MRCHDU: Convergence failed at  39  side 2    Res =  0.9512E+02
 MRCHDU: Convergence failed at  40  side 2    Res =  0.2180E+02
 MRCHDU: Convergence failed at  41  side 2    Res =  0.1287E+02
 MRCHDU: Convergence failed at  42  side 2    Res =  0.1447E+02
 MRCHDU: Convergence failed at  43  side 2    Res =  0.3101E+02
 MRCHDU: Convergence failed at  44  side 2    Res =  0.2412E+03
 MRCHDU: Convergence failed at  45  side 2    Res =  0.3307E+02
 MRCHDU: Convergence failed at  46  side 2    Res =  0.2041E+02
 MRCHDU: Convergence failed at  47  side 2    Res =  0.1567E+02
 MRCHDU: Convergence failed at  48  side 2    Res =  0.1285E+02
 MRCHDU: Convergence failed at  49  side 2    Res =  0.1102E+02
 MRCHDU: Convergence failed at  50  side 2    Res =  0.9810E+01
 MRCHDU: Convergence failed at  51  side 2    Res =  0.8738E+01
 MRCHDU: Convergence failed at  52  side 2    Res =  0.4215E+02
 MRCHDU: Convergence failed at  53  side 2    Res =  0.3701E+02
 MRCHDU: Convergence failed at  54  side 2    Res =  0.3546E+02
 MRCHDU: Convergence failed at  55  side 2    Res =  0.1188E+03
 MRCHDU: Convergence failed at  56  side 2    Res =  0.3602E+02
 MRCHDU: Convergence failed at  57  side 2    Res =  0.2838E+03
 MRCHDU: Convergence failed at  58  side 2    Res =  0.4188E+02
 MRCHDU: Convergence failed at  59  side 2    Res =  0.4002E+02
 MRCHDU: Convergence failed at  60  side 2    Res =  0.3371E+02
 MRCHDU: Convergence failed at  61  side 2    Res =  0.6094E+02
 MRCHDU: Convergence failed at  62  side 2    Res =  0.8456E+03
 MRCHDU: Convergence failed at  63  side 2    Res =  0.6646E+02
 MRCHDU: Convergence failed at  64  side 2    Res =  0.5114E+02
 MRCHDU: Convergence failed at  65  side 2    Res =  0.3088E+02
 MRCHDU: Convergence failed at  66  side 2    Res =  0.2618E+02
 MRCHDU: Convergence failed at  67  side 2    Res =  0.2673E+02
 MRCHDU: Convergence failed at  68  side 2    Res =  0.1763E+02
 MRCHDU: Convergence failed at  69  side 2    Res =  0.2048E+02
 MRCHDU: Convergence failed at  70  side 2    Res =  0.2260E+02
 MRCHDU: Convergence failed at  71  side 2    Res =  0.2472E+02
 MRCHDU: Convergence failed at  72  side 2    Res =  0.7468E+02
 MRCHDU: Convergence failed at  73  side 2    Res =  0.6410E+02
 MRCHDU: Convergence failed at  74  side 2    Res =  0.6317E+02
 MRCHDU: Convergence failed at  75  side 2    Res =  0.6316E+02
 MRCHDU: Convergence failed at  76  side 2    Res =  0.4738E+02
 MRCHDU: Convergence failed at  77  side 2    Res =  0.5719E+02
 MRCHDU: Convergence failed at  78  side 2    Res =  0.7656E+02
 MRCHDU: Convergence failed at  79  side 2    Res =  0.1310E+03
 MRCHDU: Convergence failed at  80  side 2    Res =  0.1251E+03
 MRCHDU: Convergence failed at  81  side 2    Res =  0.7711E+02
 MRCHDU: Convergence failed at  82  side 2    Res =  0.1594E+03
 MRCHDU: Convergence failed at  83  side 2    Res =  0.3503E+02
 MRCHDU: Convergence failed at  84  side 2    Res =  0.2069E+02
 MRCHDU: Convergence failed at  85  side 2    Res =  0.2206E+04
 MRCHDU: Convergence failed at  86  side 2    Res =  0.5809E+03
 MRCHDU: Convergence failed at  87  side 2    Res =  0.1309E+03
 Side 1  free  transition at x/c =  0.6798   57
 Side 2  free  transition at x/c =  0.0457   30

   1   rms: 0.1190E+01   max: 0.4816E+01   D at   87  2   RLX: 0.311
       a = -4.000      CL = -1.1037
      Cm =  0.2743     CD =  0.00386   =>   CDf =  0.00285    CDp =  0.00100

 MRCHDU: Convergence failed at  36  side 2    Res =  0.1223E+00
 MRCHDU: Convergence failed at  37  side 2    Res =  0.1181E+00
 MRCHDU: Convergence failed at  38  side 2    Res =  0.1177E+00
 MRCHDU: Convergence failed at  39  side 2    Res =  0.1172E+00
 MRCHDU: Convergence failed at  40  side 2    Res =  0.1194E+00
 MRCHDU: Convergence failed at  41  side 2    Res =  0.1236E+00
 MRCHDU: Convergence failed at  42  side 2    Res =  0.1280E+00
 MRCHDU: Convergence failed at  43  side 2    Res =  0.1322E+00
 MRCHDU: Convergence failed at  44  side 2    Res =  0.1344E+00
 MRCHDU: Convergence failed at  45  side 2    Res =  0.1345E+00
 MRCHDU: Convergence failed at  46  side 2    Res =  0.1334E+00
 MRCHDU: Convergence failed at  47  side 2    Res =  0.1314E+00
 MRCHDU: Convergence failed at  48  side 2    Res =  0.1288E+00
 MRCHDU: Convergence failed at  49  side 2    Res =  0.1257E+00
 MRCHDU: Convergence failed at  50  side 2    Res =  0.1222E+00
 MRCHDU: Convergence failed at  51  side 2    Res =  0.1178E+00
 MRCHDU: Convergence failed at  52  side 2    Res =  0.1134E+00
 MRCHDU: Convergence failed at  53  side 2    Res =  0.1083E+00
 MRCHDU: Convergence failed at  54  side 2    Res =  0.1032E+00
 MRCHDU: Convergence failed at  55  side 2    Res =  0.9663E-01
 MRCHDU: Convergence failed at  56  side 2    Res =  0.2377E+01
 MRCHDU: Convergence failed at  57  side 2    Res =  0.1340E+01
 MRCHDU: Convergence failed at  88  side 2    Res =  0.9391E+01
 Side 1  free  transition at x/c =  0.6896   58
 Side 2  free  transition at x/c =  0.0418   29

   2   rms: 0.6115E+00   max: 0.3140E+01   D at   90  2   RLX: 0.355
       a = -4.000      CL = -0.3710
      Cm =  0.0878     CD =  0.01540   =>   CDf =  0.00423    CDp =  0.01117

 Side 1  free  transition at x/c =  0.7091   60
 Side 2  free  transition at x/c =  0.0425   28

   3   rms: 0.4871E+00   max: -.5655E+01   T at    2  1   RLX: 0.088
       a = -4.000      CL = -0.3461
      Cm =  0.0824     CD =  0.01478   =>   CDf =  0.00604    CDp =  0.00874

 Side 1  free  transition at x/c =  0.7094   60
 Side 2  free  transition at x/c =  0.0426   28

   4   rms: 0.3433E+00   max: -.5605E+00   D at   87  2   RLX: 0.474
       a = -4.000      CL = -0.1162
      Cm =  0.0006     CD =  0.01634   =>   CDf =  0.00613    CDp =  0.01021

 Side 1  free  transition at x/c =  0.7347   62
 Side 2  free  transition at x/c =  0.0431   28

   5   rms: 0.4142E+00   max: -.2004E+01   D at   62  2   RLX: 0.249
       a = -4.000      CL = -0.0361
      Cm = -0.0281     CD =  0.01423   =>   CDf =  0.00598    CDp =  0.00825

 Side 1  free  transition at x/c =  0.7392   62
 Side 2  free  transition at x/c =  0.0436   28

   6   rms: 0.7974E+00   max: -.4319E+01   D at   61  2   RLX: 0.116
       a = -4.000      CL =  0.0098
      Cm = -0.0395     CD =  0.01328   =>   CDf =  0.00611    CDp =  0.00717

 MRCHDU: Convergence failed at  57  side 2    Res =  0.3491E+00
 Side 1  free  transition at x/c =  0.7386   62
 Side 2  free  transition at x/c =  0.0442   28

   7   rms: 0.2315E+00   max: -.1255E+01   D at   68  2   RLX: 0.398
       a = -4.000      CL =  0.0212
      Cm = -0.0486     CD =  0.01318   =>   CDf =  0.00668    CDp =  0.00650

 Side 1  free  transition at x/c =  0.7453   62
 Side 2  free  transition at x/c =  0.0434   28

   8   rms: 0.2211E+00   max: -.1022E+01   D at   69  2   RLX: 0.489
       a = -4.000      CL = -0.0106
      Cm = -0.0501     CD =  0.01293   =>   CDf =  0.00661    CDp =  0.00632

 Side 1  free  transition at x/c =  0.7500   62
 Side 2  free  transition at x/c =  0.0421   28
 idif Ue xi dudx           1  0.11317986      3.35788727E-03   33.705677    
 Uenew xinew           2  1.84548106E-02  5.47528267E-04

   9   rms: 0.1287E+00   max: 0.7948E+00   D at   72  2   RLX: 0.796
       a = -4.000      CL = -0.0650
      Cm = -0.0396     CD =  0.01327   =>   CDf =  0.00697    CDp =  0.00631

 Side 1  free  transition at x/c =  0.7592   62
 Side 2  free  transition at x/c =  0.0412   28

  10   rms: 0.3608E-01   max: -.3225E+00   D at   71  2
       a = -4.000      CL = -0.0772
      Cm = -0.0374     CD =  0.01371   =>   CDf =  0.00694    CDp =  0.00677

 Side 1  free  transition at x/c =  0.7593   62
 Side 2  free  transition at x/c =  0.0408   28

  11   rms: 0.5026E-02   max: -.6499E-01   D at   88  2
       a = -4.000      CL = -0.0777
      Cm = -0.0373     CD =  0.01373   =>   CDf =  0.00690    CDp =  0.00683

 Side 1  free  transition at x/c =  0.7592   62
 Side 2  free  transition at x/c =  0.0408   28

  12   rms: 0.2085E-03   max: -.4077E-02   D at   88  2
       a = -4.000      CL = -0.0776
      Cm = -0.0373     CD =  0.01373   =>   CDf =  0.00690    CDp =  0.00683

 Side 1  free  transition at x/c =  0.7592   62
 Side 2  free  transition at x/c =  0.0408   28

  13   rms: 0.1028E-05   max: -.1598E-04   D at   88  2
       a = -4.000      CL = -0.0776
      Cm = -0.0373     CD =  0.01373   =>   CDf =  0.00690    CDp =  0.00683
 plradd ia,ip,cpol            1           0  6.18834049E-03

 Point added to stored polar  1
 Point written to save file  v43015_Re500k.base.pol                          
 Dump file unspecified or not available
 Calculating wake trajectory ...
 Calculating source influence matrix ...

 Solving BL system ...

 Side 1  free  transition at x/c =  0.7592   62
 Side 2  free  transition at x/c =  0.0408   28

   1   rms: 0.9161E-01   max: 0.8441E+00   C at   62  1
       a = -3.500      CL = -0.0307
      Cm = -0.0347     CD =  0.01311   =>   CDf =  0.00696    CDp =  0.00615

 Side 1  free  transition at x/c =  0.7070   60
 Side 2  free  transition at x/c =  0.0418   28

   2   rms: 0.3315E-01   max: 0.2583E+00   D at   28  2
       a = -3.500      CL = -0.0334
      Cm = -0.0343     CD =  0.01289   =>   CDf =  0.00716    CDp =  0.00573

 Side 1  free  transition at x/c =  0.7115   60
 Side 2  free  transition at x/c =  0.0417   28

   3   rms: 0.4568E-02   max: -.7315E-01   C at   60  1
       a = -3.500      CL = -0.0337
      Cm = -0.0343     CD =  0.01289   =>   CDf =  0.00714    CDp =  0.00575

 Side 1  free  transition at x/c =  0.7108   60
 Side 2  free  transition at x/c =  0.0417   28

   4   rms: 0.4421E-02   max: -.8799E-01   C at   60  1
       a = -3.500      CL = -0.0337
      Cm = -0.0343     CD =  0.01289   =>   CDf =  0.00715    CDp =  0.00575

 Side 1  free  transition at x/c =  0.7108   60
 Side 2  free  transition at x/c =  0.0417   28

   5   rms: 0.4336E-02   max: -.8644E-01   C at   60  1
       a = -3.500      CL = -0.0337
      Cm = -0.0343     CD =  0.01289   =>   CDf =  0.00715    CDp =  0.00575

 Side 1  free  transition at x/c =  0.7108   60
 Side 2  free  transition at x/c =  0.0417   28

   6   rms: 0.4344E-02   max: -.8659E-01   C at   60  1
       a = -3.500      CL = -0.0337
      Cm = -0.0343     CD =  0.01289   =>   CDf =  0.00715    CDp =  0.00575

 Side 1  free  transition at x/c =  0.7108   60
 Side 2  free  transition at x/c =  0.0417   28

   7   rms: 0.4343E-02   max: -.8657E-01   C at   60  1
       a = -3.500      CL = -0.0337
      Cm = -0.0343     CD =  0.01289   =>   CDf =  0.00715    CDp =  0.00575

 Side 1  free  transition at x/c =  0.7108   60
 Side 2  free  transition at x/c =  0.0417   28

   8   rms: 0.4344E-02   max: -.8658E-01   C at   60  1
       a = -3.500      CL = -0.0337
      Cm = -0.0343     CD =  0.01289   =>   CDf =  0.00715    CDp =  0.00575

 Side 1  free  transition at x/c =  0.7108   60
 Side 2  free  transition at x/c =  0.0417   28

   9   rms: 0.4344E-02   max: -.8658E-01   C at   60  1
       a = -3.500      CL = -0.0337
      Cm = -0.0343     CD =  0.01289   =>   CDf =  0.00715    CDp =  0.00575

 Side 1  free  transition at x/c =  0.7108   60
 Side 2  free  transition at x/c =  0.0417   28

  10   rms: 0.4343E-02   max: -.8658E-01   C at   60  1
       a = -3.500      CL = -0.0337
      Cm = -0.0343     CD =  0.01289   =>   CDf =  0.00715    CDp =  0.00575

 Side 1  free  transition at x/c =  0.7108   60
 Side 2  free  transition at x/c =  0.0417   28

  11   rms: 0.4343E-02   max: -.8657E-01   C at   60  1
       a = -3.500      CL = -0.0337
      Cm = -0.0343     CD =  0.01289   =>   CDf =  0.00715    CDp =  0.00575

 Side 1  free  transition at x/c =  0.7108   60
 Side 2  free  transition at x/c =  0.0417   28

  12   rms: 0.4344E-02   max: -.8658E-01   C at   60  1
       a = -3.500      CL = -0.0337
      Cm = -0.0343     CD =  0.01289   =>   CDf =  0.00715    CDp =  0.00575

 Side 1  free  transition at x/c =  0.7108   60
 Side 2  free  transition at x/c =  0.0417   28

  13   rms: 0.4343E-02   max: -.8658E-01   C at   60  1
       a = -3.500      CL = -0.0337
      Cm = -0.0343     CD =  0.01289   =>   CDf =  0.00715    CDp =  0.00575

 Side 1  free  transition at x/c =  0.7108   60
 Side 2  free  transition at x/c =  0.0417   28

  14   rms: 0.4343E-02   max: -.8657E-01   C at   60  1
       a = -3.500      CL = -0.0337
      Cm = -0.0343     CD =  0.01289   =>   CDf =  0.00715    CDp =  0.00575

 Side 1  free  transition at x/c =  0.7108   60
 Side 2  free  transition at x/c =  0.0417   28

  15   rms: 0.4343E-02   max: -.8658E-01   C at   60  1
       a = -3.500      CL = -0.0337
      Cm = -0.0343     CD =  0.01289   =>   CDf =  0.00715    CDp =  0.00575

 Side 1  free  transition at x/c =  0.7108   60
 Side 2  free  transition at x/c =  0.0417   28

  16   rms: 0.4344E-02   max: -.8658E-01   C at   60  1
       a = -3.500      CL = -0.0337
      Cm = -0.0343     CD =  0.01289   =>   CDf =  0.00715    CDp =  0.00575

 Side 1  free  transition at x/c =  0.7108   60
 Side 2  free  transition at x/c =  0.0417   28

  17   rms: 0.4344E-02   max: -.8658E-01   C at   60  1
       a = -3.500      CL = -0.0337
      Cm = -0.0343     CD =  0.01289   =>   CDf =  0.00715    CDp =  0.00575

 Side 1  free  transition at x/c =  0.7108   60
 Side 2  free  transition at x/c =  0.0417   28

  18   rms: 0.4343E-02   max: -.8657E-01   C at   60  1
       a = -3.500      CL = -0.0337
      Cm = -0.0343     CD =  0.01289   =>   CDf =  0.00715    CDp =  0.00575

 Side 1  free  transition at x/c =  0.7108   60
 Side 2  free  transition at x/c =  0.0417   28

  19   rms: 0.4343E-02   max: -.8657E-01   C at   60  1
       a = -3.500      CL = -0.0337
      Cm = -0.0343     CD =  0.01289   =>   CDf =  0.00715    CDp =  0.00575

 Side 1  free  transition at x/c =  0.7108   60
 Side 2  free  transition at x/c =  0.0417   28

  20   rms: 0.4343E-02   max: -.8658E-01   C at   60  1
       a = -3.500      CL = -0.0337
      Cm = -0.0343     CD =  0.01289   =>   CDf =  0.00715    CDp =  0.00575

 Side 1  free  transition at x/c =  0.7108   60
 Side 2  free  transition at x/c =  0.0417   28

  21   rms: 0.4343E-02   max: -.8658E-01   C at   60  1
       a = -3.500      CL = -0.0337
      Cm = -0.0343     CD =  0.01289   =>   CDf =  0.00715    CDp =  0.00575

 Side 1  free  transition at x/c =  0.7108   60
 Side 2  free  transition at x/c =  0.0417   28

  22   rms: 0.4344E-02   max: -.8658E-01   C at   60  1
       a = -3.500      CL = -0.0337
      Cm = -0.0343     CD =  0.01289   =>   CDf =  0.00715    CDp =  0.00575

 Side 1  free  transition at x/c =  0.7108   60
 Side 2  free  transition at x/c =  0.0417   28

  23   rms: 0.4343E-02   max: -.8657E-01   C at   60  1
       a = -3.500      CL = -0.0337
      Cm = -0.0343     CD =  0.01289   =>   CDf =  0.00715    CDp =  0.00575

 Side 1  free  transition at x/c =  0.7108   60
 Side 2  free  transition at x/c =  0.0417   28

  24   rms: 0.4344E-02   max: -.8658E-01   C at   60  1
       a = -3.500      CL = -0.0337
      Cm = -0.0343     CD =  0.01289   =>   CDf =  0.00715    CDp =  0.00575

 Side 1  free  transition at x/c =  0.7108   60
 Side 2  free  transition at x/c =  0.0417   28

  25   rms: 0.4343E-02   max: -.8657E-01   C at   60  1
       a = -3.500      CL = -0.0337
      Cm = -0.0343     CD =  0.01289   =>   CDf =  0.00715    CDp =  0.00575

 Side 1  free  transition at x/c =  0.7108   60
 Side 2  free  transition at x/c =  0.0417   28

  26   rms: 0.4343E-02   max: -.8657E-01   C at   60  1
       a = -3.500      CL = -0.0337
      Cm = -0.0343     CD =  0.01289   =>   CDf =  0.00715    CDp =  0.00575

 Side 1  free  transition at x/c =  0.7108   60
 Side 2  free  transition at x/c =  0.0417   28

  27   rms: 0.4343E-02   max: -.8658E-01   C at   60  1
       a = -3.500      CL = -0.0337
      Cm = -0.0343     CD =  0.01289   =>   CDf =  0.00715    CDp =  0.00575

 Side 1  free  transition at x/c =  0.7108   60
 Side 2  free  transition at x/c =  0.0417   28

  28   rms: 0.4344E-02   max: -.8658E-01   C at   60  1
       a = -3.500      CL = -0.0337
      Cm = -0.0343     CD =  0.01289   =>   CDf =  0.00715    CDp =  0.00575

 Side 1  free  transition at x/c =  0.7108   60
 Side 2  free  transition at x/c =  0.0417   28

  29   rms: 0.4343E-02   max: -.8657E-01   C at   60  1
       a = -3.500      CL = -0.0337
      Cm = -0.0343     CD =  0.01289   =>   CDf =  0.00715    CDp =  0.00575

 Side 1  free  transition at x/c =  0.7108   60
 Side 2  free  transition at x/c =  0.0417   28

  30   rms: 0.4343E-02   max: -.8657E-01   C at   60  1
       a = -3.500      CL = -0.0337
      Cm = -0.0343     CD =  0.01289   =>   CDf =  0.00715    CDp =  0.00575

 Side 1  free  transition at x/c =  0.7108   60
 Side 2  free  transition at x/c =  0.0417   28

  31   rms: 0.4343E-02   max: -.8658E-01   C at   60  1
       a = -3.500      CL = -0.0337
      Cm = -0.0343     CD =  0.01289   =>   CDf =  0.00715    CDp =  0.00575

 Side 1  free  transition at x/c =  0.7108   60
 Side 2  free  transition at x/c =  0.0417   28

  32   rms: 0.4343E-02   max: -.8658E-01   C at   60  1
       a = -3.500      CL = -0.0337
      Cm = -0.0343     CD =  0.01289   =>   CDf =  0.00715    CDp =  0.00575

 Side 1  free  transition at x/c =  0.7108   60
 Side 2  free  transition at x/c =  0.0417   28

  33   rms: 0.4343E-02   max: -.8658E-01   C at   60  1
       a = -3.500      CL = -0.0337
      Cm = -0.0343     CD =  0.01289   =>   CDf =  0.00715    CDp =  0.00575

 Side 1  free  transition at x/c =  0.7108   60
 Side 2  free  transition at x/c =  0.0417   28

  34   rms: 0.4344E-02   max: -.8658E-01   C at   60  1
       a = -3.500      CL = -0.0337
      Cm = -0.0343     CD =  0.01289   =>   CDf =  0.00715    CDp =  0.00575

 Side 1  free  transition at x/c =  0.7108   60
 Side 2  free  transition at x/c =  0.0417   28

  35   rms: 0.4343E-02   max: -.8658E-01   C at   60  1
       a = -3.500      CL = -0.0337
      Cm = -0.0343     CD =  0.01289   =>   CDf =  0.00715    CDp =  0.00575

 Side 1  free  transition at x/c =  0.7108   60
 Side 2  free  transition at x/c =  0.0417   28

  36   rms: 0.4343E-02   max: -.8657E-01   C at   60  1
       a = -3.500      CL = -0.0337
      Cm = -0.0343     CD =  0.01289   =>   CDf =  0.00715    CDp =  0.00575

 Side 1  free  transition at x/c =  0.7108   60
 Side 2  free  transition at x/c =  0.0417   28

  37   rms: 0.4344E-02   max: -.8658E-01   C at   60  1
       a = -3.500      CL = -0.0337
      Cm = -0.0343     CD =  0.01289   =>   CDf =  0.00715    CDp =  0.00575

 Side 1  free  transition at x/c =  0.7108   60
 Side 2  free  transition at x/c =  0.0417   28

  38   rms: 0.4343E-02   max: -.8658E-01   C at   60  1
       a = -3.500      CL = -0.0337
      Cm = -0.0343     CD =  0.01289   =>   CDf =  0.00715    CDp =  0.00575

 Side 1  free  transition at x/c =  0.7108   60
 Side 2  free  transition at x/c =  0.0417   28

  39   rms: 0.4344E-02   max: -.8658E-01   C at   60  1
       a = -3.500      CL = -0.0337
      Cm = -0.0343     CD =  0.01289   =>   CDf =  0.00715    CDp =  0.00575

 Side 1  free  transition at x/c =  0.7108   60
 Side 2  free  transition at x/c =  0.0417   28

  40   rms: 0.4343E-02   max: -.8658E-01   C at   60  1
       a = -3.500      CL = -0.0337
      Cm = -0.0343     CD =  0.01289   =>   CDf =  0.00715    CDp =  0.00575

 Side 1  free  transition at x/c =  0.7108   60
 Side 2  free  transition at x/c =  0.0417   28

  41   rms: 0.4344E-02   max: -.8658E-01   C at   60  1
       a = -3.500      CL = -0.0337
      Cm = -0.0343     CD =  0.01289   =>   CDf =  0.00715    CDp =  0.00575

 Side 1  free  transition at x/c =  0.7108   60
 Side 2  free  transition at x/c =  0.0417   28

  42   rms: 0.4343E-02   max: -.8658E-01   C at   60  1
       a = -3.500      CL = -0.0337
      Cm = -0.0343     CD =  0.01289   =>   CDf =  0.00715    CDp =  0.00575

 Side 1  free  transition at x/c =  0.7108   60
 Side 2  free  transition at x/c =  0.0417   28

  43   rms: 0.4343E-02   max: -.8657E-01   C at   60  1
       a = -3.500      CL = -0.0337
      Cm = -0.0343     CD =  0.01289   =>   CDf =  0.00715    CDp =  0.00575

 Side 1  free  transition at x/c =  0.7108   60
 Side 2  free  transition at x/c =  0.0417   28

  44   rms: 0.4343E-02   max: -.8657E-01   C at   60  1
       a = -3.500      CL = -0.0337
      Cm = -0.0343     CD =  0.01289   =>   CDf =  0.00715    CDp =  0.00575

 Side 1  free  transition at x/c =  0.7108   60
 Side 2  free  transition at x/c =  0.0417   28

  45   rms: 0.4343E-02   max: -.8658E-01   C at   60  1
       a = -3.500      CL = -0.0337
      Cm = -0.0343     CD =  0.01289   =>   CDf =  0.00715    CDp =  0.00575

 Side 1  free  transition at x/c =  0.7108   60
 Side 2  free  transition at x/c =  0.0417   28

  46   rms: 0.4343E-02   max: -.8658E-01   C at   60  1
       a = -3.500      CL = -0.0337
      Cm = -0.0343     CD =  0.01289   =>   CDf =  0.00715    CDp =  0.00575

 Side 1  free  transition at x/c =  0.7108   60
 Side 2  free  transition at x/c =  0.0417   28

  47   rms: 0.4343E-02   max: -.8658E-01   C at   60  1
       a = -3.500      CL = -0.0337
      Cm = -0.0343     CD =  0.01289   =>   CDf =  0.00715    CDp =  0.00575

 Side 1  free  transition at x/c =  0.7108   60
 Side 2  free  transition at x/c =  0.0417   28

  48   rms: 0.4343E-02   max: -.8658E-01   C at   60  1
       a = -3.500      CL = -0.0337
      Cm = -0.0343     CD =  0.01289   =>   CDf =  0.00715    CDp =  0.00575

 Side 1  free  transition at x/c =  0.7108   60
 Side 2  free  transition at x/c =  0.0417   28

  49   rms: 0.4343E-02   max: -.8658E-01   C at   60  1
       a = -3.500      CL = -0.0337
      Cm = -0.0343     CD =  0.01289   =>   CDf =  0.00715    CDp =  0.00575

 Side 1  free  transition at x/c =  0.7108   60
 Side 2  free  transition at x/c =  0.0417   28

  50   rms: 0.4343E-02   max: -.8657E-01   C at   60  1
       a = -3.500      CL = -0.0337
      Cm = -0.0343     CD =  0.01289   =>   CDf =  0.00715    CDp =  0.00575

 Side 1  free  transition at x/c =  0.7108   60
 Side 2  free  transition at x/c =  0.0417   28

  51   rms: 0.4344E-02   max: -.8658E-01   C at   60  1
       a = -3.500      CL = -0.0337
      Cm = -0.0343     CD =  0.01289   =>   CDf =  0.00715    CDp =  0.00575

 Side 1  free  transition at x/c =  0.7108   60
 Side 2  free  transition at x/c =  0.0417   28

  52   rms: 0.4343E-02   max: -.8657E-01   C at   60  1
       a = -3.500      CL = -0.0337
      Cm = -0.0343     CD =  0.01289   =>   CDf =  0.00715    CDp =  0.00575

 Side 1  free  transition at x/c =  0.7108   60
 Side 2  free  transition at x/c =  0.0417   28

  53   rms: 0.4344E-02   max: -.8658E-01   C at   60  1
       a = -3.500      CL = -0.0337
      Cm = -0.0343     CD =  0.01289   =>   CDf =  0.00715    CDp =  0.00575

 Side 1  free  transition at x/c =  0.7108   60
 Side 2  free  transition at x/c =  0.0417   28

  54   rms: 0.4343E-02   max: -.8657E-01   C at   60  1
       a = -3.500      CL = -0.0337
      Cm = -0.0343     CD =  0.01289   =>   CDf =  0.00715    CDp =  0.00575

 Side 1  free  transition at x/c =  0.7108   60
 Side 2  free  transition at x/c =  0.0417   28

  55   rms: 0.4343E-02   max: -.8657E-01   C at   60  1
       a = -3.500      CL = -0.0337
      Cm = -0.0343     CD =  0.01289   =>   CDf =  0.00715    CDp =  0.00575

 Side 1  free  transition at x/c =  0.7108   60
 Side 2  free  transition at x/c =  0.0417   28

  56   rms: 0.4343E-02   max: -.8658E-01   C at   60  1
       a = -3.500      CL = -0.0337
      Cm = -0.0343     CD =  0.01289   =>   CDf =  0.00715    CDp =  0.00575

 Side 1  free  transition at x/c =  0.7108   60
 Side 2  free  transition at x/c =  0.0417   28

  57   rms: 0.4343E-02   max: -.8657E-01   C at   60  1
       a = -3.500      CL = -0.0337
      Cm = -0.0343     CD =  0.01289   =>   CDf =  0.00715    CDp =  0.00575

 Side 1  free  transition at x/c =  0.7108   60
 Side 2  free  transition at x/c =  0.0417   28

  58   rms: 0.4343E-02   max: -.8658E-01   C at   60  1
       a = -3.500      CL = -0.0337
      Cm = -0.0343     CD =  0.01289   =>   CDf =  0.00715    CDp =  0.00575

 Side 1  free  transition at x/c =  0.7108   60
 Side 2  free  transition at x/c =  0.0417   28

  59   rms: 0.4343E-02   max: -.8658E-01   C at   60  1
       a = -3.500      CL = -0.0337
      Cm = -0.0343     CD =  0.01289   =>   CDf =  0.00715    CDp =  0.00575

 Side 1  free  transition at x/c =  0.7108   60
 Side 2  free  transition at x/c =  0.0417   28

  60   rms: 0.4344E-02   max: -.8658E-01   C at   60  1
       a = -3.500      CL = -0.0337
      Cm = -0.0343     CD =  0.01289   =>   CDf =  0.00715    CDp =  0.00575

 Side 1  free  transition at x/c =  0.7108   60
 Side 2  free  transition at x/c =  0.0417   28

  61   rms: 0.4343E-02   max: -.8657E-01   C at   60  1
       a = -3.500      CL = -0.0337
      Cm = -0.0343     CD =  0.01289   =>   CDf =  0.00715    CDp =  0.00575

 Side 1  free  transition at x/c =  0.7108   60
 Side 2  free  transition at x/c =  0.0417   28

  62   rms: 0.4343E-02   max: -.8658E-01   C at   60  1
       a = -3.500      CL = -0.0337
      Cm = -0.0343     CD =  0.01289   =>   CDf =  0.00715    CDp =  0.00575

 Side 1  free  transition at x/c =  0.7108   60
 Side 2  free  transition at x/c =  0.0417   28

  63   rms: 0.4343E-02   max: -.8657E-01   C at   60  1
       a = -3.500      CL = -0.0337
      Cm = -0.0343     CD =  0.01289   =>   CDf =  0.00715    CDp =  0.00575

 Side 1  free  transition at x/c =  0.7108   60
 Side 2  free  transition at x/c =  0.0417   28

  64   rms: 0.4343E-02   max: -.8658E-01   C at   60  1
       a = -3.500      CL = -0.0337
      Cm = -0.0343     CD =  0.01289   =>   CDf =  0.00715    CDp =  0.00575

 Side 1  free  transition at x/c =  0.7108   60
 Side 2  free  transition at x/c =  0.0417   28

  65   rms: 0.4343E-02   max: -.8657E-01   C at   60  1
       a = -3.500      CL = -0.0337
      Cm = -0.0343     CD =  0.01289   =>   CDf =  0.00715    CDp =  0.00575

 Side 1  free  transition at x/c =  0.7108   60
 Side 2  free  transition at x/c =  0.0417   28

  66   rms: 0.4343E-02   max: -.8658E-01   C at   60  1
       a = -3.500      CL = -0.0337
      Cm = -0.0343     CD =  0.01289   =>   CDf =  0.00715    CDp =  0.00575

 Side 1  free  transition at x/c =  0.7108   60
 Side 2  free  transition at x/c =  0.0417   28

  67   rms: 0.4344E-02   max: -.8658E-01   C at   60  1
       a = -3.500      CL = -0.0337
      Cm = -0.0343     CD =  0.01289   =>   CDf =  0.00715    CDp =  0.00575

 Side 1  free  transition at x/c =  0.7108   60
 Side 2  free  transition at x/c =  0.0417   28

  68   rms: 0.4344E-02   max: -.8658E-01   C at   60  1
       a = -3.500      CL = -0.0337
      Cm = -0.0343     CD =  0.01289   =>   CDf =  0.00715    CDp =  0.00575

 Side 1  free  transition at x/c =  0.7108   60
 Side 2  free  transition at x/c =  0.0417   28

  69   rms: 0.4343E-02   max: -.8657E-01   C at   60  1
       a = -3.500      CL = -0.0337
      Cm = -0.0343     CD =  0.01289   =>   CDf =  0.00715    CDp =  0.00575

 Side 1  free  transition at x/c =  0.7108   60
 Side 2  free  transition at x/c =  0.0417   28

  70   rms: 0.4343E-02   max: -.8658E-01   C at   60  1
       a = -3.500      CL = -0.0337
      Cm = -0.0343     CD =  0.01289   =>   CDf =  0.00715    CDp =  0.00575

 Side 1  free  transition at x/c =  0.7108   60
 Side 2  free  transition at x/c =  0.0417   28

  71   rms: 0.4344E-02   max: -.8658E-01   C at   60  1
       a = -3.500      CL = -0.0337
      Cm = -0.0343     CD =  0.01289   =>   CDf =  0.00715    CDp =  0.00575

 Side 1  free  transition at x/c =  0.7108   60
 Side 2  free  transition at x/c =  0.0417   28

  72   rms: 0.4343E-02   max: -.8658E-01   C at   60  1
       a = -3.500      CL = -0.0337
      Cm = -0.0343     CD =  0.01289   =>   CDf =  0.00715    CDp =  0.00575

 Side 1  free  transition at x/c =  0.7108   60
 Side 2  free  transition at x/c =  0.0417   28

  73   rms: 0.4343E-02   max: -.8657E-01   C at   60  1
       a = -3.500      CL = -0.0337
      Cm = -0.0343     CD =  0.01289   =>   CDf =  0.00715    CDp =  0.00575

 Side 1  free  transition at x/c =  0.7108   60
 Side 2  free  transition at x/c =  0.0417   28

  74   rms: 0.4343E-02   max: -.8657E-01   C at   60  1
       a = -3.500      CL = -0.0337
      Cm = -0.0343     CD =  0.01289   =>   CDf =  0.00715    CDp =  0.00575

 Side 1  free  transition at x/c =  0.7108   60
 Side 2  free  transition at x/c =  0.0417   28

  75   rms: 0.4343E-02   max: -.8657E-01   C at   60  1
       a = -3.500      CL = -0.0337
      Cm = -0.0343     CD =  0.01289   =>   CDf =  0.00715    CDp =  0.00575

 Side 1  free  transition at x/c =  0.7108   60
 Side 2  free  transition at x/c =  0.0417   28

  76   rms: 0.4344E-02   max: -.8658E-01   C at   60  1
       a = -3.500      CL = -0.0337
      Cm = -0.0343     CD =  0.01289   =>   CDf =  0.00715    CDp =  0.00575

 Side 1  free  transition at x/c =  0.7108   60
 Side 2  free  transition at x/c =  0.0417   28

  77   rms: 0.4344E-02   max: -.8658E-01   C at   60  1
       a = -3.500      CL = -0.0337
      Cm = -0.0343     CD =  0.01289   =>   CDf =  0.00715    CDp =  0.00575

 Side 1  free  transition at x/c =  0.7108   60
 Side 2  free  transition at x/c =  0.0417   28

  78   rms: 0.4343E-02   max: -.8657E-01   C at   60  1
       a = -3.500      CL = -0.0337
      Cm = -0.0343     CD =  0.01289   =>   CDf =  0.00715    CDp =  0.00575

 Side 1  free  transition at x/c =  0.7108   60
 Side 2  free  transition at x/c =  0.0417   28

  79   rms: 0.4344E-02   max: -.8658E-01   C at   60  1
       a = -3.500      CL = -0.0337
      Cm = -0.0343     CD =  0.01289   =>   CDf =  0.00715    CDp =  0.00575

 Side 1  free  transition at x/c =  0.7108   60
 Side 2  free  transition at x/c =  0.0417   28

  80   rms: 0.4343E-02   max: -.8657E-01   C at   60  1
       a = -3.500      CL = -0.0337
      Cm = -0.0343     CD =  0.01289   =>   CDf =  0.00715    CDp =  0.00575

 Side 1  free  transition at x/c =  0.7108   60
 Side 2  free  transition at x/c =  0.0417   28

  81   rms: 0.4343E-02   max: -.8658E-01   C at   60  1
       a = -3.500      CL = -0.0337
      Cm = -0.0343     CD =  0.01289   =>   CDf =  0.00715    CDp =  0.00575

 Side 1  free  transition at x/c =  0.7108   60
 Side 2  free  transition at x/c =  0.0417   28

  82   rms: 0.4343E-02   max: -.8658E-01   C at   60  1
       a = -3.500      CL = -0.0337
      Cm = -0.0343     CD =  0.01289   =>   CDf =  0.00715    CDp =  0.00575

 Side 1  free  transition at x/c =  0.7108   60
 Side 2  free  transition at x/c =  0.0417   28

  83   rms: 0.4343E-02   max: -.8657E-01   C at   60  1
       a = -3.500      CL = -0.0337
      Cm = -0.0343     CD =  0.01289   =>   CDf =  0.00715    CDp =  0.00575

 Side 1  free  transition at x/c =  0.7108   60
 Side 2  free  transition at x/c =  0.0417   28

  84   rms: 0.4343E-02   max: -.8657E-01   C at   60  1
       a = -3.500      CL = -0.0337
      Cm = -0.0343     CD =  0.01289   =>   CDf =  0.00715    CDp =  0.00575

 Side 1  free  transition at x/c =  0.7108   60
 Side 2  free  transition at x/c =  0.0417   28

  85   rms: 0.4343E-02   max: -.8657E-01   C at   60  1
       a = -3.500      CL = -0.0337
      Cm = -0.0343     CD =  0.01289   =>   CDf =  0.00715    CDp =  0.00575

 Side 1  free  transition at x/c =  0.7108   60
 Side 2  free  transition at x/c =  0.0417   28

  86   rms: 0.4343E-02   max: -.8658E-01   C at   60  1
       a = -3.500      CL = -0.0337
      Cm = -0.0343     CD =  0.01289   =>   CDf =  0.00715    CDp =  0.00575

 Side 1  free  transition at x/c =  0.7108   60
 Side 2  free  transition at x/c =  0.0417   28

  87   rms: 0.4343E-02   max: -.8657E-01   C at   60  1
       a = -3.500      CL = -0.0337
      Cm = -0.0343     CD =  0.01289   =>   CDf =  0.00715    CDp =  0.00575

 Side 1  free  transition at x/c =  0.7108   60
 Side 2  free  transition at x/c =  0.0417   28

  88   rms: 0.4343E-02   max: -.8658E-01   C at   60  1
       a = -3.500      CL = -0.0337
      Cm = -0.0343     CD =  0.01289   =>   CDf =  0.00715    CDp =  0.00575

 Side 1  free  transition at x/c =  0.7108   60
 Side 2  free  transition at x/c =  0.0417   28

  89   rms: 0.4343E-02   max: -.8657E-01   C at   60  1
       a = -3.500      CL = -0.0337
      Cm = -0.0343     CD =  0.01289   =>   CDf =  0.00715    CDp =  0.00575

 Side 1  free  transition at x/c =  0.7108   60
 Side 2  free  transition at x/c =  0.0417   28

  90   rms: 0.4343E-02   max: -.8657E-01   C at   60  1
       a = -3.500      CL = -0.0337
      Cm = -0.0343     CD =  0.01289   =>   CDf =  0.00715    CDp =  0.00575

 Side 1  free  transition at x/c =  0.7108   60
 Side 2  free  transition at x/c =  0.0417   28

  91   rms: 0.4344E-02   max: -.8658E-01   C at   60  1
       a = -3.500      CL = -0.0337
      Cm = -0.0343     CD =  0.01289   =>   CDf =  0.00715    CDp =  0.00575

 Side 1  free  transition at x/c =  0.7108   60
 Side 2  free  transition at x/c =  0.0417   28

  92   rms: 0.4344E-02   max: -.8658E-01   C at   60  1
       a = -3.500      CL = -0.0337
      Cm = -0.0343     CD =  0.01289   =>   CDf =  0.00715    CDp =  0.00575

 Side 1  free  transition at x/c =  0.7108   60
 Side 2  free  transition at x/c =  0.0417   28

  93   rms: 0.4343E-02   max: -.8658E-01   C at   60  1
       a = -3.500      CL = -0.0337
      Cm = -0.0343     CD =  0.01289   =>   CDf =  0.00715    CDp =  0.00575

 Side 1  free  transition at x/c =  0.7108   60
 Side 2  free  transition at x/c =  0.0417   28

  94   rms: 0.4343E-02   max: -.8657E-01   C at   60  1
       a = -3.500      CL = -0.0337
      Cm = -0.0343     CD =  0.01289   =>   CDf =  0.00715    CDp =  0.00575

 Side 1  free  transition at x/c =  0.7108   60
 Side 2  free  transition at x/c =  0.0417   28

  95   rms: 0.4343E-02   max: -.8658E-01   C at   60  1
       a = -3.500      CL = -0.0337
      Cm = -0.0343     CD =  0.01289   =>   CDf =  0.00715    CDp =  0.00575

 Side 1  free  transition at x/c =  0.7108   60
 Side 2  free  transition at x/c =  0.0417   28

  96   rms: 0.4343E-02   max: -.8657E-01   C at   60  1
       a = -3.500      CL = -0.0337
      Cm = -0.0343     CD =  0.01289   =>   CDf =  0.00715    CDp =  0.00575

 Side 1  free  transition at x/c =  0.7108   60
 Side 2  free  transition at x/c =  0.0417   28

  97   rms: 0.4343E-02   max: -.8657E-01   C at   60  1
       a = -3.500      CL = -0.0337
      Cm = -0.0343     CD =  0.01289   =>   CDf =  0.00715    CDp =  0.00575

 Side 1  free  transition at x/c =  0.7108   60
 Side 2  free  transition at x/c =  0.0417   28

  98   rms: 0.4343E-02   max: -.8657E-01   C at   60  1
       a = -3.500      CL = -0.0337
      Cm = -0.0343     CD =  0.01289   =>   CDf =  0.00715    CDp =  0.00575

 Side 1  free  transition at x/c =  0.7108   60
 Side 2  free  transition at x/c =  0.0417   28

  99   rms: 0.4343E-02   max: -.8657E-01   C at   60  1
       a = -3.500      CL = -0.0337
      Cm = -0.0343     CD =  0.01289   =>   CDf =  0.00715    CDp =  0.00575

 Side 1  free  transition at x/c =  0.7108   60
 Side 2  free  transition at x/c =  0.0417   28

 100   rms: 0.4343E-02   max: -.8657E-01   C at   60  1
       a = -3.500      CL = -0.0337
      Cm = -0.0343     CD =  0.01289   =>   CDf =  0.00715    CDp =  0.00575

 Side 1  free  transition at x/c =  0.7108   60
 Side 2  free  transition at x/c =  0.0417   28

 101   rms: 0.4343E-02   max: -.8658E-01   C at   60  1
       a = -3.500      CL = -0.0337
      Cm = -0.0343     CD =  0.01289   =>   CDf =  0.00715    CDp =  0.00575

 Side 1  free  transition at x/c =  0.7108   60
 Side 2  free  transition at x/c =  0.0417   28

 102   rms: 0.4343E-02   max: -.8657E-01   C at   60  1
       a = -3.500      CL = -0.0337
      Cm = -0.0343     CD =  0.01289   =>   CDf =  0.00715    CDp =  0.00575

 Side 1  free  transition at x/c =  0.7108   60
 Side 2  free  transition at x/c =  0.0417   28

 103   rms: 0.4343E-02   max: -.8658E-01   C at   60  1
       a = -3.500      CL = -0.0337
      Cm = -0.0343     CD =  0.01289   =>   CDf =  0.00715    CDp =  0.00575

 Side 1  free  transition at x/c =  0.7108   60
 Side 2  free  transition at x/c =  0.0417   28

 104   rms: 0.4343E-02   max: -.8657E-01   C at   60  1
       a = -3.500      CL = -0.0337
      Cm = -0.0343     CD =  0.01289   =>   CDf =  0.00715    CDp =  0.00575

 Side 1  free  transition at x/c =  0.7108   60
 Side 2  free  transition at x/c =  0.0417   28

 105   rms: 0.4343E-02   max: -.8658E-01   C at   60  1
       a = -3.500      CL = -0.0337
      Cm = -0.0343     CD =  0.01289   =>   CDf =  0.00715    CDp =  0.00575

 Side 1  free  transition at x/c =  0.7108   60
 Side 2  free  transition at x/c =  0.0417   28

 106   rms: 0.4343E-02   max: -.8657E-01   C at   60  1
       a = -3.500      CL = -0.0337
      Cm = -0.0343     CD =  0.01289   =>   CDf =  0.00715    CDp =  0.00575

 Side 1  free  transition at x/c =  0.7108   60
 Side 2  free  transition at x/c =  0.0417   28

 107   rms: 0.4343E-02   max: -.8658E-01   C at   60  1
       a = -3.500      CL = -0.0337
      Cm = -0.0343     CD =  0.01289   =>   CDf =  0.00715    CDp =  0.00575

 Side 1  free  transition at x/c =  0.7108   60
 Side 2  free  transition at x/c =  0.0417   28

 108   rms: 0.4343E-02   max: -.8657E-01   C at   60  1
       a = -3.500      CL = -0.0337
      Cm = -0.0343     CD =  0.01289   =>   CDf =  0.00715    CDp =  0.00575

 Side 1  free  transition at x/c =  0.7108   60
 Side 2  free  transition at x/c =  0.0417   28

 109   rms: 0.4343E-02   max: -.8657E-01   C at   60  1
       a = -3.500      CL = -0.0337
      Cm = -0.0343     CD =  0.01289   =>   CDf =  0.00715    CDp =  0.00575

 Side 1  free  transition at x/c =  0.7108   60
 Side 2  free  transition at x/c =  0.0417   28

 110   rms: 0.4343E-02   max: -.8658E-01   C at   60  1
       a = -3.500      CL = -0.0337
      Cm = -0.0343     CD =  0.01289   =>   CDf =  0.00715    CDp =  0.00575

 Side 1  free  transition at x/c =  0.7108   60
 Side 2  free  transition at x/c =  0.0417   28

 111   rms: 0.4343E-02   max: -.8657E-01   C at   60  1
       a = -3.500      CL = -0.0337
      Cm = -0.0343     CD =  0.01289   =>   CDf =  0.00715    CDp =  0.00575

 Side 1  free  transition at x/c =  0.7108   60
 Side 2  free  transition at x/c =  0.0417   28

 112   rms: 0.4343E-02   max: -.8657E-01   C at   60  1
       a = -3.500      CL = -0.0337
      Cm = -0.0343     CD =  0.01289   =>   CDf =  0.00715    CDp =  0.00575

 Side 1  free  transition at x/c =  0.7108   60
 Side 2  free  transition at x/c =  0.0417   28

 113   rms: 0.4343E-02   max: -.8657E-01   C at   60  1
       a = -3.500      CL = -0.0337
      Cm = -0.0343     CD =  0.01289   =>   CDf =  0.00715    CDp =  0.00575

 Side 1  free  transition at x/c =  0.7108   60
 Side 2  free  transition at x/c =  0.0417   28

 114   rms: 0.4343E-02   max: -.8658E-01   C at   60  1
       a = -3.500      CL = -0.0337
      Cm = -0.0343     CD =  0.01289   =>   CDf =  0.00715    CDp =  0.00575

 Side 1  free  transition at x/c =  0.7108   60
 Side 2  free  transition at x/c =  0.0417   28

 115   rms: 0.4343E-02   max: -.8658E-01   C at   60  1
       a = -3.500      CL = -0.0337
      Cm = -0.0343     CD =  0.01289   =>   CDf =  0.00715    CDp =  0.00575

 Side 1  free  transition at x/c =  0.7108   60
 Side 2  free  transition at x/c =  0.0417   28

 116   rms: 0.4343E-02   max: -.8657E-01   C at   60  1
       a = -3.500      CL = -0.0337
      Cm = -0.0343     CD =  0.01289   =>   CDf =  0.00715    CDp =  0.00575

 Side 1  free  transition at x/c =  0.7108   60
 Side 2  free  transition at x/c =  0.0417   28

 117   rms: 0.4343E-02   max: -.8657E-01   C at   60  1
       a = -3.500      CL = -0.0337
      Cm = -0.0343     CD =  0.01289   =>   CDf =  0.00715    CDp =  0.00575

 Side 1  free  transition at x/c =  0.7108   60
 Side 2  free  transition at x/c =  0.0417   28

 118   rms: 0.4344E-02   max: -.8658E-01   C at   60  1
       a = -3.500      CL = -0.0337
      Cm = -0.0343     CD =  0.01289   =>   CDf =  0.00715    CDp =  0.00575

 Side 1  free  transition at x/c =  0.7108   60
 Side 2  free  transition at x/c =  0.0417   28

 119   rms: 0.4343E-02   max: -.8658E-01   C at   60  1
       a = -3.500      CL = -0.0337
      Cm = -0.0343     CD =  0.01289   =>   CDf =  0.00715    CDp =  0.00575

 Side 1  free  transition at x/c =  0.7108   60
 Side 2  free  transition at x/c =  0.0417   28

 120   rms: 0.4344E-02   max: -.8658E-01   C at   60  1
       a = -3.500      CL = -0.0337
      Cm = -0.0343     CD =  0.01289   =>   CDf =  0.00715    CDp =  0.00575

 Side 1  free  transition at x/c =  0.7108   60
 Side 2  free  transition at x/c =  0.0417   28

 121   rms: 0.4344E-02   max: -.8658E-01   C at   60  1
       a = -3.500      CL = -0.0337
      Cm = -0.0343     CD =  0.01289   =>   CDf =  0.00715    CDp =  0.00575

 Side 1  free  transition at x/c =  0.7108   60
 Side 2  free  transition at x/c =  0.0417   28

 122   rms: 0.4344E-02   max: -.8658E-01   C at   60  1
       a = -3.500      CL = -0.0337
      Cm = -0.0343     CD =  0.01289   =>   CDf =  0.00715    CDp =  0.00575

 Side 1  free  transition at x/c =  0.7108   60
 Side 2  free  transition at x/c =  0.0417   28

 123   rms: 0.4343E-02   max: -.8658E-01   C at   60  1
       a = -3.500      CL = -0.0337
      Cm = -0.0343     CD =  0.01289   =>   CDf =  0.00715    CDp =  0.00575

 Side 1  free  transition at x/c =  0.7108   60
 Side 2  free  transition at x/c =  0.0417   28

 124   rms: 0.4344E-02   max: -.8658E-01   C at   60  1
       a = -3.500      CL = -0.0337
      Cm = -0.0343     CD =  0.01289   =>   CDf =  0.00715    CDp =  0.00575

 Side 1  free  transition at x/c =  0.7108   60
 Side 2  free  transition at x/c =  0.0417   28

 125   rms: 0.4344E-02   max: -.8658E-01   C at   60  1
       a = -3.500      CL = -0.0337
      Cm = -0.0343     CD =  0.01289   =>   CDf =  0.00715    CDp =  0.00575

 Side 1  free  transition at x/c =  0.7108   60
 Side 2  free  transition at x/c =  0.0417   28

 126   rms: 0.4344E-02   max: -.8658E-01   C at   60  1
       a = -3.500      CL = -0.0337
      Cm = -0.0343     CD =  0.01289   =>   CDf =  0.00715    CDp =  0.00575

 Side 1  free  transition at x/c =  0.7108   60
 Side 2  free  transition at x/c =  0.0417   28

 127   rms: 0.4343E-02   max: -.8657E-01   C at   60  1
       a = -3.500      CL = -0.0337
      Cm = -0.0343     CD =  0.01289   =>   CDf =  0.00715    CDp =  0.00575

 Side 1  free  transition at x/c =  0.7108   60
 Side 2  free  transition at x/c =  0.0417   28

 128   rms: 0.4343E-02   max: -.8658E-01   C at   60  1
       a = -3.500      CL = -0.0337
      Cm = -0.0343     CD =  0.01289   =>   CDf =  0.00715    CDp =  0.00575

 Side 1  free  transition at x/c =  0.7108   60
 Side 2  free  transition at x/c =  0.0417   28

 129   rms: 0.4343E-02   max: -.8657E-01   C at   60  1
       a = -3.500      CL = -0.0337
      Cm = -0.0343     CD =  0.01289   =>   CDf =  0.00715    CDp =  0.00575

 Side 1  free  transition at x/c =  0.7108   60
 Side 2  free  transition at x/c =  0.0417   28

 130   rms: 0.4344E-02   max: -.8658E-01   C at   60  1
       a = -3.500      CL = -0.0337
      Cm = -0.0343     CD =  0.01289   =>   CDf =  0.00715    CDp =  0.00575

 Side 1  free  transition at x/c =  0.7108   60
 Side 2  free  transition at x/c =  0.0417   28

 131   rms: 0.4343E-02   max: -.8657E-01   C at   60  1
       a = -3.500      CL = -0.0337
      Cm = -0.0343     CD =  0.01289   =>   CDf =  0.00715    CDp =  0.00575

 Side 1  free  transition at x/c =  0.7108   60
 Side 2  free  transition at x/c =  0.0417   28

 132   rms: 0.4343E-02   max: -.8657E-01   C at   60  1
       a = -3.500      CL = -0.0337
      Cm = -0.0343     CD =  0.01289   =>   CDf =  0.00715    CDp =  0.00575

 Side 1  free  transition at x/c =  0.7108   60
 Side 2  free  transition at x/c =  0.0417   28

 133   rms: 0.4343E-02   max: -.8657E-01   C at   60  1
       a = -3.500      CL = -0.0337
      Cm = -0.0343     CD =  0.01289   =>   CDf =  0.00715    CDp =  0.00575

 Side 1  free  transition at x/c =  0.7108   60
 Side 2  free  transition at x/c =  0.0417   28

 134   rms: 0.4343E-02   max: -.8657E-01   C at   60  1
       a = -3.500      CL = -0.0337
      Cm = -0.0343     CD =  0.01289   =>   CDf =  0.00715    CDp =  0.00575

 Side 1  free  transition at x/c =  0.7108   60
 Side 2  free  transition at x/c =  0.0417   28

 135   rms: 0.4343E-02   max: -.8658E-01   C at   60  1
       a = -3.500      CL = -0.0337
      Cm = -0.0343     CD =  0.01289   =>   CDf =  0.00715    CDp =  0.00575

 Side 1  free  transition at x/c =  0.7108   60
 Side 2  free  transition at x/c =  0.0417   28

 136   rms: 0.4344E-02   max: -.8658E-01   C at   60  1
       a = -3.500      CL = -0.0337
      Cm = -0.0343     CD =  0.01289   =>   CDf =  0.00715    CDp =  0.00575

 Side 1  free  transition at x/c =  0.7108   60
 Side 2  free  transition at x/c =  0.0417   28

 137   rms: 0.4343E-02   max: -.8657E-01   C at   60  1
       a = -3.500      CL = -0.0337
      Cm = -0.0343     CD =  0.01289   =>   CDf =  0.00715    CDp =  0.00575

 Side 1  free  transition at x/c =  0.7108   60
 Side 2  free  transition at x/c =  0.0417   28

 138   rms: 0.4343E-02   max: -.8658E-01   C at   60  1
       a = -3.500      CL = -0.0337
      Cm = -0.0343     CD =  0.01289   =>   CDf =  0.00715    CDp =  0.00575

 Side 1  free  transition at x/c =  0.7108   60
 Side 2  free  transition at x/c =  0.0417   28

 139   rms: 0.4344E-02   max: -.8658E-01   C at   60  1
       a = -3.500      CL = -0.0337
      Cm = -0.0343     CD =  0.01289   =>   CDf =  0.00715    CDp =  0.00575

 Side 1  free  transition at x/c =  0.7108   60
 Side 2  free  transition at x/c =  0.0417   28

 140   rms: 0.4343E-02   max: -.8657E-01   C at   60  1
       a = -3.500      CL = -0.0337
      Cm = -0.0343     CD =  0.01289   =>   CDf =  0.00715    CDp =  0.00575

 Side 1  free  transition at x/c =  0.7108   60
 Side 2  free  transition at x/c =  0.0417   28

 141   rms: 0.4343E-02   max: -.8658E-01   C at   60  1
       a = -3.500      CL = -0.0337
      Cm = -0.0343     CD =  0.01289   =>   CDf =  0.00715    CDp =  0.00575

 Side 1  free  transition at x/c =  0.7108   60
 Side 2  free  transition at x/c =  0.0417   28

 142   rms: 0.4343E-02   max: -.8657E-01   C at   60  1
       a = -3.500      CL = -0.0337
      Cm = -0.0343     CD =  0.01289   =>   CDf =  0.00715    CDp =  0.00575

 Side 1  free  transition at x/c =  0.7108   60
 Side 2  free  transition at x/c =  0.0417   28

 143   rms: 0.4343E-02   max: -.8658E-01   C at   60  1
       a = -3.500      CL = -0.0337
      Cm = -0.0343     CD =  0.01289   =>   CDf =  0.00715    CDp =  0.00575

 Side 1  free  transition at x/c =  0.7108   60
 Side 2  free  transition at x/c =  0.0417   28

 144   rms: 0.4343E-02   max: -.8657E-01   C at   60  1
       a = -3.500      CL = -0.0337
      Cm = -0.0343     CD =  0.01289   =>   CDf =  0.00715    CDp =  0.00575

 Side 1  free  transition at x/c =  0.7108   60
 Side 2  free  transition at x/c =  0.0417   28

 145   rms: 0.4343E-02   max: -.8657E-01   C at   60  1
       a = -3.500      CL = -0.0337
      Cm = -0.0343     CD =  0.01289   =>   CDf =  0.00715    CDp =  0.00575

 Side 1  free  transition at x/c =  0.7108   60
 Side 2  free  transition at x/c =  0.0417   28

 146   rms: 0.4344E-02   max: -.8658E-01   C at   60  1
       a = -3.500      CL = -0.0337
      Cm = -0.0343     CD =  0.01289   =>   CDf =  0.00715    CDp =  0.00575

 Side 1  free  transition at x/c =  0.7108   60
 Side 2  free  transition at x/c =  0.0417   28

 147   rms: 0.4343E-02   max: -.8657E-01   C at   60  1
       a = -3.500      CL = -0.0337
      Cm = -0.0343     CD =  0.01289   =>   CDf =  0.00715    CDp =  0.00575

 Side 1  free  transition at x/c =  0.7108   60
 Side 2  free  transition at x/c =  0.0417   28

 148   rms: 0.4344E-02   max: -.8658E-01   C at   60  1
       a = -3.500      CL = -0.0337
      Cm = -0.0343     CD =  0.01289   =>   CDf =  0.00715    CDp =  0.00575

 Side 1  free  transition at x/c =  0.7108   60
 Side 2  free  transition at x/c =  0.0417   28

 149   rms: 0.4343E-02   max: -.8657E-01   C at   60  1
       a = -3.500      CL = -0.0337
      Cm = -0.0343     CD =  0.01289   =>   CDf =  0.00715    CDp =  0.00575

 Side 1  free  transition at x/c =  0.7108   60
 Side 2  free  transition at x/c =  0.0417   28

 150   rms: 0.4343E-02   max: -.8658E-01   C at   60  1
       a = -3.500      CL = -0.0337
      Cm = -0.0343     CD =  0.01289   =>   CDf =  0.00715    CDp =  0.00575

 Side 1  free  transition at x/c =  0.7108   60
 Side 2  free  transition at x/c =  0.0417   28

 151   rms: 0.4343E-02   max: -.8657E-01   C at   60  1
       a = -3.500      CL = -0.0337
      Cm = -0.0343     CD =  0.01289   =>   CDf =  0.00715    CDp =  0.00575

 Side 1  free  transition at x/c =  0.7108   60
 Side 2  free  transition at x/c =  0.0417   28

 152   rms: 0.4344E-02   max: -.8658E-01   C at   60  1
       a = -3.500      CL = -0.0337
      Cm = -0.0343     CD =  0.01289   =>   CDf =  0.00715    CDp =  0.00575

 Side 1  free  transition at x/c =  0.7108   60
 Side 2  free  transition at x/c =  0.0417   28

 153   rms: 0.4343E-02   max: -.8657E-01   C at   60  1
       a = -3.500      CL = -0.0337
      Cm = -0.0343     CD =  0.01289   =>   CDf =  0.00715    CDp =  0.00575

 Side 1  free  transition at x/c =  0.7108   60
 Side 2  free  transition at x/c =  0.0417   28

 154   rms: 0.4343E-02   max: -.8657E-01   C at   60  1
       a = -3.500      CL = -0.0337
      Cm = -0.0343     CD =  0.01289   =>   CDf =  0.00715    CDp =  0.00575

 Side 1  free  transition at x/c =  0.7108   60
 Side 2  free  transition at x/c =  0.0417   28

 155   rms: 0.4343E-02   max: -.8658E-01   C at   60  1
       a = -3.500      CL = -0.0337
      Cm = -0.0343     CD =  0.01289   =>   CDf =  0.00715    CDp =  0.00575
 VISCAL:  Convergence failed
 Calculating wake trajectory ...
 Calculating source influence matrix ...

 Solving BL system ...

 Side 1  free  transition at x/c =  0.7108   60
 Side 2  free  transition at x/c =  0.0417   28

   1   rms: 0.9471E-01   max: -.3491E+00   T at   28  2
       a = -3.000      CL =  0.0100
      Cm = -0.0315     CD =  0.01177   =>   CDf =  0.00721    CDp =  0.00456

 Side 1  free  transition at x/c =  0.6552   59
 Side 2  free  transition at x/c =  0.0432   27

   2   rms: 0.1865E-01   max: -.2663E+00   C at   59  1
       a = -3.000      CL =  0.0070
      Cm = -0.0307     CD =  0.01227   =>   CDf =  0.00733    CDp =  0.00494

 Side 1  free  transition at x/c =  0.6658   59
 Side 2  free  transition at x/c =  0.0430   27

   3   rms: 0.2539E-02   max: 0.4720E-01   C at   59  1
       a = -3.000      CL =  0.0075
      Cm = -0.0308     CD =  0.01228   =>   CDf =  0.00726    CDp =  0.00503

 Side 1  free  transition at x/c =  0.6639   59
 Side 2  free  transition at x/c =  0.0430   27

   4   rms: 0.2028E-04   max: -.2696E-03   C at   59  1
       a = -3.000      CL =  0.0074
      Cm = -0.0308     CD =  0.01228   =>   CDf =  0.00727    CDp =  0.00502
 plradd ia,ip,cpol            2           0  8.28652177E-03

 Point added to stored polar  1
 Point written to save file  v43015_Re500k.base.pol                          
 Dump file unspecified or not available
 Calculating wake trajectory ...
 Calculating source influence matrix ...

 Solving BL system ...

 Side 1  free  transition at x/c =  0.6639   59
 Side 2  free  transition at x/c =  0.0430   27

   1   rms: 0.8937E-01   max: 0.8704E+00   C at   59  1
       a = -2.500      CL =  0.0494
      Cm = -0.0275     CD =  0.01183   =>   CDf =  0.00727    CDp =  0.00456

 Side 1  free  transition at x/c =  0.6101   56
 Side 2  free  transition at x/c =  0.0446   27

   2   rms: 0.1755E-01   max: 0.2005E+00   D at   58  1
       a = -2.500      CL =  0.0478
      Cm = -0.0271     CD =  0.01194   =>   CDf =  0.00752    CDp =  0.00443

 Side 1  free  transition at x/c =  0.6152   57
 Side 2  free  transition at x/c =  0.0445   27

   3   rms: 0.2102E-02   max: -.2893E-01   C at   57  1
       a = -2.500      CL =  0.0482
      Cm = -0.0272     CD =  0.01194   =>   CDf =  0.00749    CDp =  0.00445

 Side 1  free  transition at x/c =  0.6150   57
 Side 2  free  transition at x/c =  0.0446   27

   4   rms: 0.5627E-04   max: 0.1020E-02   C at   57  1
       a = -2.500      CL =  0.0482
      Cm = -0.0272     CD =  0.01194   =>   CDf =  0.00748    CDp =  0.00446
 plradd ia,ip,cpol            3           0  8.28652177E-03

 Point added to stored polar  1
 Point written to save file  v43015_Re500k.base.pol                          
 Dump file unspecified or not available
 Calculating wake trajectory ...
 Calculating source influence matrix ...

 Solving BL system ...

 Side 1  free  transition at x/c =  0.6150   57
 Side 2  free  transition at x/c =  0.0446   27

   1   rms: 0.9589E-01   max: 0.1010E+01   C at   57  1   RLX: 0.963
       a = -2.000      CL =  0.0858
      Cm = -0.0235     CD =  0.01175   =>   CDf =  0.00752    CDp =  0.00423

 Side 1  free  transition at x/c =  0.5642   55
 Side 2  free  transition at x/c =  0.0461   26

   2   rms: 0.1764E-01   max: 0.2012E+00   D at   57  1
       a = -2.000      CL =  0.0898
      Cm = -0.0238     CD =  0.01169   =>   CDf =  0.00772    CDp =  0.00397

 Side 1  free  transition at x/c =  0.5650   55
 Side 2  free  transition at x/c =  0.0462   26

   3   rms: 0.1757E-02   max: 0.3196E-01   C at   55  1
       a = -2.000      CL =  0.0898
      Cm = -0.0238     CD =  0.01170   =>   CDf =  0.00771    CDp =  0.00399

 Side 1  free  transition at x/c =  0.5639   55
 Side 2  free  transition at x/c =  0.0462   26

   4   rms: 0.1555E-04   max: -.2206E-03   D at   57  1
       a = -2.000      CL =  0.0898
      Cm = -0.0238     CD =  0.01170   =>   CDf =  0.00771    CDp =  0.00399
 plradd ia,ip,cpol            4           0  8.28652177E-03

 Point added to stored polar  1
 Point written to save file  v43015_Re500k.base.pol                          
 Dump file unspecified or not available
 Calculating wake trajectory ...
 Calculating source influence matrix ...

 Solving BL system ...

 Side 1  free  transition at x/c =  0.5639   55
 Side 2  free  transition at x/c =  0.0462   26

   1   rms: 0.9455E-01   max: 0.1071E+01   C at   55  1
       a = -1.500      CL =  0.1329
      Cm = -0.0207     CD =  0.01158   =>   CDf =  0.00771    CDp =  0.00386

 MRCHDU: Convergence failed at  27  side 2    Res =  0.3830E+01
 MRCHDU: Convergence failed at  28  side 2    Res =  0.1457E+02
 MRCHDU: Convergence failed at  29  side 2    Res =  0.1624E+02
 MRCHDU: Convergence failed at  30  side 2    Res =  0.6609E+02
 MRCHDU: Convergence failed at  31  side 2    Res =  0.2000E+04
 MRCHDU: Convergence failed at  32  side 2    Res =  0.1012E+03
 MRCHDU: Convergence failed at  33  side 2    Res =  0.4255E+02
 MRCHDU: Convergence failed at  34  side 2    Res =  0.2823E+02
 MRCHDU: Convergence failed at  35  side 2    Res =  0.1957E+02
 MRCHDU: Convergence failed at  36  side 2    Res =  0.1676E+02
 MRCHDU: Convergence failed at  37  side 2    Res =  0.1506E+02
 MRCHDU: Convergence failed at  38  side 2    Res =  0.1493E+02
 MRCHDU: Convergence failed at  39  side 2    Res =  0.1799E+02
 MRCHDU: Convergence failed at  40  side 2    Res =  0.2609E+02
 MRCHDU: Convergence failed at  41  side 2    Res =  0.5205E+02
 MRCHDU: Convergence failed at  42  side 2    Res =  0.2851E+03
 MRCHDU: Convergence failed at  43  side 2    Res =  0.9944E+02
 MRCHDU: Convergence failed at  44  side 2    Res =  0.4403E+02
 MRCHDU: Convergence failed at  45  side 2    Res =  0.3059E+02
 MRCHDU: Convergence failed at  46  side 2    Res =  0.2408E+02
 MRCHDU: Convergence failed at  47  side 2    Res =  0.2058E+02
 MRCHDU: Convergence failed at  48  side 2    Res =  0.1817E+02
 MRCHDU: Convergence failed at  49  side 2    Res =  0.1681E+02
 MRCHDU: Convergence failed at  50  side 2    Res =  0.1580E+02
 MRCHDU: Convergence failed at  51  side 2    Res =  0.1516E+02
 MRCHDU: Convergence failed at  52  side 2    Res =  0.1466E+02
 MRCHDU: Convergence failed at  53  side 2    Res =  0.1427E+02
 MRCHDU: Convergence failed at  54  side 2    Res =  0.1402E+02
 MRCHDU: Convergence failed at  55  side 2    Res =  0.1381E+02
 MRCHDU: Convergence failed at  56  side 2    Res =  0.1359E+02
 MRCHDU: Convergence failed at  57  side 2    Res =  0.1342E+02
 MRCHDU: Convergence failed at  58  side 2    Res =  0.1326E+02
 MRCHDU: Convergence failed at  59  side 2    Res =  0.1310E+02
 MRCHDU: Convergence failed at  60  side 2    Res =  0.1294E+02
 MRCHDU: Convergence failed at  61  side 2    Res =  0.1280E+02
 MRCHDU: Convergence failed at  62  side 2    Res =  0.1265E+02
 MRCHDU: Convergence failed at  63  side 2    Res =  0.1252E+02
 MRCHDU: Convergence failed at  64  side 2    Res =  0.1240E+02
 MRCHDU: Convergence failed at  65  side 2    Res =  0.8963E+01
 MRCHDU: Convergence failed at  66  side 2    Res =  0.9547E+01
 MRCHDU: Convergence failed at  67  side 2    Res =  0.1004E+02
 MRCHDU: Convergence failed at  68  side 2    Res =  0.1058E+02
 MRCHDU: Convergence failed at  69  side 2    Res =  0.1116E+02
 MRCHDU: Convergence failed at  70  side 2    Res =  0.1215E+02
 MRCHDU: Convergence failed at  71  side 2    Res =  0.1286E+02
 MRCHDU: Convergence failed at  72  side 2    Res =  0.1367E+02
 MRCHDU: Convergence failed at  73  side 2    Res =  0.1486E+02
 MRCHDU: Convergence failed at  74  side 2    Res =  0.1642E+02
 MRCHDU: Convergence failed at  75  side 2    Res =  0.1856E+02
 MRCHDU: Convergence failed at  76  side 2    Res =  0.2195E+02
 MRCHDU: Convergence failed at  77  side 2    Res =  0.2778E+02
 MRCHDU: Convergence failed at  78  side 2    Res =  0.4002E+02
 MRCHDU: Convergence failed at  79  side 2    Res =  0.2920E+02
 MRCHDU: Convergence failed at  80  side 2    Res =  0.6207E+02
 MRCHDU: Convergence failed at  81  side 2    Res =  0.7394E+02
 MRCHDU: Convergence failed at  82  side 2    Res =  0.1342E+03
 MRCHDU: Convergence failed at  83  side 2    Res =  0.2198E+02
 Side 1  free  transition at x/c =  0.5118   52
 Side 2  free  transition at x/c =  0.0500   27

   2   rms: 0.5475E+00   max: -.1786E+01   D at   46  2   RLX: 0.280
       a = -1.500      CL = -0.1828
      Cm =  0.0910     CD =  0.00609   =>   CDf =  0.00340    CDp =  0.00269

 Side 1  free  transition at x/c =  0.5024   53
 Side 2  free  transition at x/c =  0.0513   26

   3   rms: 0.2468E+00   max: -.1154E+01   D at   63  2   RLX: 0.433
       a = -1.500      CL =  0.0356
      Cm =  0.0025     CD =  0.01511   =>   CDf =  0.00773    CDp =  0.00738

 Side 1  free  transition at x/c =  0.5063   53
 Side 2  free  transition at x/c =  0.0511   26

   4   rms: 0.3258E+00   max: -.2113E+01   D at   60  2   RLX: 0.237
       a = -1.500      CL =  0.0833
      Cm = -0.0126     CD =  0.01315   =>   CDf =  0.00741    CDp =  0.00574

 Side 1  free  transition at x/c =  0.5051   53
 Side 2  free  transition at x/c =  0.0514   26
 idif Ue xi dudx           1  0.10679033      2.52270699E-03   42.331642    
 Uenew xinew           2  2.46765302E-03  5.82933426E-05

   5   rms: 0.1914E+01   max: -.9964E+01   D at   69  2   RLX: 0.050
       a = -1.500      CL =  0.0519
      Cm = -0.0123     CD =  0.01133   =>   CDf =  0.00744    CDp =  0.00389

 Side 1  free  transition at x/c =  0.5128   52
 Side 2  free  transition at x/c =  0.0496   27

   6   rms: 0.1094E+01   max: 0.6808E+01   D at    2  2   RLX: 0.094
       a = -1.500      CL = -0.0039
      Cm = -0.0029     CD =  0.01099   =>   CDf =  0.00770    CDp =  0.00330

 Side 1  free  transition at x/c =  0.5262   53
 Side 2  free  transition at x/c =  0.0472   27

   7   rms: 0.2250E+00   max: -.1302E+01   D at   78  2   RLX: 0.384
       a = -1.500      CL = -0.0063
      Cm =  0.0003     CD =  0.01119   =>   CDf =  0.00791    CDp =  0.00328

 Side 1  free  transition at x/c =  0.5331   53
 Side 2  free  transition at x/c =  0.0468   27

   8   rms: 0.1342E+00   max: -.6750E+00   D at   80  2   RLX: 0.741
       a = -1.500      CL =  0.0766
      Cm = -0.0116     CD =  0.01146   =>   CDf =  0.00788    CDp =  0.00358

 Side 1  free  transition at x/c =  0.5234   53
 Side 2  free  transition at x/c =  0.0484   27

   9   rms: 0.5760E-01   max: -.3275E+00   D at   80  2
       a = -1.500      CL =  0.1291
      Cm = -0.0202     CD =  0.01153   =>   CDf =  0.00785    CDp =  0.00368

 Side 1  free  transition at x/c =  0.5147   52
 Side 2  free  transition at x/c =  0.0496   27

  10   rms: 0.7619E-02   max: -.6588E-01   D at   80  2
       a = -1.500      CL =  0.1309
      Cm = -0.0205     CD =  0.01150   =>   CDf =  0.00789    CDp =  0.00361

 Side 1  free  transition at x/c =  0.5147   52
 Side 2  free  transition at x/c =  0.0498   27

  11   rms: 0.1883E-03   max: -.2432E-02   D at   80  2
       a = -1.500      CL =  0.1309
      Cm = -0.0205     CD =  0.01150   =>   CDf =  0.00789    CDp =  0.00361

 Side 1  free  transition at x/c =  0.5147   52
 Side 2  free  transition at x/c =  0.0498   27

  12   rms: 0.2115E-05   max: -.2402E-04   D at    4  2
       a = -1.500      CL =  0.1309
      Cm = -0.0205     CD =  0.01150   =>   CDf =  0.00789    CDp =  0.00361
 plradd ia,ip,cpol            5           0  1.06070740E-02

 Point added to stored polar  1
 Point written to save file  v43015_Re500k.base.pol                          
 Dump file unspecified or not available
 Calculating wake trajectory ...
 Calculating source influence matrix ...

 Solving BL system ...

 Side 1  free  transition at x/c =  0.5147   52
 Side 2  free  transition at x/c =  0.0498   27

   1   rms: 0.8710E-01   max: 0.7258E+00   C at   52  1
       a = -1.000      CL =  0.1776
      Cm = -0.0182     CD =  0.01130   =>   CDf =  0.00792    CDp =  0.00338

 Side 1  free  transition at x/c =  0.4653   51
 Side 2  free  transition at x/c =  0.0537   27

   2   rms: 0.1537E-01   max: -.2040E+00   C at   51  1
       a = -1.000      CL =  0.1745
      Cm = -0.0176     CD =  0.01138   =>   CDf =  0.00812    CDp =  0.00326

 Side 1  free  transition at x/c =  0.4712   51
 Side 2  free  transition at x/c =  0.0542   27

   3   rms: 0.1943E-02   max: 0.3307E-01   C at   51  1
       a = -1.000      CL =  0.1746
      Cm = -0.0176     CD =  0.01139   =>   CDf =  0.00807    CDp =  0.00332

 Side 1  free  transition at x/c =  0.4702   51
 Side 2  free  transition at x/c =  0.0542   27

   4   rms: 0.1370E-04   max: -.2689E-03   D at   52  1
       a = -1.000      CL =  0.1746
      Cm = -0.0176     CD =  0.01139   =>   CDf =  0.00807    CDp =  0.00332
 plradd ia,ip,cpol            6           0  1.06070740E-02

 Point added to stored polar  1
 Point written to save file  v43015_Re500k.base.pol                          
 Dump file unspecified or not available
 Calculating wake trajectory ...
 Calculating source influence matrix ...

 Solving BL system ...

 Side 1  free  transition at x/c =  0.4702   51
 Side 2  free  transition at x/c =  0.0542   27

   1   rms: 0.9485E-01   max: 0.8945E+00   C at   51  1   RLX: 0.803
       a = -0.500      CL =  0.2116
      Cm = -0.0157     CD =  0.01134   =>   CDf =  0.00808    CDp =  0.00326

 Side 1  free  transition at x/c =  0.4364   50
 Side 2  free  transition at x/c =  0.0591   27

   2   rms: 0.8069E-01   max: -.5678E+00   T at   27  2   RLX: 0.881
       a = -0.500      CL =  0.2154
      Cm = -0.0144     CD =  0.01113   =>   CDf =  0.00824    CDp =  0.00289

 Side 1  free  transition at x/c =  0.4337   50
 Side 2  free  transition at x/c =  0.0655   28

   3   rms: 0.8884E-02   max: -.8863E-01   D at   29  2
       a = -0.500      CL =  0.2201
      Cm = -0.0151     CD =  0.01140   =>   CDf =  0.00820    CDp =  0.00320

 Side 1  free  transition at x/c =  0.4319   50
 Side 2  free  transition at x/c =  0.0646   27

   4   rms: 0.3571E-02   max: -.4887E-01   C at   27  2
       a = -0.500      CL =  0.2199
      Cm = -0.0150     CD =  0.01138   =>   CDf =  0.00821    CDp =  0.00317

 Side 1  free  transition at x/c =  0.4320   50
 Side 2  free  transition at x/c =  0.0645   27

   5   rms: 0.7414E-04   max: 0.9827E-03   D at   27  2
       a = -0.500      CL =  0.2199
      Cm = -0.0150     CD =  0.01138   =>   CDf =  0.00821    CDp =  0.00317
 plradd ia,ip,cpol            7           0  0.13468505    

 Point added to stored polar  1
 Point written to save file  v43015_Re500k.base.pol                          
 Dump file unspecified or not available
 Calculating wake trajectory ...
 Calculating source influence matrix ...

 Solving BL system ...

 Side 1  free  transition at x/c =  0.4320   50
 Side 2  free  transition at x/c =  0.0645   27

   1   rms: 0.1057E+00   max: -.9271E+00   T at   27  2   RLX: 0.539
       a =  0.000      CL =  0.2457
      Cm = -0.0139     CD =  0.01139   =>   CDf =  0.00821    CDp =  0.00318

 Side 1  free  transition at x/c =  0.4124   49
 Side 2  free  transition at x/c =  0.0830   30

   2   rms: 0.8951E-01   max: 0.8717E+00   D at   30  2   RLX: 0.728
       a =  0.000      CL =  0.2576
      Cm = -0.0126     CD =  0.01111   =>   CDf =  0.00825    CDp =  0.00285

 Side 1  free  transition at x/c =  0.4026   49
 Side 2  free  transition at x/c =  0.1053   32

   3   rms: 0.2516E-01   max: -.3327E+00   C at   32  2
       a =  0.000      CL =  0.2633
      Cm = -0.0122     CD =  0.01122   =>   CDf =  0.00821    CDp =  0.00301

 Side 1  free  transition at x/c =  0.4001   49
 Side 2  free  transition at x/c =  0.1160   32

   4   rms: 0.1011E-01   max: -.2167E+00   D at   31  2
       a =  0.000      CL =  0.2632
      Cm = -0.0122     CD =  0.01120   =>   CDf =  0.00823    CDp =  0.00298

 Side 1  free  transition at x/c =  0.4000   49
 Side 2  free  transition at x/c =  0.1118   31

   5   rms: 0.6586E-03   max: 0.8003E-02   D at   32  2
       a =  0.000      CL =  0.2634
      Cm = -0.0122     CD =  0.01122   =>   CDf =  0.00823    CDp =  0.00299

 Side 1  free  transition at x/c =  0.4000   49
 Side 2  free  transition at x/c =  0.1116   31

   6   rms: 0.8341E-05   max: 0.1934E-03   C at   31  2
       a =  0.000      CL =  0.2634
      Cm = -0.0122     CD =  0.01122   =>   CDf =  0.00823    CDp =  0.00299
 plradd ia,ip,cpol            8           0  0.12335056    

 Point added to stored polar  1
 Point written to save file  v43015_Re500k.base.pol                          
 Dump file unspecified or not available
 Calculating wake trajectory ...
 Calculating source influence matrix ...

 Solving BL system ...

 Side 1  free  transition at x/c =  0.4000   49
 Side 2  free  transition at x/c =  0.1116   31

   1   rms: 0.4567E+00   max: -.1074E+02   C at   31  2   RLX: 0.047
       a =  0.500      CL =  0.2653
      Cm = -0.0121     CD =  0.01119   =>   CDf =  0.00823    CDp =  0.00296

 Side 1  free  transition at x/c =  0.3988   49
 Side 2  free  transition at x/c =  0.1151   31

   2   rms: 0.1859E+00   max: -.3800E+01   C at   31  2   RLX: 0.132
       a =  0.500      CL =  0.2716
      Cm = -0.0118     CD =  0.01118   =>   CDf =  0.00823    CDp =  0.00295

 Side 1  free  transition at x/c =  0.3952   49
 Side 2  free  transition at x/c =  0.3734   46

   3   rms: 0.1796E+01   max: -.3911E+02   C at   46  2   RLX: 0.013
       a =  0.500      CL =  0.2706
      Cm = -0.0113     CD =  0.01021   =>   CDf =  0.00746    CDp =  0.00275

 Side 1  free  transition at x/c =  0.3950   49
 Side 2  free  transition at x/c =  0.3860   47

   4   rms: 0.1781E+01   max: -.4003E+02   C at   47  2   RLX: 0.012
       a =  0.500      CL =  0.2703
      Cm = -0.0112     CD =  0.01015   =>   CDf =  0.00741    CDp =  0.00274

 Side 1  free  transition at x/c =  0.3949   49
 Side 2  free  transition at x/c =  0.4036   48

   5   rms: 0.1703E+01   max: -.3846E+02   C at   48  2   RLX: 0.013
       a =  0.500      CL =  0.2697
      Cm = -0.0110     CD =  0.01008   =>   CDf =  0.00735    CDp =  0.00273

 Side 1  free  transition at x/c =  0.3948   49
 Side 2  free  transition at x/c =  0.4188   49

   6   rms: 0.1174E+01   max: -.2632E+02   C at   49  2   RLX: 0.019
       a =  0.500      CL =  0.2691
      Cm = -0.0107     CD =  0.01002   =>   CDf =  0.00730    CDp =  0.00271

 Side 1  free  transition at x/c =  0.3946   49
 Side 2  free  transition at x/c =  0.4169   49

   7   rms: 0.8441E+00   max: -.1878E+02   C at   49  2   RLX: 0.027
       a =  0.500      CL =  0.2692
      Cm = -0.0105     CD =  0.01002   =>   CDf =  0.00731    CDp =  0.00271

 Side 1  free  transition at x/c =  0.3942   49
 Side 2  free  transition at x/c =  0.4335   49

   8   rms: 0.1122E+01   max: -.2434E+02   C at   49  2   RLX: 0.021
       a =  0.500      CL =  0.2690
      Cm = -0.0104     CD =  0.00998   =>   CDf =  0.00725    CDp =  0.00273

 Side 1  free  transition at x/c =  0.3940   49
 Side 2  free  transition at x/c =  0.4438   50

   9   rms: 0.8661E+00   max: -.1928E+02   C at   50  2   RLX: 0.026
       a =  0.500      CL =  0.2687
      Cm = -0.0101     CD =  0.00992   =>   CDf =  0.00721    CDp =  0.00271

 Side 1  free  transition at x/c =  0.3936   49
 Side 2  free  transition at x/c =  0.4542   51

  10   rms: 0.6289E+00   max: -.1373E+02   C at   51  2   RLX: 0.036
       a =  0.500      CL =  0.2685
      Cm = -0.0098     CD =  0.00987   =>   CDf =  0.00717    CDp =  0.00269

 Side 1  free  transition at x/c =  0.3932   49
 Side 2  free  transition at x/c =  0.4689   51

  11   rms: 0.6673E+00   max: -.1458E+02   C at   51  2   RLX: 0.034
       a =  0.500      CL =  0.2686
      Cm = -0.0096     CD =  0.00983   =>   CDf =  0.00712    CDp =  0.00271

 Side 1  free  transition at x/c =  0.3927   49
 Side 2  free  transition at x/c =  0.4846   52

  12   rms: 0.5217E+00   max: -.1148E+02   C at   52  2   RLX: 0.044
       a =  0.500      CL =  0.2684
      Cm = -0.0093     CD =  0.00977   =>   CDf =  0.00706    CDp =  0.00270

 Side 1  free  transition at x/c =  0.3921   49
 Side 2  free  transition at x/c =  0.5031   53

  13   rms: 0.4222E+00   max: -.9237E+01   C at   53  2   RLX: 0.054
       a =  0.500      CL =  0.2683
      Cm = -0.0089     CD =  0.00969   =>   CDf =  0.00700    CDp =  0.00270

 Side 1  free  transition at x/c =  0.3914   49
 Side 2  free  transition at x/c =  0.5231   54

  14   rms: 0.3296E+00   max: -.7141E+01   C at   54  2   RLX: 0.070
       a =  0.500      CL =  0.2682
      Cm = -0.0084     CD =  0.00962   =>   CDf =  0.00692    CDp =  0.00270

 Side 1  free  transition at x/c =  0.3905   49
 Side 2  free  transition at x/c =  0.5452   55

  15   rms: 0.2474E+00   max: -.5283E+01   C at   55  2   RLX: 0.095
       a =  0.500      CL =  0.2683
      Cm = -0.0079     CD =  0.00954   =>   CDf =  0.00685    CDp =  0.00270

 Side 1  free  transition at x/c =  0.3894   49
 Side 2  free  transition at x/c =  0.5705   56

  16   rms: 0.1681E+00   max: -.3486E+01   C at   56  2   RLX: 0.143
       a =  0.500      CL =  0.2689
      Cm = -0.0072     CD =  0.00947   =>   CDf =  0.00676    CDp =  0.00271

 Side 1  free  transition at x/c =  0.3877   49
 Side 2  free  transition at x/c =  0.6039   58

  17   rms: 0.7594E-01   max: -.1361E+01   C at   58  2   RLX: 0.367
       a =  0.500      CL =  0.2707
      Cm = -0.0057     CD =  0.00937   =>   CDf =  0.00665    CDp =  0.00272

 Side 1  free  transition at x/c =  0.3842   49
 Side 2  free  transition at x/c =  0.6566   61

  18   rms: 0.4698E-01   max: -.8933E+00   C at   61  2   RLX: 0.560
       a =  0.500      CL =  0.2693
      Cm = -0.0036     CD =  0.00918   =>   CDf =  0.00647    CDp =  0.00272

 Side 1  free  transition at x/c =  0.3815   49
 Side 2  free  transition at x/c =  0.6699   62

  19   rms: 0.2108E-01   max: -.3801E+00   C at   62  2
       a =  0.500      CL =  0.2702
      Cm = -0.0026     CD =  0.00917   =>   CDf =  0.00645    CDp =  0.00272

 Side 1  free  transition at x/c =  0.3794   48
 Side 2  free  transition at x/c =  0.6901   63

  20   rms: 0.1461E-02   max: -.2016E-01   C at   48  1
       a =  0.500      CL =  0.2703
      Cm = -0.0027     CD =  0.00915   =>   CDf =  0.00635    CDp =  0.00279

 Side 1  free  transition at x/c =  0.3794   48
 Side 2  free  transition at x/c =  0.6902   63

  21   rms: 0.1120E-04   max: 0.1620E-03   C at   48  1
       a =  0.500      CL =  0.2703
      Cm = -0.0027     CD =  0.00915   =>   CDf =  0.00635    CDp =  0.00280
 plradd ia,ip,cpol            9           0  0.12335056    

 Point added to stored polar  1
 Point written to save file  v43015_Re500k.base.pol                          
 Dump file unspecified or not available
 Calculating wake trajectory ...
 Calculating source influence matrix ...

 Solving BL system ...

 Side 1  free  transition at x/c =  0.3794   48
 Side 2  free  transition at x/c =  0.6902   63

   1   rms: 0.2192E+00   max: -.4024E+01   C at   63  2   RLX: 0.124
       a =  1.000      CL =  0.2734
      Cm = -0.0018     CD =  0.00905   =>   CDf =  0.00635    CDp =  0.00270

 Side 1  free  transition at x/c =  0.3767   48
 Side 2  free  transition at x/c =  0.7070   63

   2   rms: 0.1276E+00   max: -.2079E+01   C at   63  2   RLX: 0.240
       a =  1.000      CL =  0.2824
      Cm = -0.0012     CD =  0.00907   =>   CDf =  0.00630    CDp =  0.00277

 Side 1  free  transition at x/c =  0.3713   48
 Side 2  free  transition at x/c =  0.7471   65

   3   rms: 0.6449E-01   max: 0.2902E+00   C at   48  1
       a =  1.000      CL =  0.3085
      Cm =  0.0016     CD =  0.00914   =>   CDf =  0.00611    CDp =  0.00303

 Side 1  free  transition at x/c =  0.3565   48
 Side 2  free  transition at x/c =  0.8574   70

   4   rms: 0.2582E-01   max: 0.3868E+00   D at   64  2
       a =  1.000      CL =  0.3142
      Cm =  0.0008     CD =  0.00888   =>   CDf =  0.00587    CDp =  0.00301

 Side 1  free  transition at x/c =  0.3555   48
 Side 2  free  transition at x/c =  0.8419   69

   5   rms: 0.9594E-02   max: -.1164E+00   D at   69  2
       a =  1.000      CL =  0.3098
      Cm =  0.0016     CD =  0.00891   =>   CDf =  0.00590    CDp =  0.00301

 Side 1  free  transition at x/c =  0.3561   48
 Side 2  free  transition at x/c =  0.8297   69

   6   rms: 0.2329E-02   max: -.3289E-01   C at   69  2
       a =  1.000      CL =  0.3087
      Cm =  0.0018     CD =  0.00892   =>   CDf =  0.00593    CDp =  0.00299

 Side 1  free  transition at x/c =  0.3562   48
 Side 2  free  transition at x/c =  0.8303   69

   7   rms: 0.4875E-04   max: 0.7818E-03   C at   69  2
       a =  1.000      CL =  0.3087
      Cm =  0.0018     CD =  0.00892   =>   CDf =  0.00592    CDp =  0.00300
 plradd ia,ip,cpol           10           0  8.41625035E-02

 Point added to stored polar  1
 Point written to save file  v43015_Re500k.base.pol                          
 Dump file unspecified or not available
[...]

 Side 1  free  transition at x/c =  0.1490   52
 Side 2 forced transition at x/c =  1.0000   63

   4   rms: 0.1936E-05   max: -.8273E-05   D at    7  1
       a = 12.500      CL =  1.3745
      Cm =  0.0274     CD =  0.02282   =>   CDf =  0.00629    CDp =  0.01653
 plradd ia,ip,cpol           39           0  1.41012659E-02

 Point added to stored polar  1
 Point written to save file  v43015_Re500k.base.pol                          
 Dump file unspecified or not available
 Calculating wake trajectory ...
 Calculating source influence matrix ...

 Solving BL system ...

 Side 1  free  transition at x/c =  0.1490   52
 Side 2 forced transition at x/c =  1.0000   63

   1   rms: 0.3427E-01   max: -.1563E+00   D at    4  2
       a = 12.750      CL =  1.3856
      Cm =  0.0290     CD =  0.02374   =>   CDf =  0.00629    CDp =  0.01744

 Side 1  free  transition at x/c =  0.1471   51
 Side 2 forced transition at x/c =  1.0000   63

   2   rms: 0.7001E-02   max: -.6721E-01   D at   51  1
       a = 12.750      CL =  1.3858
      Cm =  0.0289     CD =  0.02362   =>   CDf =  0.00626    CDp =  0.01735

 Side 1  free  transition at x/c =  0.1472   51
 Side 2 forced transition at x/c =  1.0000   63

   3   rms: 0.8638E-03   max: -.4185E-02   D at   90  1
       a = 12.750      CL =  1.3865
      Cm =  0.0289     CD =  0.02360   =>   CDf =  0.00625    CDp =  0.01735

 Side 1  free  transition at x/c =  0.1472   51
 Side 2 forced transition at x/c =  1.0000   63

   4   rms: 0.3769E-05   max: 0.6215E-04   D at   89  1
       a = 12.750      CL =  1.3865
      Cm =  0.0289     CD =  0.02360   =>   CDf =  0.00625    CDp =  0.01735
 plradd ia,ip,cpol           40           0  1.41012659E-02

 Point added to stored polar  1
 Point written to save file  v43015_Re500k.base.pol                          
 Dump file unspecified or not available
 Calculating wake trajectory ...
 Calculating source influence matrix ...

 Solving BL system ...

 Side 1  free  transition at x/c =  0.1472   51
 Side 2 forced transition at x/c =  1.0000   63

   1   rms: 0.3217E-01   max: -.9223E-01   C at   51  1
       a = 13.000      CL =  1.4004
      Cm =  0.0301     CD =  0.02424   =>   CDf =  0.00625    CDp =  0.01799

 Side 1  free  transition at x/c =  0.1455   51
 Side 2 forced transition at x/c =  1.0000   63

   2   rms: 0.2316E-02   max: -.2679E-01   D at   51  1
       a = 13.000      CL =  1.3994
      Cm =  0.0301     CD =  0.02425   =>   CDf =  0.00616    CDp =  0.01809

 Side 1  free  transition at x/c =  0.1456   51
 Side 2 forced transition at x/c =  1.0000   63

   3   rms: 0.1702E-03   max: -.7906E-03   D at   89  1
       a = 13.000      CL =  1.3996
      Cm =  0.0301     CD =  0.02425   =>   CDf =  0.00615    CDp =  0.01809

 Side 1  free  transition at x/c =  0.1456   51
 Side 2 forced transition at x/c =  1.0000   63

   4   rms: 0.1714E-05   max: -.1229E-04   D at   77  2
       a = 13.000      CL =  1.3996
      Cm =  0.0301     CD =  0.02425   =>   CDf =  0.00615    CDp =  0.01809
 plradd ia,ip,cpol           41           0  1.41012659E-02

 Point added to stored polar  1
 Point written to save file  v43015_Re500k.base.pol                          
 Dump file unspecified or not available
 Calculating wake trajectory ...
 Calculating source influence matrix ...

 Solving BL system ...

 Side 1  free  transition at x/c =  0.1456   51
 Side 2 forced transition at x/c =  1.0000   63

   1   rms: 0.3288E-01   max: 0.5200E-01   D at   73  2
       a = 13.250      CL =  1.4128
      Cm =  0.0313     CD =  0.02498   =>   CDf =  0.00592    CDp =  0.01906

 Side 1  free  transition at x/c =  0.1438   52
 Side 2 forced transition at x/c =  1.0000   62

   2   rms: 0.3309E-02   max: -.4489E-01   T at    2  1
       a = 13.250      CL =  1.4120
      Cm =  0.0313     CD =  0.02498   =>   CDf =  0.00608    CDp =  0.01890

 Side 1  free  transition at x/c =  0.1440   52
 Side 2 forced transition at x/c =  1.0000   62

   3   rms: 0.1017E-02   max: -.1366E-01   D at    4  1
       a = 13.250      CL =  1.4121
      Cm =  0.0313     CD =  0.02498   =>   CDf =  0.00608    CDp =  0.01890

 Side 1  free  transition at x/c =  0.1440   52
 Side 2 forced transition at x/c =  1.0000   62

   4   rms: 0.1442E-05   max: -.1242E-04   D at    4  1
       a = 13.250      CL =  1.4121
      Cm =  0.0313     CD =  0.02498   =>   CDf =  0.00608    CDp =  0.01890
 plradd ia,ip,cpol           42           0  1.41012659E-02

 Point added to stored polar  1
 Point written to save file  v43015_Re500k.base.pol                          
 Dump file unspecified or not available
 Calculating wake trajectory ...
 Calculating source influence matrix ...

 Solving BL system ...

 Side 1  free  transition at x/c =  0.1440   52
 Side 2 forced transition at x/c =  1.0000   62

   1   rms: 0.3212E-01   max: 0.7846E-01   T at   52  1   RLX: 0.975
       a = 13.500      CL =  1.4243
      Cm =  0.0324     CD =  0.02575   =>   CDf =  0.00608    CDp =  0.01967

 Side 1  free  transition at x/c =  0.1421   52
 Side 2 forced transition at x/c =  1.0000   62

   2   rms: 0.1809E-02   max: -.2329E-01   D at   52  1
       a = 13.500      CL =  1.4240
      Cm =  0.0325     CD =  0.02576   =>   CDf =  0.00602    CDp =  0.01974

 Side 1  free  transition at x/c =  0.1422   52
 Side 2 forced transition at x/c =  1.0000   62

   3   rms: 0.1084E-03   max: -.5588E-03   D at   89  1
       a = 13.500      CL =  1.4240
      Cm =  0.0325     CD =  0.02576   =>   CDf =  0.00602    CDp =  0.01974

 Side 1  free  transition at x/c =  0.1422   52
 Side 2 forced transition at x/c =  1.0000   62

   4   rms: 0.9971E-06   max: -.7073E-05   D at   76  2
       a = 13.500      CL =  1.4240
      Cm =  0.0325     CD =  0.02576   =>   CDf =  0.00602    CDp =  0.01974
 plradd ia,ip,cpol           43           0  1.41012659E-02

 Point added to stored polar  1
 Point written to save file  v43015_Re500k.base.pol                          
 Dump file unspecified or not available
 Calculating wake trajectory ...
 Calculating source influence matrix ...

 Solving BL system ...

 Side 1  free  transition at x/c =  0.1422   52
 Side 2 forced transition at x/c =  1.0000   62

   1   rms: 0.3284E-01   max: -.8267E-01   D at    6  2   RLX: 0.941
       a = 13.750      CL =  1.4354
      Cm =  0.0335     CD =  0.02658   =>   CDf =  0.00602    CDp =  0.02056

 Side 1  free  transition at x/c =  0.1403   52
 Side 2 forced transition at x/c =  1.0000   62

   2   rms: 0.2909E-02   max: -.3576E-01   D at   52  1
       a = 13.750      CL =  1.4350
      Cm =  0.0336     CD =  0.02665   =>   CDf =  0.00598    CDp =  0.02067

 Side 1  free  transition at x/c =  0.1404   52
 Side 2 forced transition at x/c =  1.0000   62

   3   rms: 0.1904E-03   max: -.1014E-02   D at   88  1
       a = 13.750      CL =  1.4351
      Cm =  0.0336     CD =  0.02664   =>   CDf =  0.00597    CDp =  0.02067

 Side 1  free  transition at x/c =  0.1404   52
 Side 2 forced transition at x/c =  1.0000   62

   4   rms: 0.3203E-05   max: 0.1159E-04   D at   86  1
       a = 13.750      CL =  1.4351
      Cm =  0.0336     CD =  0.02664   =>   CDf =  0.00597    CDp =  0.02067
 plradd ia,ip,cpol           44           0  1.41012659E-02

 Point added to stored polar  1
 Point written to save file  v43015_Re500k.base.pol                          
 Dump file unspecified or not available
 Calculating wake trajectory ...
 Calculating source influence matrix ...

 Solving BL system ...

 Side 1  free  transition at x/c =  0.1404   52
 Side 2 forced transition at x/c =  1.0000   62

   1   rms: 0.3242E-01   max: 0.8610E-01   T at   52  1   RLX: 0.907
       a = 14.000      CL =  1.4451
      Cm =  0.0345     CD =  0.02751   =>   CDf =  0.00597    CDp =  0.02154

 Side 1  free  transition at x/c =  0.1387   52
 Side 2 forced transition at x/c =  1.0000   62

   2   rms: 0.3397E-02   max: 0.2381E-01   D at   87  1
       a = 14.000      CL =  1.4446
      Cm =  0.0346     CD =  0.02766   =>   CDf =  0.00596    CDp =  0.02171

 Side 1  free  transition at x/c =  0.1385   52
 Side 2 forced transition at x/c =  1.0000   62

   3   rms: 0.1039E-03   max: 0.7384E-03   D at   71  2
       a = 14.000      CL =  1.4446
      Cm =  0.0347     CD =  0.02766   =>   CDf =  0.00595    CDp =  0.02170

 Side 1  free  transition at x/c =  0.1385   52
 Side 2 forced transition at x/c =  1.0000   62

   4   rms: 0.1516E-05   max: 0.9047E-05   D at   76  2
       a = 14.000      CL =  1.4446
      Cm =  0.0347     CD =  0.02766   =>   CDf =  0.00595    CDp =  0.02170
 plradd ia,ip,cpol           45           0  1.41012659E-02

 Point added to stored polar  1
 Point written to save file  v43015_Re500k.base.pol                          
 Dump file unspecified or not available
 Calculating wake trajectory ...
 Calculating source influence matrix ...

 Solving BL system ...

 Side 1  free  transition at x/c =  0.1385   52
 Side 2 forced transition at x/c =  1.0000   62

   1   rms: 0.3481E-01   max: -.1069E+00   D at   52  1   RLX: 0.871
       a = 14.250      CL =  1.4521
      Cm =  0.0355     CD =  0.02869   =>   CDf =  0.00569    CDp =  0.02300

 Side 1  free  transition at x/c =  0.1364   53
 Side 2 forced transition at x/c =  1.0000   61

   2   rms: 0.4723E-02   max: 0.2091E-01   D at   87  1
       a = 14.250      CL =  1.4515
      Cm =  0.0358     CD =  0.02895   =>   CDf =  0.00596    CDp =  0.02299

 Side 1  free  transition at x/c =  0.1359   53
 Side 2 forced transition at x/c =  1.0000   61

   3   rms: 0.3133E-03   max: -.2459E-02   D at    4  1
       a = 14.250      CL =  1.4514
      Cm =  0.0359     CD =  0.02895   =>   CDf =  0.00598    CDp =  0.02297

 Side 1  free  transition at x/c =  0.1359   53
 Side 2 forced transition at x/c =  1.0000   61

   4   rms: 0.9181E-05   max: 0.3244E-04   D at   86  1
       a = 14.250      CL =  1.4513
      Cm =  0.0359     CD =  0.02895   =>   CDf =  0.00598    CDp =  0.02297
 plradd ia,ip,cpol           46           0  1.41012659E-02

 Point added to stored polar  1
 Point written to save file  v43015_Re500k.base.pol                          
 Dump file unspecified or not available
 Calculating wake trajectory ...
 Calculating source influence matrix ...

 Solving BL system ...

 Side 1  free  transition at x/c =  0.1359   53
 Side 2 forced transition at x/c =  1.0000   61

   1   rms: 0.3648E-01   max: -.1714E+00   D at    3  1   RLX: 0.838
       a = 14.500      CL =  1.4587
      Cm =  0.0368     CD =  0.03010   =>   CDf =  0.00598    CDp =  0.02412

 Side 1  free  transition at x/c =  0.1343   52
 Side 2 forced transition at x/c =  1.0000   61

   2   rms: 0.1363E-01   max: -.1527E+00   D at   52  1
       a = 14.500      CL =  1.4600
      Cm =  0.0367     CD =  0.03010   =>   CDf =  0.00591    CDp =  0.02419

 Side 1  free  transition at x/c =  0.1348   52
 Side 2 forced transition at x/c =  1.0000   61

   3   rms: 0.2398E-02   max: -.1239E-01   D at   87  1
       a = 14.500      CL =  1.4619
      Cm =  0.0366     CD =  0.02999   =>   CDf =  0.00586    CDp =  0.02413

 Side 1  free  transition at x/c =  0.1347   52
 Side 2 forced transition at x/c =  1.0000   61

   4   rms: 0.1821E-04   max: -.2002E-03   D at   71  2
       a = 14.500      CL =  1.4619
      Cm =  0.0366     CD =  0.02999   =>   CDf =  0.00586    CDp =  0.02413
 plradd ia,ip,cpol           47           0  1.41012659E-02

 Point added to stored polar  1
 Point written to save file  v43015_Re500k.base.pol                          
 Dump file unspecified or not available
 Calculating wake trajectory ...
 Calculating source influence matrix ...

 Solving BL system ...

 Side 1  free  transition at x/c =  0.1347   52
 Side 2 forced transition at x/c =  1.0000   61

   1   rms: 0.3487E-01   max: 0.1058E+00   D at    4  2   RLX: 0.815
       a = 14.750      CL =  1.4706
      Cm =  0.0371     CD =  0.03094   =>   CDf =  0.00586    CDp =  0.02508

 Side 1  free  transition at x/c =  0.1335   52
 Side 2 forced transition at x/c =  1.0000   61

   2   rms: 0.6335E-02   max: 0.2248E-01   D at    4  2
       a = 14.750      CL =  1.4719
      Cm =  0.0373     CD =  0.03115   =>   CDf =  0.00578    CDp =  0.02537

 Side 1  free  transition at x/c =  0.1333   52
 Side 2 forced transition at x/c =  1.0000   61

   3   rms: 0.2686E-03   max: 0.2019E-02   D at   85  1
       a = 14.750      CL =  1.4717
      Cm =  0.0373     CD =  0.03114   =>   CDf =  0.00576    CDp =  0.02538

 Side 1  free  transition at x/c =  0.1333   52
 Side 2 forced transition at x/c =  1.0000   61

   4   rms: 0.5019E-05   max: 0.2576E-04   D at   85  1
       a = 14.750      CL =  1.4717
      Cm =  0.0373     CD =  0.03114   =>   CDf =  0.00576    CDp =  0.02538
 plradd ia,ip,cpol           48           0  1.17346663E-02

 Point added to stored polar  1
 Point written to save file  v43015_Re500k.base.pol                          
 Dump file unspecified or not available
 Calculating wake trajectory ...
 Calculating source influence matrix ...

 Solving BL system ...

 Side 1  free  transition at x/c =  0.1333   52
 Side 2 forced transition at x/c =  1.0000   61

   1   rms: 0.3620E-01   max: -.2263E+00   D at    3  1   RLX: 0.788
       a = 15.000      CL =  1.4796
      Cm =  0.0378     CD =  0.03214   =>   CDf =  0.00576    CDp =  0.02638

 Side 1  free  transition at x/c =  0.1321   52
 Side 2 forced transition at x/c =  1.0000   61

   2   rms: 0.7606E-02   max: -.3974E-01   D at    3  1
       a = 15.000      CL =  1.4807
      Cm =  0.0379     CD =  0.03242   =>   CDf =  0.00569    CDp =  0.02673

 Side 1  free  transition at x/c =  0.1318   52
 Side 2 forced transition at x/c =  1.0000   61

   3   rms: 0.2064E-03   max: 0.1164E-02   D at   72  2
       a = 15.000      CL =  1.4805
      Cm =  0.0379     CD =  0.03240   =>   CDf =  0.00567    CDp =  0.02673

 Side 1  free  transition at x/c =  0.1318   52
 Side 2 forced transition at x/c =  1.0000   61

   4   rms: 0.2580E-05   max: 0.1696E-04   D at    4  2
       a = 15.000      CL =  1.4805
      Cm =  0.0379     CD =  0.03240   =>   CDf =  0.00567    CDp =  0.02673
 plradd ia,ip,cpol           49           0  1.41012659E-02

 Point added to stored polar  1
 Point written to save file  v43015_Re500k.base.pol                          
 Dump file unspecified or not available
 Calculating wake trajectory ...
 Calculating source influence matrix ...

 Solving BL system ...

 Side 1  free  transition at x/c =  0.1318   52
 Side 2 forced transition at x/c =  1.0000   61

   1   rms: 0.3341E-01   max: 0.8331E-01   D at   83  1   RLX: 0.763
       a = 15.250      CL =  1.4878
      Cm =  0.0383     CD =  0.03344   =>   CDf =  0.00540    CDp =  0.02804

 Side 1  free  transition at x/c =  0.1306   53
 Side 2 forced transition at x/c =  1.0000   60

   2   rms: 0.8434E-02   max: -.3987E-01   D at    3  1
       a = 15.250      CL =  1.4887
      Cm =  0.0384     CD =  0.03380   =>   CDf =  0.00562    CDp =  0.02818

 Side 1  free  transition at x/c =  0.1303   53
 Side 2 forced transition at x/c =  1.0000   60

   3   rms: 0.3988E-03   max: -.3079E-02   D at    4  1
       a = 15.250      CL =  1.4885
      Cm =  0.0385     CD =  0.03378   =>   CDf =  0.00560    CDp =  0.02818

 Side 1  free  transition at x/c =  0.1303   53
 Side 2 forced transition at x/c =  1.0000   60

   4   rms: 0.3838E-05   max: -.1815E-04   T at   70  2
       a = 15.250      CL =  1.4885
      Cm =  0.0385     CD =  0.03377   =>   CDf =  0.00560    CDp =  0.02818
 plradd ia,ip,cpol           50           0  1.17346663E-02

 Point added to stored polar  1
 Point written to save file  v43015_Re500k.base.pol                          
 Dump file unspecified or not available
 Calculating wake trajectory ...
 Calculating source influence matrix ...

 Solving BL system ...

 Side 1  free  transition at x/c =  0.1303   53
 Side 2 forced transition at x/c =  1.0000   60

   1   rms: 0.3127E-01   max: 0.8750E-01   D at   83  1   RLX: 0.737
       a = 15.500      CL =  1.4949
      Cm =  0.0387     CD =  0.03487   =>   CDf =  0.00560    CDp =  0.02927

 Side 1  free  transition at x/c =  0.1291   53
 Side 2 forced transition at x/c =  1.0000   60

   2   rms: 0.8458E-02   max: 0.3756E-01   D at   84  1
       a = 15.500      CL =  1.4957
      Cm =  0.0389     CD =  0.03530   =>   CDf =  0.00555    CDp =  0.02975

 Side 1  free  transition at x/c =  0.1288   53
 Side 2 forced transition at x/c =  1.0000   60

   3   rms: 0.3581E-03   max: 0.2257E-02   D at   71  2
       a = 15.500      CL =  1.4954
      Cm =  0.0389     CD =  0.03528   =>   CDf =  0.00554    CDp =  0.02974

 Side 1  free  transition at x/c =  0.1288   53
 Side 2 forced transition at x/c =  1.0000   60

   4   rms: 0.7654E-05   max: 0.5229E-04   D at   71  2
       a = 15.500      CL =  1.4954
      Cm =  0.0389     CD =  0.03528   =>   CDf =  0.00554    CDp =  0.02974
 plradd ia,ip,cpol           51           0  1.17346663E-02

 Point added to stored polar  1
 Point written to save file  v43015_Re500k.base.pol                          
 Dump file unspecified or not available
 Calculating wake trajectory ...
 Calculating source influence matrix ...

 Solving BL system ...

 Side 1  free  transition at x/c =  0.1288   53
 Side 2 forced transition at x/c =  1.0000   60

   1   rms: 0.3299E-01   max: 0.9348E-01   D at   82  1   RLX: 0.712
       a = 15.750      CL =  1.5007
      Cm =  0.0391     CD =  0.03647   =>   CDf =  0.00554    CDp =  0.03093

 Side 1  free  transition at x/c =  0.1277   53
 Side 2 forced transition at x/c =  1.0000   60

   2   rms: 0.9739E-02   max: 0.3912E-01   D at   83  1
       a = 15.750      CL =  1.5013
      Cm =  0.0392     CD =  0.03697   =>   CDf =  0.00551    CDp =  0.03146

 Side 1  free  transition at x/c =  0.1273   53
 Side 2 forced transition at x/c =  1.0000   60

   3   rms: 0.5642E-03   max: 0.3827E-02   D at   71  2
       a = 15.750      CL =  1.5009
      Cm =  0.0393     CD =  0.03694   =>   CDf =  0.00550    CDp =  0.03144

 Side 1  free  transition at x/c =  0.1273   53
 Side 2 forced transition at x/c =  1.0000   60

   4   rms: 0.1376E-04   max: 0.9784E-04   D at   71  2
       a = 15.750      CL =  1.5009
      Cm =  0.0393     CD =  0.03694   =>   CDf =  0.00550    CDp =  0.03144
 plradd ia,ip,cpol           52           0  1.17346663E-02

 Point added to stored polar  1
 Point written to save file  v43015_Re500k.base.pol                          
 Dump file unspecified or not available
 Calculating wake trajectory ...
 Calculating source influence matrix ...

 Solving BL system ...

 Side 1  free  transition at x/c =  0.1273   53
 Side 2 forced transition at x/c =  1.0000   60

   1   rms: 0.3338E-01   max: 0.1164E+00   D at    3  2   RLX: 0.687
       a = 16.000      CL =  1.5050
      Cm =  0.0395     CD =  0.03821   =>   CDf =  0.00550    CDp =  0.03271

 Side 1  free  transition at x/c =  0.1262   53
 Side 2 forced transition at x/c =  1.0000   60

   2   rms: 0.1056E-01   max: 0.3967E-01   D at    3  2
       a = 16.000      CL =  1.5056
      Cm =  0.0396     CD =  0.03877   =>   CDf =  0.00548    CDp =  0.03328

 Side 1  free  transition at x/c =  0.1256   53
 Side 2 forced transition at x/c =  1.0000   60

   3   rms: 0.5902E-03   max: 0.3094E-02   D at   72  2
       a = 16.000      CL =  1.5051
      Cm =  0.0397     CD =  0.03874   =>   CDf =  0.00548    CDp =  0.03326

 Side 1  free  transition at x/c =  0.1256   53
 Side 2 forced transition at x/c =  1.0000   60

   4   rms: 0.2309E-04   max: 0.1127E-03   D at   72  2
       a = 16.000      CL =  1.5051
      Cm =  0.0397     CD =  0.03874   =>   CDf =  0.00548    CDp =  0.03325
 plradd ia,ip,cpol           53           0  1.17346663E-02

 Point added to stored polar  1
 Point written to save file  v43015_Re500k.base.pol                          
 Dump file unspecified or not available

.OPERva   c>  
 Polar accumulation disabled

.OPERv   c>  
 XFOIL   c>  
 XFOIL   c>  