
 ===================================================
  XFOIL Version 6.99
  Copyright (C) 2000   Mark Drela, Harold Youngren

  This software comes with ABSOLUTELY NO WARRANTY,
    subject to the GNU General Public License.

  Caveat computor
 ===================================================

 File  xfoil.def  not found

   QUIT    Exit program

  .OPER    Direct operating point(s)
  .MDES    Complex mapping design routine
  .QDES    Surface speed design routine
  .GDES    Geometry design routine

   SAVE f  Write airfoil to labeled coordinate file
   PSAV f  Write airfoil to plain coordinate file
   ISAV f  Write airfoil to ISES coordinate file
   MSAV f  Write airfoil to MSES coordinate file
   REVE    Reverse written-airfoil node ordering

   LOAD f  Read buffer airfoil from coordinate file
   NACA i  Set NACA 4,5-digit airfoil and buffer airfoil
   INTE    Set buffer airfoil by interpolating two airfoils
   NORM    Buffer airfoil normalization toggle
   XYCM rr Change CM reference location, currently  0.25000 0.00000

   BEND    Display structural properties of current airfoil

   PCOP    Set current-airfoil panel nodes directly from buffer airfoil points
   PANE    Set current-airfoil panel nodes ( 160 ) based on curvature
  .PPAR    Show/change paneling

  .PLOP    Plotting options

   WDEF f  Write  current-settings file
   RDEF f  Reread current-settings file
   NAME s  Specify new airfoil name
   NINC    Increment name version number

   Z       Zoom    | (available in all menus)
   U       Unzoom  | 

 XFOIL   c>  
 Labeled airfoil file.  Name:   BOEING-VERTOL VR-12 AIRFOIL                    

 Number of input coordinate points:  83
 Counterclockwise ordering
 Max thickness =     0.105649  at x =   0.350
 Max camber    =     0.022402  at x =   0.200

  LE  x,y  =  -0.00001   0.00050  |   Chord =   1.00001
  TE  x,y  =   1.00000   0.00000  |

 Current airfoil nodes set from buffer airfoil nodes (  83 )

 XFOIL   c>  
 XFOIL   c>  
 Blunt trailing edge.  Gap =  0.00300

 Paneling parameters used...
   Number of panel nodes       160
   Panel bunching parameter    1.000
   TE/LE panel density ratio   0.150
   Refined-area/LE panel density ratio    0.200
   Top    side refined area x/c limits  1.000 1.000
   Bottom side refined area x/c limits  1.000 1.000

 XFOIL   c>  
.OPERi   c>  
 Xtr/c     =  1.0000    top    side
 Xtr/c     =  1.0000    bottom side
 Ncrit     =    9.00   ( 0.070 % turb. level )
 Vacc      =  0.0100

 Klag  =  5.6000     Uxwt  =    1.00
 A     =  6.7000     B     =  0.7500       KCt = 0.01485
 CtiniK=  1.8000     CtiniX=  3.3000

..VPAR   c>  
..VPAR   c>  
.OPERi   c>  
 M  =    0.0000
 Re =    500000

.OPERv   c>  
.OPERv   c>  
.OPERv   c>  
 Polar  1 newly created for accumulation
 Airfoil archived with polar: BOEING-VERTOL VR-12 AIRFOIL                     

Enter  polar save filename  OR  <return> for no file   s>  
 New polar save file available

Enter  polar dump filename  OR  <return> for no file   s>  
 Polar dump file will NOT be written

 Polar accumulation enabled

.OPERva   c>   Calculating unit vorticity distributions ...
 Calculating wake trajectory ...
 Calculating source influence matrix ...

 Solving BL system ...

 Initializing BL ...
    side            1  ...
 MRCHUE: Inverse mode at  54     Hk =   3.976
 MRCHUE: Inverse mode at  55     Hk =   4.556
 MRCHUE: Inverse mode at  56     Hk =   5.132
 MRCHUE: Inverse mode at  57     Hk =   5.703
 MRCHUE: Inverse mode at  58     Hk =   6.271
 MRCHUE: Inverse mode at  59     Hk =   6.831
 MRCHUE: Inverse mode at  60     Hk =   7.380
 MRCHUE: Inverse mode at  61     Hk =   7.920
 MRCHUE: Inverse mode at  62     Hk =   8.455
 MRCHUE: Inverse mode at  63     Hk =   8.991
 MRCHUE: Inverse mode at  64     Hk =   8.411
 MRCHUE: Inverse mode at  65     Hk =   6.172
 MRCHUE: Inverse mode at  66     Hk =   4.768
 MRCHUE: Inverse mode at  67     Hk =   3.742
 MRCHUE: Inverse mode at  68     Hk =   2.944
    side            2  ...
 MRCHUE: Inverse mode at  18     Hk =   4.523
 MRCHUE: Inverse mode at  19     Hk =   5.508
 MRCHUE: Convergence failed at  20  side 2    Res =  0.6514E+01
 MRCHUE: Inverse mode at  21     Hk =   6.705
 MRCHUE: Inverse mode at  22     Hk =   8.014
 MRCHUE: Inverse mode at  23     Hk =   3.020
 MRCHUE: Inverse mode at  24     Hk =   2.500
 MRCHUE: Inverse mode at  87     Hk =   2.500

 MRCHDU: Convergence failed at  23  side 2    Res =  0.4532E+02
 MRCHDU: Convergence failed at  24  side 2    Res =  0.1519E+02
 MRCHDU: Convergence failed at  25  side 2    Res =  0.2900E+02
 MRCHDU: Convergence failed at  26  side 2    Res =  0.3182E+02
 MRCHDU: Convergence failed at  27  side 2    Res =  0.1751E+03
 MRCHDU: Convergence failed at  28  side 2    Res =  0.9816E+02
 MRCHDU: Convergence failed at  29  side 2    Res =  0.4142E+02
 MRCHDU: Convergence failed at  30  side 2    Res =  0.2346E+02
 MRCHDU: Convergence failed at  31  side 2    Res =  0.1929E+02
 MRCHDU: Convergence failed at  32  side 2    Res =  0.2068E+02
 MRCHDU: Convergence failed at  33  side 2    Res =  0.3658E+02
 MRCHDU: Convergence failed at  34  side 2    Res =  0.4004E+02
 MRCHDU: Convergence failed at  35  side 2    Res =  0.4314E+02
 MRCHDU: Convergence failed at  36  side 2    Res =  0.4585E+02
 MRCHDU: Convergence failed at  37  side 2    Res =  0.4865E+02
 MRCHDU: Convergence failed at  38  side 2    Res =  0.5139E+02
 MRCHDU: Convergence failed at  39  side 2    Res =  0.5455E+02
 MRCHDU: Convergence failed at  40  side 2    Res =  0.5750E+02
 MRCHDU: Convergence failed at  41  side 2    Res =  0.6023E+02
 MRCHDU: Convergence failed at  42  side 2    Res =  0.2773E+02
 MRCHDU: Convergence failed at  43  side 2    Res =  0.2541E+02
 MRCHDU: Convergence failed at  44  side 2    Res =  0.2571E+02
 MRCHDU: Convergence failed at  45  side 2    Res =  0.2328E+02
 MRCHDU: Convergence failed at  46  side 2    Res =  0.2359E+02
 MRCHDU: Convergence failed at  47  side 2    Res =  0.2414E+02
 MRCHDU: Convergence failed at  48  side 2    Res =  0.2313E+02
 MRCHDU: Convergence failed at  49  side 2    Res =  0.2380E+02
 MRCHDU: Convergence failed at  50  side 2    Res =  0.2290E+02
 MRCHDU: Convergence failed at  51  side 2    Res =  0.2344E+02
 MRCHDU: Convergence failed at  52  side 2    Res =  0.2381E+02
 MRCHDU: Convergence failed at  53  side 2    Res =  0.2420E+02
 MRCHDU: Convergence failed at  54  side 2    Res =  0.2464E+02
 MRCHDU: Convergence failed at  55  side 2    Res =  0.2520E+02
 MRCHDU: Convergence failed at  56  side 2    Res =  0.2572E+02
 MRCHDU: Convergence failed at  57  side 2    Res =  0.2621E+02
 MRCHDU: Convergence failed at  58  side 2    Res =  0.2657E+02
 MRCHDU: Convergence failed at  59  side 2    Res =  0.2700E+02
 MRCHDU: Convergence failed at  60  side 2    Res =  0.2726E+02
 MRCHDU: Convergence failed at  61  side 2    Res =  0.2768E+02
 MRCHDU: Convergence failed at  62  side 2    Res =  0.2817E+02
 MRCHDU: Convergence failed at  63  side 2    Res =  0.2879E+02
 MRCHDU: Convergence failed at  64  side 2    Res =  0.2973E+02
 MRCHDU: Convergence failed at  65  side 2    Res =  0.3071E+02
 MRCHDU: Convergence failed at  66  side 2    Res =  0.3148E+02
 MRCHDU: Convergence failed at  67  side 2    Res =  0.3217E+02
 MRCHDU: Convergence failed at  68  side 2    Res =  0.3290E+02
 MRCHDU: Convergence failed at  69  side 2    Res =  0.3464E+02
 MRCHDU: Convergence failed at  70  side 2    Res =  0.3630E+02
 MRCHDU: Convergence failed at  71  side 2    Res =  0.3791E+02
 MRCHDU: Convergence failed at  72  side 2    Res =  0.3897E+02
 MRCHDU: Convergence failed at  73  side 2    Res =  0.4060E+02
 MRCHDU: Convergence failed at  74  side 2    Res =  0.3972E+02
 MRCHDU: Convergence failed at  75  side 2    Res =  0.4148E+02
 MRCHDU: Convergence failed at  76  side 2    Res =  0.4189E+02
 MRCHDU: Convergence failed at  77  side 2    Res =  0.4219E+02
 MRCHDU: Convergence failed at  78  side 2    Res =  0.4538E+02
 MRCHDU: Convergence failed at  79  side 2    Res =  0.5199E+02
 MRCHDU: Convergence failed at  80  side 2    Res =  0.1036E+03
 MRCHDU: Convergence failed at  81  side 2    Res =  0.1871E+03
 MRCHDU: Convergence failed at  82  side 2    Res =  0.1360E+03
 MRCHDU: Convergence failed at  83  side 2    Res =  0.1665E+03
 MRCHDU: Convergence failed at  84  side 2    Res =  0.8585E+02
 MRCHDU: Convergence failed at  85  side 2    Res =  0.4198E+02
 MRCHDU: Convergence failed at  86  side 2    Res =  0.8209E+02
 MRCHDU: Convergence failed at  87  side 2    Res =  0.5408E+02
 Side 1  free  transition at x/c =  0.8480   64
 Side 2  free  transition at x/c =  0.0339   23

   1   rms: 0.1175E+01   max: -.8870E+00   U at   87  2   RLX: 0.269
       a = -4.000      CL = -1.6861
      Cm =  0.3936     CD =  0.00451   =>   CDf =  0.00165    CDp =  0.00286

 Side 1  free  transition at x/c =  0.8655   65
 Side 2  free  transition at x/c =  0.0350   23

   2   rms: 0.6165E+00   max: 0.1285E+01   D at   92  2   RLX: 0.359
       a = -4.000      CL = -0.9794
      Cm =  0.1748     CD =  0.01262   =>   CDf =  0.00804    CDp =  0.00458

 Side 1  free  transition at x/c =  0.8757   66
 Side 2  free  transition at x/c =  0.0348   23

   3   rms: 0.1153E+01   max: -.5743E+01   C at   34  2   RLX: 0.056
       a = -4.000      CL = -0.9297
      Cm =  0.1587     CD =  0.01261   =>   CDf =  0.00698    CDp =  0.00563

 MRCHDU: Convergence failed at  31  side 2    Res =  0.1335E+01
 MRCHDU: Convergence failed at  33  side 2    Res =  0.2753E+01
 Side 1  free  transition at x/c =  0.8761   66
 Side 2  free  transition at x/c =  0.0348   23

   4   rms: 0.4440E+00   max: -.5823E+00   D at   88  2   RLX: 0.430
       a = -4.000      CL = -0.6574
      Cm =  0.0765     CD =  0.01300   =>   CDf =  0.00694    CDp =  0.00606

 Side 1  free  transition at x/c =  0.8785   66
 Side 2  free  transition at x/c =  0.0337   23

   5   rms: 0.4809E+00   max: -.2352E+01   D at   62  2   RLX: 0.213
       a = -4.000      CL = -0.5710
      Cm =  0.0558     CD =  0.01231   =>   CDf =  0.00638    CDp =  0.00592

 MRCHDU: Convergence failed at  48  side 2    Res =  0.1183E+00
 MRCHDU: Convergence failed at  59  side 2    Res =  0.7468E+01
 MRCHDU: Convergence failed at  60  side 2    Res =  0.6609E+01
 Side 1  free  transition at x/c =  0.8798   66
 Side 2  free  transition at x/c =  0.0337   23

   6   rms: 0.5996E+00   max: -.3103E+01   D at   83  2   RLX: 0.161
       a = -4.000      CL = -0.5589
      Cm =  0.0489     CD =  0.01161   =>   CDf =  0.00706    CDp =  0.00455

 Side 1  free  transition at x/c =  0.8785   66
 Side 2  free  transition at x/c =  0.0335   23

   7   rms: 0.4367E+00   max: -.1998E+01   D at   77  2   RLX: 0.250
       a = -4.000      CL = -0.4876
      Cm =  0.0281     CD =  0.01145   =>   CDf =  0.00711    CDp =  0.00434

 MRCHDU: Convergence failed at  68  side 2    Res =  0.6323E+00
 MRCHDU: Convergence failed at  80  side 2    Res =  0.1563E+01
 MRCHDU: Convergence failed at  81  side 2    Res =  0.2753E+01
 MRCHDU: Convergence failed at  83  side 2    Res =  0.8577E-03
 Side 1  free  transition at x/c =  0.8766   66
 Side 2  free  transition at x/c =  0.0332   23

   8   rms: 0.3182E+00   max: -.1479E+01   D at   75  2   RLX: 0.338
       a = -4.000      CL = -0.4521
      Cm =  0.0250     CD =  0.01283   =>   CDf =  0.00719    CDp =  0.00564

 MRCHDU: Convergence failed at  82  side 2    Res =  0.1162E+01
 MRCHDU: Convergence failed at  85  side 2    Res =  0.4538E+00
 MRCHDU: Convergence failed at  86  side 2    Res =  0.4365E+00
 Side 1  free  transition at x/c =  0.8737   66
 Side 2  free  transition at x/c =  0.0328   23

   9   rms: 0.2846E+00   max: -.1320E+01   D at   75  2   RLX: 0.379
       a = -4.000      CL = -0.4349
      Cm =  0.0251     CD =  0.00957   =>   CDf =  0.00695    CDp =  0.00262

 Side 1  free  transition at x/c =  0.8718   66
 Side 2  free  transition at x/c =  0.0322   23
 idif Ue xi dudx           1  0.14424975      3.39007378E-03   42.550625    
 Uenew xinew           2  8.26806063E-04  1.94311142E-05

  10   rms: 0.2644E+00   max: 0.8757E+00   T at   88  2   RLX: 0.606
       a = -4.000      CL = -0.4826
      Cm =  0.0327     CD =  0.01323   =>   CDf =  0.00676    CDp =  0.00647

 MRCHDU: Convergence failed at  24  side 2    Res =  0.9883E+01
 MRCHDU: Convergence failed at  25  side 2    Res =  0.4637E+02
 MRCHDU: Convergence failed at  26  side 2    Res =  0.1009E+04
 MRCHDU: Convergence failed at  27  side 2    Res =  0.6250E+02
 MRCHDU: Convergence failed at  28  side 2    Res =  0.7725E+02
 MRCHDU: Convergence failed at  29  side 2    Res =  0.1731E+03
 MRCHDU: Convergence failed at  30  side 2    Res =  0.3560E+03
 MRCHDU: Convergence failed at  31  side 2    Res =  0.4373E+02
 MRCHDU: Convergence failed at  32  side 2    Res =  0.4389E+02
 MRCHDU: Convergence failed at  33  side 2    Res =  0.1570E+03
 MRCHDU: Convergence failed at  34  side 2    Res =  0.4525E+02
 MRCHDU: Convergence failed at  35  side 2    Res =  0.3013E+03
 MRCHDU: Convergence failed at  36  side 2    Res =  0.7274E+02
 MRCHDU: Convergence failed at  37  side 2    Res =  0.8082E+02
 MRCHDU: Convergence failed at  38  side 2    Res =  0.1734E+03
 MRCHDU: Convergence failed at  39  side 2    Res =  0.3174E+03
 MRCHDU: Convergence failed at  40  side 2    Res =  0.4300E+02
 MRCHDU: Convergence failed at  41  side 2    Res =  0.5491E+02
 MRCHDU: Convergence failed at  42  side 2    Res =  0.3863E+02
 MRCHDU: Convergence failed at  43  side 2    Res =  0.4004E+02
 MRCHDU: Convergence failed at  44  side 2    Res =  0.1519E+03
 MRCHDU: Convergence failed at  45  side 2    Res =  0.1576E+03
 MRCHDU: Convergence failed at  46  side 2    Res =  0.5359E+02
 MRCHDU: Convergence failed at  47  side 2    Res =  0.1754E+03
 MRCHDU: Convergence failed at  48  side 2    Res =  0.2887E+03
 MRCHDU: Convergence failed at  49  side 2    Res =  0.2974E+03
 MRCHDU: Convergence failed at  50  side 2    Res =  0.4706E+02
 MRCHDU: Convergence failed at  51  side 2    Res =  0.5303E+02
 MRCHDU: Convergence failed at  52  side 2    Res =  0.5582E+02
 MRCHDU: Convergence failed at  53  side 2    Res =  0.6369E+02
 MRCHDU: Convergence failed at  54  side 2    Res =  0.5623E+03
 MRCHDU: Convergence failed at  55  side 2    Res =  0.4733E+02
 MRCHDU: Convergence failed at  56  side 2    Res =  0.4839E+02
 MRCHDU: Convergence failed at  57  side 2    Res =  0.4894E+02
 MRCHDU: Convergence failed at  58  side 2    Res =  0.4899E+02
 MRCHDU: Convergence failed at  59  side 2    Res =  0.4832E+02
 MRCHDU: Convergence failed at  60  side 2    Res =  0.4835E+02
 MRCHDU: Convergence failed at  61  side 2    Res =  0.4839E+02
 MRCHDU: Convergence failed at  62  side 2    Res =  0.5658E+02
 MRCHDU: Convergence failed at  63  side 2    Res =  0.5967E+02
 MRCHDU: Convergence failed at  64  side 2    Res =  0.6007E+02
 MRCHDU: Convergence failed at  65  side 2    Res =  0.6150E+02
 MRCHDU: Convergence failed at  66  side 2    Res =  0.6594E+02
 MRCHDU: Convergence failed at  67  side 2    Res =  0.2574E+03
 MRCHDU: Convergence failed at  68  side 2    Res =  0.5482E+02
 MRCHDU: Convergence failed at  69  side 2    Res =  0.1408E+03
 MRCHDU: Convergence failed at  70  side 2    Res =  0.5521E+03
 MRCHDU: Convergence failed at  71  side 2    Res =  0.2147E+03
 MRCHDU: Convergence failed at  72  side 2    Res =  0.1358E+03
 MRCHDU: Convergence failed at  73  side 2    Res =  0.1471E+03
 MRCHDU: Convergence failed at  74  side 2    Res =  0.5254E+03
 MRCHDU: Convergence failed at  75  side 2    Res =  0.1002E+03
 MRCHDU: Convergence failed at  76  side 2    Res =  0.1014E+03
 MRCHDU: Convergence failed at  77  side 2    Res =  0.1551E+06
 MRCHDU: Convergence failed at  78  side 2    Res =  0.1782E+03
 MRCHDU: Convergence failed at  79  side 2    Res =  0.1690E+03
 MRCHDU: Convergence failed at  80  side 2    Res =  0.1265E+03
 MRCHDU: Convergence failed at  81  side 2    Res =  0.1252E+03
 MRCHDU: Convergence failed at  82  side 2    Res =  0.2485E+04
 MRCHDU: Convergence failed at  83  side 2    Res =  0.9957E+03
 MRCHDU: Convergence failed at  84  side 2    Res =  0.1686E+03
 MRCHDU: Convergence failed at  85  side 2    Res =  0.9563E+02
 MRCHDU: Convergence failed at  86  side 2    Res =  0.5345E+02
 MRCHDU: Convergence failed at  87  side 2    Res =  0.3587E+03
 MRCHDU: Convergence failed at  88  side 2    Res =  0.3032E+03
 MRCHDU: Convergence failed at  90  side 2    Res =  0.1802E+00
 MRCHDU: Convergence failed at  91  side 2    Res =  0.2239E+00
 MRCHDU: Convergence failed at  92  side 2    Res =  0.2623E+00
 MRCHDU: Convergence failed at  93  side 2    Res =  0.2900E+00
 MRCHDU: Convergence failed at  94  side 2    Res =  0.3048E+00
 MRCHDU: Convergence failed at  95  side 2    Res =  0.3043E+00
 MRCHDU: Convergence failed at  96  side 2    Res =  0.2874E+00
 MRCHDU: Convergence failed at  97  side 2    Res =  0.2533E+00
 MRCHDU: Convergence failed at  98  side 2    Res =  0.2012E+00
 MRCHDU: Convergence failed at  99  side 2    Res =  0.1305E+00
 MRCHDU: Convergence failed at 100  side 2    Res =  0.4038E-01
 Side 1  free  transition at x/c =  0.8650   64
 Side 2  free  transition at x/c =  0.0302   23

  11   rms: 0.4404E+01   max: -.7364E+02   T at    2  2   RLX: 0.007
       a = -4.000      CL = -2.3115
      Cm =  0.5772     CD =  0.00285   =>   CDf =  0.00168    CDp =  0.00117

 Side 1  free  transition at x/c =  0.8655   65
 Side 2  free  transition at x/c =  0.0303   22
 idif Ue xi dudx           1  0.14966007      3.46362591E-03   43.209072    
 Uenew xinew           2  4.01772000E-03  9.29832458E-05

  12   rms: 0.9956E+00   max: 0.5706E+01   T at   23  2   RLX: 0.112
       a = -4.000      CL = -1.2825
      Cm =  0.2572     CD =  0.03439   =>   CDf =  0.00197    CDp =  0.03242

 MRCHDU: Convergence failed at  66  side 1    Res =  0.1099E+02
 MRCHDU: Convergence failed at  67  side 1    Res =  0.3502E+01
 MRCHDU: Convergence failed at  68  side 1    Res =  0.4689E+01
 MRCHDU: Convergence failed at  69  side 1    Res =  0.1122E+02
 MRCHDU: Convergence failed at  70  side 1    Res =  0.3470E+02
 MRCHDU: Convergence failed at  71  side 1    Res =  0.5930E+02
 MRCHDU: Convergence failed at  72  side 1    Res =  0.2116E+02
 MRCHDU: Convergence failed at  73  side 1    Res =  0.2715E+02
 MRCHDU: Convergence failed at  74  side 1    Res =  0.8391E+02
 Side 1  free  transition at x/c =  0.8939   66
 Side 2  free  transition at x/c =  0.0311   24

  13   rms: 0.1159E+01   max: -.1354E+02   D at    2  2   RLX: 0.037
       a = -4.000      CL = -1.1141
      Cm =  0.1995     CD =  0.03806   =>   CDf =  0.00199    CDp =  0.03607

 Side 1  free  transition at x/c =  0.9032   68
 Side 2  free  transition at x/c =  0.0312   23

  14   rms: 0.5619E+00   max: 0.2442E+01   D at   99  2   RLX: 0.225
       a = -4.000      CL = -0.9475
      Cm =  0.1542     CD =  0.04211   =>   CDf =  0.00222    CDp =  0.03989

 Side 1  free  transition at x/c =  0.9396   70
 Side 2  free  transition at x/c =  0.0312   23

  15   rms: 0.5532E+00   max: -.1068E+01   T at   23  2   RLX: 0.227
       a = -4.000      CL = -0.7391
      Cm =  0.1035     CD =  0.05359   =>   CDf =  0.00218    CDp =  0.05141

 Side 1  free  transition at x/c =  0.9455   71
 Side 2  free  transition at x/c =  0.0319   23

  16   rms: 0.4419E+00   max: -.1125E+01   T at   23  2   RLX: 0.444
       a = -4.000      CL = -0.4538
      Cm =  0.0332     CD =  0.05057   =>   CDf =  0.00231    CDp =  0.04827

 Side 1  free  transition at x/c =  0.9401   71
 Side 2  free  transition at x/c =  0.0338   22
 idif Ue xi dudx           1  0.17929481      3.94809246E-03   45.413021    
 Uenew xinew           2  4.22806367E-02  9.31024551E-04

  17   rms: 0.5082E+00   max: -.1201E+01   D at   37  2   RLX: 0.416
       a = -4.000      CL = -0.3333
      Cm = -0.0199     CD =  0.04213   =>   CDf =  0.00213    CDp =  0.04000

 Side 1  free  transition at x/c =  0.9153   69
 Side 2  free  transition at x/c =  0.0327   23

  18   rms: 0.6006E+01   max: 0.1503E+02   D at   31  2   RLX: 0.048
       a = -4.000      CL = -0.1599
      Cm = -0.0338     CD =  0.08178   =>   CDf =  0.00227    CDp =  0.07951

 Side 1  free  transition at x/c =  0.9119   69
 Side 2  free  transition at x/c =  0.0397   23

  19   rms: 0.4710E+00   max: -.1312E+01   T at   23  2   RLX: 0.381
       a = -4.000      CL = -0.0912
      Cm = -0.0653     CD =  0.04954   =>   CDf =  0.00218    CDp =  0.04736

 Side 1  free  transition at x/c =  0.8999   69
 Side 2  free  transition at x/c =  0.0426   23

  20   rms: 0.8127E+00   max: -.4278E+01   T at   23  2   RLX: 0.117
       a = -4.000      CL = -0.0894
      Cm = -0.0828     CD =  0.05023   =>   CDf =  0.00213    CDp =  0.04811

 Side 1  free  transition at x/c =  0.8977   68
 Side 2  free  transition at x/c =  0.0521   24

  21   rms: 0.4782E+00   max: -.1593E+01   T at   24  2   RLX: 0.314
       a = -4.000      CL = -0.1188
      Cm = -0.0696     CD =  0.02863   =>   CDf =  0.00311    CDp =  0.02553

 Side 1  free  transition at x/c =  0.8918   68
 Side 2  free  transition at x/c =  0.0532   24
 idif Ue xi dudx           1  0.13718311      3.05795670E-03   44.861038    
 Uenew xinew           2  1.83431339E-03  4.08887863E-05

  22   rms: 0.7636E+00   max: -.2317E+01   D at   42  2   RLX: 0.216
       a = -4.000      CL = -0.1600
      Cm = -0.0607     CD =  0.02538   =>   CDf =  0.00337    CDp =  0.02201

 MRCHDU: Convergence failed at  32  side 2    Res =  0.3986E+01
 MRCHDU: Convergence failed at  33  side 2    Res =  0.1719E+01
 MRCHDU: Convergence failed at  34  side 2    Res =  0.1598E+01
 MRCHDU: Convergence failed at  35  side 2    Res =  0.1835E+01
 MRCHDU: Convergence failed at  36  side 2    Res =  0.2675E+01
 MRCHDU: Convergence failed at  37  side 2    Res =  0.3246E+01
 MRCHDU: Convergence failed at  38  side 2    Res =  0.3327E+01
 MRCHDU: Convergence failed at  39  side 2    Res =  0.2754E+01
 MRCHDU: Convergence failed at  40  side 2    Res =  0.2490E+01
 MRCHDU: Convergence failed at  41  side 2    Res =  0.3238E+01
 MRCHDU: Convergence failed at  42  side 2    Res =  0.1355E+02
 MRCHDU: Convergence failed at  43  side 2    Res =  0.2168E+01
 MRCHDU: Convergence failed at  44  side 2    Res =  0.2290E+01
 MRCHDU: Convergence failed at  45  side 2    Res =  0.2466E+01
 MRCHDU: Convergence failed at  46  side 2    Res =  0.2658E+01
 MRCHDU: Convergence failed at  47  side 2    Res =  0.2823E+01
 MRCHDU: Convergence failed at  48  side 2    Res =  0.2984E+01
 MRCHDU: Convergence failed at  49  side 2    Res =  0.3140E+01
 MRCHDU: Convergence failed at  50  side 2    Res =  0.3287E+01
 MRCHDU: Convergence failed at  51  side 2    Res =  0.3426E+01
 MRCHDU: Convergence failed at  52  side 2    Res =  0.3566E+01
 MRCHDU: Convergence failed at  53  side 2    Res =  0.3849E+01
 MRCHDU: Convergence failed at  54  side 2    Res =  0.4773E+01
 MRCHDU: Convergence failed at  55  side 2    Res =  0.4965E+01
 MRCHDU: Convergence failed at  56  side 2    Res =  0.5156E+01
 MRCHDU: Convergence failed at  57  side 2    Res =  0.5325E+01
 MRCHDU: Convergence failed at  58  side 2    Res =  0.5484E+01
 MRCHDU: Convergence failed at  59  side 2    Res =  0.5638E+01
 MRCHDU: Convergence failed at  60  side 2    Res =  0.5805E+01
 MRCHDU: Convergence failed at  61  side 2    Res =  0.5956E+01
 MRCHDU: Convergence failed at  62  side 2    Res =  0.6106E+01
 MRCHDU: Convergence failed at  63  side 2    Res =  0.6264E+01
 MRCHDU: Convergence failed at  64  side 2    Res =  0.6412E+01
 MRCHDU: Convergence failed at  65  side 2    Res =  0.6561E+01
 MRCHDU: Convergence failed at  66  side 2    Res =  0.6738E+01
 MRCHDU: Convergence failed at  67  side 2    Res =  0.6907E+01
 MRCHDU: Convergence failed at  68  side 2    Res =  0.7107E+01
 MRCHDU: Convergence failed at  69  side 2    Res =  0.7316E+01
 MRCHDU: Convergence failed at  70  side 2    Res =  0.7530E+01
 MRCHDU: Convergence failed at  71  side 2    Res =  0.7759E+01
 MRCHDU: Convergence failed at  72  side 2    Res =  0.7978E+01
 MRCHDU: Convergence failed at  73  side 2    Res =  0.1021E+02
 MRCHDU: Convergence failed at  74  side 2    Res =  0.1066E+02
 MRCHDU: Convergence failed at  75  side 2    Res =  0.1112E+02
 MRCHDU: Convergence failed at  76  side 2    Res =  0.1160E+02
 MRCHDU: Convergence failed at  77  side 2    Res =  0.1227E+02
 MRCHDU: Convergence failed at  78  side 2    Res =  0.1320E+02
 MRCHDU: Convergence failed at  79  side 2    Res =  0.1453E+02
 MRCHDU: Convergence failed at  80  side 2    Res =  0.1970E+02
 MRCHDU: Convergence failed at  81  side 2    Res =  0.3316E+02
 MRCHDU: Convergence failed at  82  side 2    Res =  0.4115E+02
 MRCHDU: Convergence failed at  83  side 2    Res =  0.2958E+02
 MRCHDU: Convergence failed at  84  side 2    Res =  0.2114E+02
 MRCHDU: Convergence failed at  85  side 2    Res =  0.1058E+02
 MRCHDU: Convergence failed at  86  side 2    Res =  0.9159E+01
 MRCHDU: Convergence failed at  87  side 2    Res =  0.7393E+01
 Side 1  free  transition at x/c =  0.8894   67
 Side 2  free  transition at x/c =  0.0378   23

  23   rms: 0.5528E+00   max: -.2495E+01   T at   24  2   RLX: 0.200
       a = -4.000      CL = -0.5888
      Cm =  0.0964     CD =  0.02783   =>   CDf =  0.00239    CDp =  0.02544

 Side 1  free  transition at x/c =  0.8886   68
 Side 2  free  transition at x/c =  0.0375   22

  24   rms: 0.2578E+00   max: -.2187E+01   T at   23  2   RLX: 0.229
       a = -4.000      CL = -0.5174
      Cm =  0.0686     CD =  0.01913   =>   CDf =  0.00601    CDp =  0.01312

 Side 1  free  transition at x/c =  0.8858   68
 Side 2  free  transition at x/c =  0.0371   22

  25   rms: 0.2836E+00   max: -.4478E+01   T at   23  2   RLX: 0.112
       a = -4.000      CL = -0.4926
      Cm =  0.0583     CD =  0.02160   =>   CDf =  0.00547    CDp =  0.01613

 Side 1  free  transition at x/c =  0.8850   68
 Side 2  free  transition at x/c =  0.0364   22

  26   rms: 0.2173E+00   max: 0.1363E+01   T at   23  2   RLX: 0.577
       a = -4.000      CL = -0.3645
      Cm =  0.0133     CD =  0.02334   =>   CDf =  0.00523    CDp =  0.01811

 Side 1  free  transition at x/c =  0.8818   67
 Side 2  free  transition at x/c =  0.0373   22

  27   rms: 0.1994E+00   max: -.1483E+01   T at   23  2   RLX: 0.337
       a = -4.000      CL = -0.3273
      Cm =  0.0017     CD =  0.02560   =>   CDf =  0.00470    CDp =  0.02089

 Side 1  free  transition at x/c =  0.8801   67
 Side 2  free  transition at x/c =  0.0366   22

  28   rms: 0.2367E+00   max: 0.1239E+01   T at   22  2   RLX: 0.576
       a = -4.000      CL = -0.2894
      Cm = -0.0105     CD =  0.02406   =>   CDf =  0.00454    CDp =  0.01952

 Side 1  free  transition at x/c =  0.8785   67
 Side 2  free  transition at x/c =  0.0346   22
 idif Ue xi dudx           1  0.14025663      3.04281712E-03   46.094334    
 Uenew xinew           2  1.18689251E-03  2.57492065E-05

  29   rms: 0.2425E+00   max: -.8552E+00   D at   23  2   RLX: 0.585
       a = -4.000      CL = -0.2757
      Cm = -0.0145     CD =  0.02104   =>   CDf =  0.00484    CDp =  0.01620

 Side 1  free  transition at x/c =  0.8779   66
 Side 2  free  transition at x/c =  0.0335   23

  30   rms: 0.2361E+00   max: 0.1771E+01   T at    2  2   RLX: 0.606
       a = -4.000      CL = -0.2705
      Cm = -0.0149     CD =  0.01790   =>   CDf =  0.00546    CDp =  0.01244

 Side 1  free  transition at x/c =  0.8777   66
 Side 2  free  transition at x/c =  0.0332   23

  31   rms: 0.1462E+00   max: -.7579E+00   D at   26  2   RLX: 0.660
       a = -4.000      CL = -0.2688
      Cm = -0.0153     CD =  0.01548   =>   CDf =  0.00604    CDp =  0.00945

 Side 1  free  transition at x/c =  0.8779   66
 Side 2  free  transition at x/c =  0.0334   23

  32   rms: 0.5176E-01   max: -.4524E+00   D at   26  2
       a = -4.000      CL = -0.2702
      Cm = -0.0158     CD =  0.01434   =>   CDf =  0.00632    CDp =  0.00802

 Side 1  free  transition at x/c =  0.8780   66
 Side 2  free  transition at x/c =  0.0334   23

  33   rms: 0.1512E-01   max: 0.1499E+00   D at   24  2
       a = -4.000      CL = -0.2704
      Cm = -0.0159     CD =  0.01460   =>   CDf =  0.00639    CDp =  0.00821

 Side 1  free  transition at x/c =  0.8780   66
 Side 2  free  transition at x/c =  0.0333   23

  34   rms: 0.1703E-02   max: 0.1228E-01   D at   24  2
       a = -4.000      CL = -0.2705
      Cm = -0.0159     CD =  0.01460   =>   CDf =  0.00640    CDp =  0.00819

 Side 1  free  transition at x/c =  0.8780   66
 Side 2  free  transition at x/c =  0.0332   23

  35   rms: 0.1528E-04   max: 0.1609E-03   D at   24  2
       a = -4.000      CL = -0.2705
      Cm = -0.0159     CD =  0.01460   =>   CDf =  0.00640    CDp =  0.00819
 plradd ia,ip,cpol            1           0  1.12112740E-03

 Point added to stored polar  1
 Point written to save file  vr12_Re500k.base.pol                            
 Dump file unspecified or not available
 Calculating wake trajectory ...
 Calculating source influence matrix ...

 Solving BL system ...

 Side 1  free  transition at x/c =  0.8780   66
 Side 2  free  transition at x/c =  0.0332   23

   1   rms: 0.9136E-01   max: -.4449E+00   T at   23  2
       a = -3.500      CL = -0.2178
      Cm = -0.0150     CD =  0.01339   =>   CDf =  0.00646    CDp =  0.00693

 Side 1  free  transition at x/c =  0.8597   66
 Side 2  free  transition at x/c =  0.0365   22

   2   rms: 0.3853E-01   max: -.2941E+00   D at   67  1
       a = -3.500      CL = -0.2196
      Cm = -0.0143     CD =  0.01358   =>   CDf =  0.00650    CDp =  0.00708

 Side 1  free  transition at x/c =  0.8650   66
 Side 2  free  transition at x/c =  0.0362   22

   3   rms: 0.2909E-02   max: 0.5176E-01   D at   67  1
       a = -3.500      CL = -0.2193
      Cm = -0.0144     CD =  0.01360   =>   CDf =  0.00651    CDp =  0.00709

 Side 1  free  transition at x/c =  0.8640   66
 Side 2  free  transition at x/c =  0.0362   22

   4   rms: 0.4066E-04   max: 0.5408E-03   D at   68  1
       a = -3.500      CL = -0.2193
      Cm = -0.0144     CD =  0.01360   =>   CDf =  0.00651    CDp =  0.00709
 plradd ia,ip,cpol            2           0  1.12112740E-03

 Point added to stored polar  1
 Point written to save file  vr12_Re500k.base.pol                            
 Dump file unspecified or not available
 Calculating wake trajectory ...
 Calculating source influence matrix ...

 Solving BL system ...

 Side 1  free  transition at x/c =  0.8640   66
 Side 2  free  transition at x/c =  0.0362   22

   1   rms: 0.9215E-01   max: -.4144E+00   T at   22  2
       a = -3.000      CL = -0.1664
      Cm = -0.0133     CD =  0.01255   =>   CDf =  0.00651    CDp =  0.00604

 Side 1  free  transition at x/c =  0.8457   65
 Side 2  free  transition at x/c =  0.0383   22

   2   rms: 0.4512E-01   max: -.1856E+00   D at   24  2
       a = -3.000      CL = -0.1673
      Cm = -0.0129     CD =  0.01260   =>   CDf =  0.00668    CDp =  0.00591

 Side 1  free  transition at x/c =  0.8485   65
 Side 2  free  transition at x/c =  0.0381   22

   3   rms: 0.1640E-02   max: 0.1801E-01   D at   22  2
       a = -3.000      CL = -0.1674
      Cm = -0.0129     CD =  0.01270   =>   CDf =  0.00664    CDp =  0.00605

 Side 1  free  transition at x/c =  0.8479   65
 Side 2  free  transition at x/c =  0.0381   22

   4   rms: 0.2240E-04   max: -.2096E-03   D at   66  1
       a = -3.000      CL = -0.1674
      Cm = -0.0129     CD =  0.01270   =>   CDf =  0.00664    CDp =  0.00605
 plradd ia,ip,cpol            3           0  1.12112740E-03

 Point added to stored polar  1
 Point written to save file  vr12_Re500k.base.pol                            
 Dump file unspecified or not available
 Calculating wake trajectory ...
 Calculating source influence matrix ...

 Solving BL system ...

 Side 1  free  transition at x/c =  0.8479   65
 Side 2  free  transition at x/c =  0.0381   22

   1   rms: 0.8471E-01   max: -.4599E+00   T at   22  2
       a = -2.500      CL = -0.1131
      Cm = -0.0121     CD =  0.01210   =>   CDf =  0.00669    CDp =  0.00542

 Side 1  free  transition at x/c =  0.8282   65
 Side 2  free  transition at x/c =  0.0416   22

   2   rms: 0.4967E-01   max: 0.5516E+00   D at   22  2
       a = -2.500      CL = -0.1189
      Cm = -0.0110     CD =  0.01123   =>   CDf =  0.00677    CDp =  0.00446

 Side 1  free  transition at x/c =  0.8325   65
 Side 2  free  transition at x/c =  0.0416   22

   3   rms: 0.9794E-02   max: 0.1048E+00   D at   22  2
       a = -2.500      CL = -0.1182
      Cm = -0.0112     CD =  0.01130   =>   CDf =  0.00670    CDp =  0.00460

 Side 1  free  transition at x/c =  0.8317   65
 Side 2  free  transition at x/c =  0.0415   22

   4   rms: 0.1565E-03   max: 0.1430E-02   D at   23  2
       a = -2.500      CL = -0.1182
      Cm = -0.0112     CD =  0.01130   =>   CDf =  0.00670    CDp =  0.00460

 Side 1  free  transition at x/c =  0.8317   65
 Side 2  free  transition at x/c =  0.0415   22

   5   rms: 0.1705E-05   max: -.4447E-05   T at   72  2
       a = -2.500      CL = -0.1182
      Cm = -0.0112     CD =  0.01130   =>   CDf =  0.00670    CDp =  0.00460
 plradd ia,ip,cpol            4           0  5.56320325E-03

 Point added to stored polar  1
 Point written to save file  vr12_Re500k.base.pol                            
 Dump file unspecified or not available
 Calculating wake trajectory ...
 Calculating source influence matrix ...

 Solving BL system ...

 Side 1  free  transition at x/c =  0.8317   65
 Side 2  free  transition at x/c =  0.0415   22

   1   rms: 0.9360E-01   max: -.4800E+00   T at   22  2
       a = -2.000      CL = -0.0659
      Cm = -0.0102     CD =  0.01053   =>   CDf =  0.00673    CDp =  0.00380

 Side 1  free  transition at x/c =  0.8125   65
 Side 2  free  transition at x/c =  0.0447   21

   2   rms: 0.5209E-01   max: -.3644E+00   D at   21  2
       a = -2.000      CL = -0.0661
      Cm = -0.0099     CD =  0.01060   =>   CDf =  0.00676    CDp =  0.00384

 Side 1  free  transition at x/c =  0.8153   65
 Side 2  free  transition at x/c =  0.0448   21

   3   rms: 0.4277E-02   max: 0.3366E-01   D at   21  2
       a = -2.000      CL = -0.0661
      Cm = -0.0100     CD =  0.01062   =>   CDf =  0.00676    CDp =  0.00386

 Side 1  free  transition at x/c =  0.8146   65
 Side 2  free  transition at x/c =  0.0448   21

   4   rms: 0.3506E-04   max: -.3269E-03   D at   65  1
       a = -2.000      CL = -0.0661
      Cm = -0.0100     CD =  0.01062   =>   CDf =  0.00677    CDp =  0.00385
 plradd ia,ip,cpol            5           0  7.64665613E-03

 Point added to stored polar  1
 Point written to save file  vr12_Re500k.base.pol                            
 Dump file unspecified or not available
 Calculating wake trajectory ...
 Calculating source influence matrix ...

 Solving BL system ...

 Side 1  free  transition at x/c =  0.8146   65
 Side 2  free  transition at x/c =  0.0448   21

   1   rms: 0.9260E-01   max: -.3229E+00   T at   21  2
       a = -1.500      CL = -0.0132
      Cm = -0.0089     CD =  0.01000   =>   CDf =  0.00677    CDp =  0.00323

 Side 1  free  transition at x/c =  0.7955   64
 Side 2  free  transition at x/c =  0.0488   22

   2   rms: 0.1323E-01   max: -.2009E+00   D at   64  1
       a = -1.500      CL = -0.0133
      Cm = -0.0089     CD =  0.01008   =>   CDf =  0.00689    CDp =  0.00319

 Side 1  free  transition at x/c =  0.7978   64
 Side 2  free  transition at x/c =  0.0485   22

   3   rms: 0.1832E-02   max: 0.2269E-01   C at   64  1
       a = -1.500      CL = -0.0131
      Cm = -0.0089     CD =  0.01008   =>   CDf =  0.00685    CDp =  0.00324

 Side 1  free  transition at x/c =  0.7971   64
 Side 2  free  transition at x/c =  0.0485   22

   4   rms: 0.3413E-04   max: -.5911E-03   D at   66  1
       a = -1.500      CL = -0.0131
      Cm = -0.0089     CD =  0.01008   =>   CDf =  0.00686    CDp =  0.00323
 plradd ia,ip,cpol            6           0  7.64665613E-03

 Point added to stored polar  1
 Point written to save file  vr12_Re500k.base.pol                            
 Dump file unspecified or not available
 Calculating wake trajectory ...
 Calculating source influence matrix ...

 Solving BL system ...

 Side 1  free  transition at x/c =  0.7971   64
 Side 2  free  transition at x/c =  0.0485   22

   1   rms: 0.1259E+00   max: -.4685E+00   D at   23  2
       a = -1.000      CL =  0.0378
      Cm = -0.0075     CD =  0.00917   =>   CDf =  0.00687    CDp =  0.00230

 Side 1  free  transition at x/c =  0.7809   64
 Side 2  free  transition at x/c =  0.0595   22

   2   rms: 0.2631E-01   max: 0.2607E+00   D at   20  2
       a = -1.000      CL =  0.0409
      Cm = -0.0081     CD =  0.00968   =>   CDf =  0.00693    CDp =  0.00275

 Side 1  free  transition at x/c =  0.7804   64
 Side 2  free  transition at x/c =  0.0551   21

   3   rms: 0.3051E-01   max: -.4037E+00   D at   21  2
       a = -1.000      CL =  0.0402
      Cm = -0.0080     CD =  0.00955   =>   CDf =  0.00689    CDp =  0.00266

 Side 1  free  transition at x/c =  0.7804   64
 Side 2  free  transition at x/c =  0.0570   21

   4   rms: 0.3351E-02   max: 0.4916E-01   D at   21  2
       a = -1.000      CL =  0.0403
      Cm = -0.0080     CD =  0.00957   =>   CDf =  0.00691    CDp =  0.00266

 Side 1  free  transition at x/c =  0.7804   64
 Side 2  free  transition at x/c =  0.0567   21

   5   rms: 0.2694E-04   max: 0.3503E-03   D at   21  2
       a = -1.000      CL =  0.0403
      Cm = -0.0080     CD =  0.00957   =>   CDf =  0.00691    CDp =  0.00266
 plradd ia,ip,cpol            7           0  7.64665613E-03

 Point added to stored polar  1
 Point written to save file  vr12_Re500k.base.pol                            
 Dump file unspecified or not available
 Calculating wake trajectory ...
 Calculating source influence matrix ...

 Solving BL system ...

 Side 1  free  transition at x/c =  0.7804   64
 Side 2  free  transition at x/c =  0.0567   21

   1   rms: 0.9745E-01   max: -.5512E+00   T at   21  2   RLX: 0.907
       a = -0.500      CL =  0.0893
      Cm = -0.0073     CD =  0.00927   =>   CDf =  0.00691    CDp =  0.00236

 Side 1  free  transition at x/c =  0.7649   64
 Side 2  free  transition at x/c =  0.0803   22

   2   rms: 0.2923E+00   max: -.6723E+01   C at   22  2   RLX: 0.074
       a = -0.500      CL =  0.0903
      Cm = -0.0069     CD =  0.00928   =>   CDf =  0.00691    CDp =  0.00237

 Side 1  free  transition at x/c =  0.7647   64
 Side 2  free  transition at x/c =  0.0850   22

   3   rms: 0.4972E+00   max: -.1202E+02   C at   22  2   RLX: 0.042
       a = -0.500      CL =  0.0903
      Cm = -0.0069     CD =  0.00924   =>   CDf =  0.00686    CDp =  0.00238

 Side 1  free  transition at x/c =  0.7647   64
 Side 2  free  transition at x/c =  0.0837   22

   4   rms: 0.7554E-01   max: -.9913E+00   T at   22  2   RLX: 0.504
       a = -0.500      CL =  0.0925
      Cm = -0.0069     CD =  0.00917   =>   CDf =  0.00689    CDp =  0.00227

 Side 1  free  transition at x/c =  0.7637   64
 Side 2  free  transition at x/c =  0.3332   38

   5   rms: 0.7272E+00   max: -.1507E+02   C at   38  2   RLX: 0.033
       a = -0.500      CL =  0.0899
      Cm = -0.0070     CD =  0.00822   =>   CDf =  0.00602    CDp =  0.00220

 Side 1  free  transition at x/c =  0.7637   64
 Side 2  free  transition at x/c =  0.3509   40

   6   rms: 0.1314E+01   max: -.2767E+02   C at   40  2   RLX: 0.018
       a = -0.500      CL =  0.0892
      Cm = -0.0070     CD =  0.00812   =>   CDf =  0.00594    CDp =  0.00219

 Side 1  free  transition at x/c =  0.7637   64
 Side 2  free  transition at x/c =  0.3671   41

   7   rms: 0.1443E+01   max: -.3019E+02   C at   41  2   RLX: 0.017
       a = -0.500      CL =  0.0887
      Cm = -0.0069     CD =  0.00806   =>   CDf =  0.00588    CDp =  0.00218

 TRCHEK2: N2 convergence failed.
 x:  0.38008  0.39584  0.39584  N:  8.975  9.000  9.001  Nx:   1.650   dN: 0.951E-03
 Side 1  free  transition at x/c =  0.7637   64
 Side 2  free  transition at x/c =  0.3858   42

   8   rms: 0.1630E+01   max: -.3381E+02   C at   42  2   RLX: 0.015
       a = -0.500      CL =  0.0882
      Cm = -0.0068     CD =  0.00800   =>   CDf =  0.00582    CDp =  0.00218

 Side 1  free  transition at x/c =  0.7638   64
 Side 2  free  transition at x/c =  0.4029   43

   9   rms: 0.1682E+01   max: -.3469E+02   C at   43  2   RLX: 0.014
       a = -0.500      CL =  0.0877
      Cm = -0.0067     CD =  0.00794   =>   CDf =  0.00576    CDp =  0.00217

 Side 1  free  transition at x/c =  0.7638   64
 Side 2  free  transition at x/c =  0.4197   44

  10   rms: 0.1675E+01   max: -.3437E+02   C at   44  2   RLX: 0.015
       a = -0.500      CL =  0.0872
      Cm = -0.0066     CD =  0.00787   =>   CDf =  0.00571    CDp =  0.00217

 Side 1  free  transition at x/c =  0.7638   64
 Side 2  free  transition at x/c =  0.4157   44

  11   rms: 0.7884E+00   max: -.1642E+02   C at   44  2   RLX: 0.030
       a = -0.500      CL =  0.0870
      Cm = -0.0066     CD =  0.00788   =>   CDf =  0.00572    CDp =  0.00216

 Side 1  free  transition at x/c =  0.7638   64
 Side 2  free  transition at x/c =  0.4209   44

  12   rms: 0.6165E+00   max: -.1262E+02   C at   44  2   RLX: 0.040
       a = -0.500      CL =  0.0867
      Cm = -0.0066     CD =  0.00787   =>   CDf =  0.00570    CDp =  0.00217

 Side 1  free  transition at x/c =  0.7638   64
 Side 2  free  transition at x/c =  0.4301   45
 idif Ue xi dudx           1  0.14617033      2.09856033E-03   69.652672    
 Uenew xinew           2  5.39710978E-04  7.74860382E-06

  13   rms: 0.4488E+00   max: -.9284E+01   C at   45  2   RLX: 0.054
       a = -0.500      CL =  0.0861
      Cm = -0.0065     CD =  0.00782   =>   CDf =  0.00568    CDp =  0.00214

 Side 1  free  transition at x/c =  0.7638   63
 Side 2  free  transition at x/c =  0.4448   46

  14   rms: 0.6121E+00   max: -.1180E+02   C at   46  2   RLX: 0.042
       a = -0.500      CL =  0.0856
      Cm = -0.0064     CD =  0.00778   =>   CDf =  0.00561    CDp =  0.00217

 Side 1  free  transition at x/c =  0.7638   63
 Side 2  free  transition at x/c =  0.4568   47

  15   rms: 0.4403E+00   max: -.8658E+01   C at   47  2   RLX: 0.058
       a = -0.500      CL =  0.0850
      Cm = -0.0063     CD =  0.00772   =>   CDf =  0.00556    CDp =  0.00216

 Side 1  free  transition at x/c =  0.7638   63
 Side 2  free  transition at x/c =  0.4877   49

  16   rms: 0.2564E+00   max: -.5056E+01   C at   49  2   RLX: 0.099
       a = -0.500      CL =  0.0838
      Cm = -0.0061     CD =  0.00760   =>   CDf =  0.00545    CDp =  0.00215

 Side 1  free  transition at x/c =  0.7638   63
 Side 2  free  transition at x/c =  0.5063   50

  17   rms: 0.1493E+00   max: -.2878E+01   C at   50  2   RLX: 0.174
       a = -0.500      CL =  0.0827
      Cm = -0.0058     CD =  0.00753   =>   CDf =  0.00538    CDp =  0.00214

 Side 1  free  transition at x/c =  0.7637   63
 Side 2  free  transition at x/c =  0.5315   52

  18   rms: 0.1650E+00   max: -.3267E+01   C at   52  2   RLX: 0.153
       a = -0.500      CL =  0.0813
      Cm = -0.0055     CD =  0.00741   =>   CDf =  0.00529    CDp =  0.00213

 Side 1  free  transition at x/c =  0.7637   63
 Side 2  free  transition at x/c =  0.5490   53

  19   rms: 0.1238E+00   max: -.2426E+01   C at   53  2   RLX: 0.206
       a = -0.500      CL =  0.0801
      Cm = -0.0053     CD =  0.00734   =>   CDf =  0.00522    CDp =  0.00212

 Side 1  free  transition at x/c =  0.7637   63
 Side 2  free  transition at x/c =  0.5619   54

  20   rms: 0.6533E-01   max: -.1276E+01   C at   54  2   RLX: 0.392
       a = -0.500      CL =  0.0787
      Cm = -0.0050     CD =  0.00727   =>   CDf =  0.00517    CDp =  0.00211

 Side 1  free  transition at x/c =  0.7636   63
 Side 2  free  transition at x/c =  0.5688   54

  21   rms: 0.2108E-01   max: -.3920E+00   C at   54  2
       a = -0.500      CL =  0.0776
      Cm = -0.0048     CD =  0.00726   =>   CDf =  0.00514    CDp =  0.00212

 Side 1  free  transition at x/c =  0.7635   63
 Side 2  free  transition at x/c =  0.5544   53

  22   rms: 0.1909E-01   max: -.3628E+00   C at   53  2
       a = -0.500      CL =  0.0785
      Cm = -0.0050     CD =  0.00733   =>   CDf =  0.00519    CDp =  0.00213

 Side 1  free  transition at x/c =  0.7635   63
 Side 2  free  transition at x/c =  0.5690   54

  23   rms: 0.5617E-02   max: 0.1066E+00   C at   54  2
       a = -0.500      CL =  0.0783
      Cm = -0.0049     CD =  0.00732   =>   CDf =  0.00513    CDp =  0.00219

 Side 1  free  transition at x/c =  0.7635   63
 Side 2  free  transition at x/c =  0.5658   54

  24   rms: 0.1631E-03   max: -.3188E-02   C at   54  2
       a = -0.500      CL =  0.0783
      Cm = -0.0049     CD =  0.00732   =>   CDf =  0.00515    CDp =  0.00217

 Side 1  free  transition at x/c =  0.7635   63
 Side 2  free  transition at x/c =  0.5659   54

  25   rms: 0.4345E-05   max: 0.7199E-04   C at   54  2
       a = -0.500      CL =  0.0783
      Cm = -0.0049     CD =  0.00732   =>   CDf =  0.00515    CDp =  0.00217
 plradd ia,ip,cpol            8           0  1.00759864E-02

 Point added to stored polar  1
 Point written to save file  vr12_Re500k.base.pol                            
 Dump file unspecified or not available
 Calculating wake trajectory ...
 Calculating source influence matrix ...

 Solving BL system ...

 Side 1  free  transition at x/c =  0.7635   63
 Side 2  free  transition at x/c =  0.5659   54

   1   rms: 0.1408E+01   max: -.2730E+02   C at   54  2   RLX: 0.018
       a =  0.000      CL =  0.0785
      Cm = -0.0048     CD =  0.00726   =>   CDf =  0.00515    CDp =  0.00211

 Side 1  free  transition at x/c =  0.7632   63
 Side 2  free  transition at x/c =  0.5838   55

   2   rms: 0.1445E+01   max: -.2755E+02   C at   55  2   RLX: 0.018
       a =  0.000      CL =  0.0787
      Cm = -0.0046     CD =  0.00718   =>   CDf =  0.00508    CDp =  0.00210

 Side 1  free  transition at x/c =  0.7629   63
 Side 2  free  transition at x/c =  0.6012   56

   3   rms: 0.1262E+01   max: -.2373E+02   C at   56  2   RLX: 0.021
       a =  0.000      CL =  0.0790
      Cm = -0.0044     CD =  0.00711   =>   CDf =  0.00502    CDp =  0.00210

 Side 1  free  transition at x/c =  0.7626   63
 Side 2  free  transition at x/c =  0.6255   58

   4   rms: 0.1011E+01   max: -.1948E+02   C at   58  2   RLX: 0.026
       a =  0.000      CL =  0.0791
      Cm = -0.0041     CD =  0.00701   =>   CDf =  0.00493    CDp =  0.00208

 Side 1  free  transition at x/c =  0.7622   63
 Side 2  free  transition at x/c =  0.6461   59

   5   rms: 0.9075E+00   max: -.1717E+02   C at   59  2   RLX: 0.029
       a =  0.000      CL =  0.0795
      Cm = -0.0039     CD =  0.00693   =>   CDf =  0.00483    CDp =  0.00210

 Side 1  free  transition at x/c =  0.7618   64
 Side 2  free  transition at x/c =  0.6732   60

   6   rms: 0.9575E+00   max: -.1752E+02   C at   60  2   RLX: 0.029
       a =  0.000      CL =  0.0795
      Cm = -0.0035     CD =  0.00681   =>   CDf =  0.00476    CDp =  0.00206

 Side 1  free  transition at x/c =  0.7615   64
 Side 2  free  transition at x/c =  0.6925   61

   7   rms: 0.8173E+00   max: -.1549E+02   C at   61  2   RLX: 0.032
       a =  0.000      CL =  0.0798
      Cm = -0.0032     CD =  0.00674   =>   CDf =  0.00468    CDp =  0.00206

 Side 1  free  transition at x/c =  0.7611   64
 Side 2  free  transition at x/c =  0.7139   62

   8   rms: 0.7063E+00   max: -.1312E+02   C at   62  2   RLX: 0.038
       a =  0.000      CL =  0.0804
      Cm = -0.0029     CD =  0.00667   =>   CDf =  0.00461    CDp =  0.00206

 Side 1  free  transition at x/c =  0.7606   64
 Side 2  free  transition at x/c =  0.7418   64

   9   rms: 0.6685E+00   max: -.1251E+02   C at   64  2   RLX: 0.040
       a =  0.000      CL =  0.0806
      Cm = -0.0024     CD =  0.00655   =>   CDf =  0.00450    CDp =  0.00205

 Side 1  free  transition at x/c =  0.7601   64
 Side 2  free  transition at x/c =  0.7659   66

  10   rms: 0.5903E+00   max: -.1131E+02   C at   66  2   RLX: 0.044
       a =  0.000      CL =  0.0811
      Cm = -0.0020     CD =  0.00645   =>   CDf =  0.00441    CDp =  0.00204

 Side 1  free  transition at x/c =  0.7597   64
 Side 2  free  transition at x/c =  0.7867   67

  11   rms: 0.4866E+00   max: -.9183E+01   C at   67  2   RLX: 0.054
       a =  0.000      CL =  0.0823
      Cm = -0.0017     CD =  0.00638   =>   CDf =  0.00433    CDp =  0.00205

 Side 1  free  transition at x/c =  0.7591   63
 Side 2  free  transition at x/c =  0.8135   69

  12   rms: 0.5035E+00   max: -.9545E+01   C at   69  2   RLX: 0.052
       a =  0.000      CL =  0.0835
      Cm = -0.0014     CD =  0.00628   =>   CDf =  0.00422    CDp =  0.00206

 Side 1  free  transition at x/c =  0.7584   63
 Side 2  free  transition at x/c =  0.8353   70

  13   rms: 0.3637E+00   max: -.6673E+01   C at   70  2   RLX: 0.075
       a =  0.000      CL =  0.0864
      Cm = -0.0014     CD =  0.00623   =>   CDf =  0.00414    CDp =  0.00209

 Side 1  free  transition at x/c =  0.7574   63
 Side 2  free  transition at x/c =  0.8702   72

  14   rms: 0.4527E+00   max: -.7566E+01   C at   72  2   RLX: 0.066
       a =  0.000      CL =  0.0914
      Cm = -0.0016     CD =  0.00618   =>   CDf =  0.00401    CDp =  0.00217

 Side 1  free  transition at x/c =  0.7564   63
 Side 2  free  transition at x/c =  0.9058   75

  15   rms: 0.4740E+00   max: -.3766E+01   C at   75  2   RLX: 0.133
       a =  0.000      CL =  0.1189
      Cm = -0.0058     CD =  0.00616   =>   CDf =  0.00392    CDp =  0.00224

 Side 1  free  transition at x/c =  0.7537   63
 Side 2  free  transition at x/c =  0.9450   77

  16   rms: 0.5153E-01   max: 0.4554E+00   C at   77  2
       a =  0.000      CL =  0.1088
      Cm =  0.0020     CD =  0.00634   =>   CDf =  0.00390    CDp =  0.00244

 MRCHDU: Convergence failed at  80  side 2    Res =  0.4459E+01
 MRCHDU: Convergence failed at  81  side 2    Res =  0.4203E+01
 MRCHDU: Convergence failed at  82  side 2    Res =  0.4060E+01
 Side 1  free  transition at x/c =  0.7434   62
 Side 2 forced transition at x/c =  1.0000   82

  17   rms: 0.2108E+00   max: 0.2877E+01   C at   82  2   RLX: 0.521
       a =  0.000      CL =  0.1545
      Cm = -0.0068     CD =  0.00549   =>   CDf =  0.00399    CDp =  0.00150

 Side 1  free  transition at x/c =  0.7419   62
 Side 2  free  transition at x/c =  0.9797   80

  18   rms: 0.4139E-01   max: 0.3016E+00   T at   80  2
       a =  0.000      CL =  0.1679
      Cm = -0.0107     CD =  0.00648   =>   CDf =  0.00399    CDp =  0.00249

 Side 1  free  transition at x/c =  0.7420   62
 Side 2  free  transition at x/c =  0.9616   79

  19   rms: 0.9923E-02   max: -.1743E+00   D at   79  2
       a =  0.000      CL =  0.1661
      Cm = -0.0103     CD =  0.00662   =>   CDf =  0.00398    CDp =  0.00265

 Side 1  free  transition at x/c =  0.7421   62
 Side 2  free  transition at x/c =  0.9610   79

  20   rms: 0.1217E-02   max: -.1148E-01   D at   79  2
       a =  0.000      CL =  0.1659
      Cm = -0.0103     CD =  0.00662   =>   CDf =  0.00397    CDp =  0.00264

 Side 1  free  transition at x/c =  0.7421   62
 Side 2  free  transition at x/c =  0.9612   79

  21   rms: 0.2229E-04   max: 0.1567E-03   D at   81  2
       a =  0.000      CL =  0.1659
      Cm = -0.0103     CD =  0.00662   =>   CDf =  0.00397    CDp =  0.00264
 plradd ia,ip,cpol            9           0  7.95876682E-02

 Point added to stored polar  1
 Point written to save file  vr12_Re500k.base.pol                            
 Dump file unspecified or not available
 Calculating wake trajectory ...
 Calculating source influence matrix ...

 Solving BL system ...

 Side 1  free  transition at x/c =  0.7421   62
 Side 2  free  transition at x/c =  0.9612   79

   1   rms: 0.2936E+00   max: 0.1469E+01   D at   80  2   RLX: 0.782
       a =  0.500      CL =  0.2998
      Cm = -0.0282     CD =  0.00759   =>   CDf =  0.00402    CDp =  0.00357

 Side 1  free  transition at x/c =  0.7028   62
 Side 2  free  transition at x/c =  0.9926   79

   2   rms: 0.4545E-01   max: -.4310E+00   D at   63  1
       a =  0.500      CL =  0.2915
      Cm = -0.0242     CD =  0.00744   =>   CDf =  0.00424    CDp =  0.00320

 Side 1  free  transition at x/c =  0.7092   62
 Side 2 forced transition at x/c =  1.0000   80

   3   rms: 0.2876E-01   max: 0.2276E+00   D at   80  2
       a =  0.500      CL =  0.3069
      Cm = -0.0276     CD =  0.00733   =>   CDf =  0.00416    CDp =  0.00317

 Side 1  free  transition at x/c =  0.7030   62
 Side 2  free  transition at x/c =  0.9946   80

   4   rms: 0.2823E-01   max: -.2477E+00   D at   80  2
       a =  0.500      CL =  0.2973
      Cm = -0.0255     CD =  0.00728   =>   CDf =  0.00420    CDp =  0.00309

 Side 1  free  transition at x/c =  0.7049   62
 Side 2  free  transition at x/c =  0.9981   80

   5   rms: 0.2606E-02   max: 0.2552E-01   T at   80  2
       a =  0.500      CL =  0.2976
      Cm = -0.0256     CD =  0.00732   =>   CDf =  0.00418    CDp =  0.00314

 Side 1  free  transition at x/c =  0.7049   62
 Side 2  free  transition at x/c =  0.9976   80

   6   rms: 0.3765E-04   max: -.5801E-03   D at   84  2
       a =  0.500      CL =  0.2976
      Cm = -0.0256     CD =  0.00732   =>   CDf =  0.00418    CDp =  0.00314
 plradd ia,ip,cpol           10           0  7.95876682E-02

 Point added to stored polar  1
 Point written to save file  vr12_Re500k.base.pol                            
 Dump file unspecified or not available
 Calculating wake trajectory ...
 Calculating source influence matrix ...

 Solving BL system ...

 Side 1  free  transition at x/c =  0.7049   62
 Side 2  free  transition at x/c =  0.9976   80

   1   rms: 0.1551E+00   max: -.7526E+00   T at   80  2   RLX: 0.664
       a =  1.000      CL =  0.3774
      Cm = -0.0346     CD =  0.00735   =>   CDf =  0.00418    CDp =  0.00317

 Side 1  free  transition at x/c =  0.6516   59
 Side 2 forced transition at x/c =  1.0000   80

   2   rms: 0.6081E-01   max: -.4591E+00   D at   80  2
       a =  1.000      CL =  0.3598
      Cm = -0.0271     CD =  0.00733   =>   CDf =  0.00447    CDp =  0.00285

 Side 1  free  transition at x/c =  0.6472   58
 Side 2 forced transition at x/c =  1.0000   80

   3   rms: 0.8034E-02   max: 0.7866E-01   D at   85  2
       a =  1.000      CL =  0.3614
      Cm = -0.0273     CD =  0.00736   =>   CDf =  0.00446    CDp =  0.00290

 Side 1  free  transition at x/c =  0.6457   58
 Side 2 forced transition at x/c =  1.0000   80

   4   rms: 0.4602E-03   max: 0.3577E-02   D at   70  2
       a =  1.000      CL =  0.3615
      Cm = -0.0274     CD =  0.00737   =>   CDf =  0.00446    CDp =  0.00291

 Side 1  free  transition at x/c =  0.6457   58
 Side 2 forced transition at x/c =  1.0000   80

   5   rms: 0.8034E-05   max: -.5396E-04   D at   86  2
       a =  1.000      CL =  0.3615
      Cm = -0.0274     CD =  0.00737   =>   CDf =  0.00446    CDp =  0.00291
 plradd ia,ip,cpol           11           0  7.95876682E-02

 Point added to stored polar  1
 Point written to save file  vr12_Re500k.base.pol                            
 Dump file unspecified or not available
 Calculating wake trajectory ...
 Calculating source influence matrix ...

 Solving BL system ...

 Side 1  free  transition at x/c =  0.6457   58
 Side 2 forced transition at x/c =  1.0000   80

   1   rms: 0.1117E+00   max: 0.1331E+01   C at   58  1   RLX: 0.963
       a =  1.500      CL =  0.4137
      Cm = -0.0272     CD =  0.00748   =>   CDf =  0.00447    CDp =  0.00301

 Side 1  free  transition at x/c =  0.4952   49
 Side 2 forced transition at x/c =  1.0000   79

   2   rms: 0.2053E-01   max: -.1555E+00   D at   60  1
       a =  1.500      CL =  0.4167
      Cm = -0.0277     CD =  0.00796   =>   CDf =  0.00519    CDp =  0.00277

 Side 1  free  transition at x/c =  0.4899   49
 Side 2 forced transition at x/c =  1.0000   79

   3   rms: 0.7830E-03   max: 0.6017E-02   D at   51  1
       a =  1.500      CL =  0.4169
      Cm = -0.0277     CD =  0.00800   =>   CDf =  0.00520    CDp =  0.00280

 Side 1  free  transition at x/c =  0.4896   49
 Side 2 forced transition at x/c =  1.0000   79

   4   rms: 0.4149E-05   max: 0.4171E-04   C at   49  1
       a =  1.500      CL =  0.4169
      Cm = -0.0277     CD =  0.00800   =>   CDf =  0.00520    CDp =  0.00280
 plradd ia,ip,cpol           12           0  6.88360557E-02

 Point added to stored polar  1
 Point written to save file  vr12_Re500k.base.pol                            
 Dump file unspecified or not available
 Calculating wake trajectory ...
 Calculating source influence matrix ...

 Solving BL system ...

 Side 1  free  transition at x/c =  0.4896   49
 Side 2 forced transition at x/c =  1.0000   79

   1   rms: 0.3331E+00   max: 0.6476E+01   C at   49  1   RLX: 0.232
       a =  2.000      CL =  0.4299
      Cm = -0.0280     CD =  0.00827   =>   CDf =  0.00520    CDp =  0.00307

 Side 1  free  transition at x/c =  0.4457   46
 Side 2 forced transition at x/c =  1.0000   79

   2   rms: 0.1483E+00   max: 0.2744E+01   C at   46  1   RLX: 0.547
       a =  2.000      CL =  0.4525
      Cm = -0.0281     CD =  0.00857   =>   CDf =  0.00542    CDp =  0.00314

 Side 1  free  transition at x/c =  0.3748   43
 Side 2 forced transition at x/c =  1.0000   78

   3   rms: 0.6096E-01   max: 0.9076E+00   C at   43  1
       a =  2.000      CL =  0.4714
      Cm = -0.0284     CD =  0.00898   =>   CDf =  0.00578    CDp =  0.00320

 Side 1  free  transition at x/c =  0.3410   40
 Side 2 forced transition at x/c =  1.0000   78

   4   rms: 0.8827E-02   max: 0.1291E+00   D at   42  1
       a =  2.000      CL =  0.4713
      Cm = -0.0283     CD =  0.00894   =>   CDf =  0.00597    CDp =  0.00297

 Side 1  free  transition at x/c =  0.3417   40
 Side 2 forced transition at x/c =  1.0000   78

   5   rms: 0.6489E-02   max: -.1349E+00   C at   40  1
       a =  2.000      CL =  0.4713
      Cm = -0.0283     CD =  0.00894   =>   CDf =  0.00597    CDp =  0.00297

 Side 1  free  transition at x/c =  0.3417   40
 Side 2 forced transition at x/c =  1.0000   78

   6   rms: 0.6210E-02   max: -.1289E+00   C at   40  1
       a =  2.000      CL =  0.4713
      Cm = -0.0283     CD =  0.00894   =>   CDf =  0.00597    CDp =  0.00297

 Side 1  free  transition at x/c =  0.3417   40
 Side 2 forced transition at x/c =  1.0000   78

   7   rms: 0.6210E-02   max: -.1289E+00   C at   40  1
       a =  2.000      CL =  0.4713
      Cm = -0.0283     CD =  0.00894   =>   CDf =  0.00597    CDp =  0.00297

 Side 1  free  transition at x/c =  0.3417   40
 Side 2 forced transition at x/c =  1.0000   78

   8   rms: 0.6208E-02   max: -.1289E+00   C at   40  1
       a =  2.000      CL =  0.4713
      Cm = -0.0283     CD =  0.00894   =>   CDf =  0.00597    CDp =  0.00297

 Side 1  free  transition at x/c =  0.3417   40
 Side 2 forced transition at x/c =  1.0000   78

   9   rms: 0.6209E-02   max: -.1289E+00   C at   40  1
       a =  2.000      CL =  0.4713
      Cm = -0.0283     CD =  0.00894   =>   CDf =  0.00597    CDp =  0.00297

 Side 1  free  transition at x/c =  0.3417   40
 Side 2 forced transition at x/c =  1.0000   78

  10   rms: 0.6209E-02   max: -.1289E+00   C at   40  1
       a =  2.000      CL =  0.4713
      Cm = -0.0283     CD =  0.00894   =>   CDf =  0.00597    CDp =  0.00297

 Side 1  free  transition at x/c =  0.3417   40
 Side 2 forced transition at x/c =  1.0000   78

  11   rms: 0.6209E-02   max: -.1289E+00   C at   40  1
       a =  2.000      CL =  0.4713
      Cm = -0.0283     CD =  0.00894   =>   CDf =  0.00597    CDp =  0.00297

 Side 1  free  transition at x/c =  0.3417   40
 Side 2 forced transition at x/c =  1.0000   78

  12   rms: 0.6209E-02   max: -.1289E+00   C at   40  1
       a =  2.000      CL =  0.4713
      Cm = -0.0283     CD =  0.00894   =>   CDf =  0.00597    CDp =  0.00297

 Side 1  free  transition at x/c =  0.3417   40
 Side 2 forced transition at x/c =  1.0000   78

  13   rms: 0.6209E-02   max: -.1289E+00   C at   40  1
       a =  2.000      CL =  0.4713
      Cm = -0.0283     CD =  0.00894   =>   CDf =  0.00597    CDp =  0.00297

 Side 1  free  transition at x/c =  0.3417   40
 Side 2 forced transition at x/c =  1.0000   78

  14   rms: 0.6209E-02   max: -.1289E+00   C at   40  1
       a =  2.000      CL =  0.4713
      Cm = -0.0283     CD =  0.00894   =>   CDf =  0.00597    CDp =  0.00297

 Side 1  free  transition at x/c =  0.3417   40
 Side 2 forced transition at x/c =  1.0000   78

  15   rms: 0.6208E-02   max: -.1289E+00   C at   40  1
       a =  2.000      CL =  0.4713
      Cm = -0.0283     CD =  0.00894   =>   CDf =  0.00597    CDp =  0.00297

 Side 1  free  transition at x/c =  0.3417   40
 Side 2 forced transition at x/c =  1.0000   78

  16   rms: 0.6209E-02   max: -.1289E+00   C at   40  1
       a =  2.000      CL =  0.4713
      Cm = -0.0283     CD =  0.00894   =>   CDf =  0.00597    CDp =  0.00297

 Side 1  free  transition at x/c =  0.3417   40
 Side 2 forced transition at x/c =  1.0000   78

  17   rms: 0.6209E-02   max: -.1289E+00   C at   40  1
       a =  2.000      CL =  0.4713
      Cm = -0.0283     CD =  0.00894   =>   CDf =  0.00597    CDp =  0.00297

 Side 1  free  transition at x/c =  0.3417   40
 Side 2 forced transition at x/c =  1.0000   78

  18   rms: 0.6208E-02   max: -.1289E+00   C at   40  1
       a =  2.000      CL =  0.4713
      Cm = -0.0283     CD =  0.00894   =>   CDf =  0.00597    CDp =  0.00297

 Side 1  free  transition at x/c =  0.3417   40
 Side 2 forced transition at x/c =  1.0000   78

  19   rms: 0.6209E-02   max: -.1289E+00   C at   40  1
       a =  2.000      CL =  0.4713
      Cm = -0.0283     CD =  0.00894   =>   CDf =  0.00597    CDp =  0.00297

 Side 1  free  transition at x/c =  0.3417   40
 Side 2 forced transition at x/c =  1.0000   78

  20   rms: 0.6209E-02   max: -.1289E+00   C at   40  1
       a =  2.000      CL =  0.4713
      Cm = -0.0283     CD =  0.00894   =>   CDf =  0.00597    CDp =  0.00297

 Side 1  free  transition at x/c =  0.3417   40
 Side 2 forced transition at x/c =  1.0000   78

  21   rms: 0.6210E-02   max: -.1289E+00   C at   40  1
       a =  2.000      CL =  0.4713
      Cm = -0.0283     CD =  0.00894   =>   CDf =  0.00597    CDp =  0.00297

 Side 1  free  transition at x/c =  0.3417   40
 Side 2 forced transition at x/c =  1.0000   78

  22   rms: 0.6209E-02   max: -.1289E+00   C at   40  1
       a =  2.000      CL =  0.4713
      Cm = -0.0283     CD =  0.00894   =>   CDf =  0.00597    CDp =  0.00297

 Side 1  free  transition at x/c =  0.3417   40
 Side 2 forced transition at x/c =  1.0000   78

  23   rms: 0.6209E-02   max: -.1289E+00   C at   40  1
       a =  2.000      CL =  0.4713
      Cm = -0.0283     CD =  0.00894   =>   CDf =  0.00597    CDp =  0.00297

 Side 1  free  transition at x/c =  0.3417   40
 Side 2 forced transition at x/c =  1.0000   78

  24   rms: 0.6209E-02   max: -.1289E+00   C at   40  1
       a =  2.000      CL =  0.4713
      Cm = -0.0283     CD =  0.00894   =>   CDf =  0.00597    CDp =  0.00297

 Side 1  free  transition at x/c =  0.3417   40
 Side 2 forced transition at x/c =  1.0000   78

  25   rms: 0.6210E-02   max: -.1289E+00   C at   40  1
       a =  2.000      CL =  0.4713
      Cm = -0.0283     CD =  0.00894   =>   CDf =  0.00597    CDp =  0.00297

 Side 1  free  transition at x/c =  0.3417   40
 Side 2 forced transition at x/c =  1.0000   78

  26   rms: 0.6208E-02   max: -.1289E+00   C at   40  1
       a =  2.000      CL =  0.4713
      Cm = -0.0283     CD =  0.00894   =>   CDf =  0.00597    CDp =  0.00297

 Side 1  free  transition at x/c =  0.3417   40
 Side 2 forced transition at x/c =  1.0000   78

  27   rms: 0.6210E-02   max: -.1289E+00   C at   40  1
       a =  2.000      CL =  0.4713
      Cm = -0.0283     CD =  0.00894   =>   CDf =  0.00597    CDp =  0.00297

 Side 1  free  transition at x/c =  0.3417   40
 Side 2 forced transition at x/c =  1.0000   78

  28   rms: 0.6209E-02   max: -.1289E+00   C at   40  1
       a =  2.000      CL =  0.4713
      Cm = -0.0283     CD =  0.00894   =>   CDf =  0.00597    CDp =  0.00297

 Side 1  free  transition at x/c =  0.3417   40
 Side 2 forced transition at x/c =  1.0000   78

  29   rms: 0.6208E-02   max: -.1289E+00   C at   40  1
       a =  2.000      CL =  0.4713
      Cm = -0.0283     CD =  0.00894   =>   CDf =  0.00597    CDp =  0.00297

 Side 1  free  transition at x/c =  0.3417   40
 Side 2 forced transition at x/c =  1.0000   78

  30   rms: 0.6209E-02   max: -.1289E+00   C at   40  1
       a =  2.000      CL =  0.4713
      Cm = -0.0283     CD =  0.00894   =>   CDf =  0.00597    CDp =  0.00297

 Side 1  free  transition at x/c =  0.3417   40
 Side 2 forced transition at x/c =  1.0000   78

  31   rms: 0.6209E-02   max: -.1289E+00   C at   40  1
       a =  2.000      CL =  0.4713
      Cm = -0.0283     CD =  0.00894   =>   CDf =  0.00597    CDp =  0.00297

 Side 1  free  transition at x/c =  0.3417   40
 Side 2 forced transition at x/c =  1.0000   78

  32   rms: 0.6209E-02   max: -.1289E+00   C at   40  1
       a =  2.000      CL =  0.4713
      Cm = -0.0283     CD =  0.00894   =>   CDf =  0.00597    CDp =  0.00297

 Side 1  free  transition at x/c =  0.3417   40
 Side 2 forced transition at x/c =  1.0000   78

  33   rms: 0.6209E-02   max: -.1289E+00   C at   40  1
       a =  2.000      CL =  0.4713
      Cm = -0.0283     CD =  0.00894   =>   CDf =  0.00597    CDp =  0.00297

 Side 1  free  transition at x/c =  0.3417   40
 Side 2 forced transition at x/c =  1.0000   78

  34   rms: 0.6209E-02   max: -.1289E+00   C at   40  1
       a =  2.000      CL =  0.4713
      Cm = -0.0283     CD =  0.00894   =>   CDf =  0.00597    CDp =  0.00297

 Side 1  free  transition at x/c =  0.3417   40
 Side 2 forced transition at x/c =  1.0000   78

  35   rms: 0.6209E-02   max: -.1289E+00   C at   40  1
       a =  2.000      CL =  0.4713
      Cm = -0.0283     CD =  0.00894   =>   CDf =  0.00597    CDp =  0.00297

 Side 1  free  transition at x/c =  0.3417   40
 Side 2 forced transition at x/c =  1.0000   78

  36   rms: 0.6209E-02   max: -.1289E+00   C at   40  1
       a =  2.000      CL =  0.4713
      Cm = -0.0283     CD =  0.00894   =>   CDf =  0.00597    CDp =  0.00297

 Side 1  free  transition at x/c =  0.3417   40
 Side 2 forced transition at x/c =  1.0000   78

  37   rms: 0.6209E-02   max: -.1289E+00   C at   40  1
       a =  2.000      CL =  0.4713
      Cm = -0.0283     CD =  0.00894   =>   CDf =  0.00597    CDp =  0.00297

 Side 1  free  transition at x/c =  0.3417   40
 Side 2 forced transition at x/c =  1.0000   78

  38   rms: 0.6208E-02   max: -.1289E+00   C at   40  1
       a =  2.000      CL =  0.4713
      Cm = -0.0283     CD =  0.00894   =>   CDf =  0.00597    CDp =  0.00297

 Side 1  free  transition at x/c =  0.3417   40
 Side 2 forced transition at x/c =  1.0000   78

  39   rms: 0.6209E-02   max: -.1289E+00   C at   40  1
       a =  2.000      CL =  0.4713
      Cm = -0.0283     CD =  0.00894   =>   CDf =  0.00597    CDp =  0.00297

 Side 1  free  transition at x/c =  0.3417   40
 Side 2 forced transition at x/c =  1.0000   78

  40   rms: 0.6209E-02   max: -.1289E+00   C at   40  1
       a =  2.000      CL =  0.4713
      Cm = -0.0283     CD =  0.00894   =>   CDf =  0.00597    CDp =  0.00297

 Side 1  free  transition at x/c =  0.3417   40
 Side 2 forced transition at x/c =  1.0000   78

  41   rms: 0.6210E-02   max: -.1289E+00   C at   40  1
       a =  2.000      CL =  0.4713
      Cm = -0.0283     CD =  0.00894   =>   CDf =  0.00597    CDp =  0.00297

 Side 1  free  transition at x/c =  0.3417   40
 Side 2 forced transition at x/c =  1.0000   78

  42   rms: 0.6209E-02   max: -.1289E+00   C at   40  1
       a =  2.000      CL =  0.4713
      Cm = -0.0283     CD =  0.00894   =>   CDf =  0.00597    CDp =  0.00297

 Side 1  free  transition at x/c =  0.3417   40
 Side 2 forced transition at x/c =  1.0000   78

  43   rms: 0.6209E-02   max: -.1289E+00   C at   40  1
       a =  2.000      CL =  0.4713
      Cm = -0.0283     CD =  0.00894   =>   CDf =  0.00597    CDp =  0.00297

 Side 1  free  transition at x/c =  0.3417   40
 Side 2 forced transition at x/c =  1.0000   78

  44   rms: 0.6209E-02   max: -.1289E+00   C at   40  1
       a =  2.000      CL =  0.4713
      Cm = -0.0283     CD =  0.00894   =>   CDf =  0.00597    CDp =  0.00297

 Side 1  free  transition at x/c =  0.3417   40
 Side 2 forced transition at x/c =  1.0000   78

  45   rms: 0.6209E-02   max: -.1289E+00   C at   40  1
       a =  2.000      CL =  0.4713
      Cm = -0.0283     CD =  0.00894   =>   CDf =  0.00597    CDp =  0.00297

 Side 1  free  transition at x/c =  0.3417   40
 Side 2 forced transition at x/c =  1.0000   78

  46   rms: 0.6209E-02   max: -.1289E+00   C at   40  1
       a =  2.000      CL =  0.4713
      Cm = -0.0283     CD =  0.00894   =>   CDf =  0.00597    CDp =  0.00297

 Side 1  free  transition at x/c =  0.3417   40
 Side 2 forced transition at x/c =  1.0000   78

  47   rms: 0.6209E-02   max: -.1289E+00   C at   40  1
       a =  2.000      CL =  0.4713
      Cm = -0.0283     CD =  0.00894   =>   CDf =  0.00597    CDp =  0.00297

 Side 1  free  transition at x/c =  0.3417   40
 Side 2 forced transition at x/c =  1.0000   78

  48   rms: 0.6209E-02   max: -.1289E+00   C at   40  1
       a =  2.000      CL =  0.4713
      Cm = -0.0283     CD =  0.00894   =>   CDf =  0.00597    CDp =  0.00297

 Side 1  free  transition at x/c =  0.3417   40
 Side 2 forced transition at x/c =  1.0000   78

  49   rms: 0.6209E-02   max: -.1289E+00   C at   40  1
       a =  2.000      CL =  0.4713
      Cm = -0.0283     CD =  0.00894   =>   CDf =  0.00597    CDp =  0.00297

 Side 1  free  transition at x/c =  0.3417   40
 Side 2 forced transition at x/c =  1.0000   78

  50   rms: 0.6209E-02   max: -.1289E+00   C at   40  1
       a =  2.000      CL =  0.4713
      Cm = -0.0283     CD =  0.00894   =>   CDf =  0.00597    CDp =  0.00297

 Side 1  free  transition at x/c =  0.3417   40
 Side 2 forced transition at x/c =  1.0000   78

  51   rms: 0.6209E-02   max: -.1289E+00   C at   40  1
       a =  2.000      CL =  0.4713
      Cm = -0.0283     CD =  0.00894   =>   CDf =  0.00597    CDp =  0.00297

 Side 1  free  transition at x/c =  0.3417   40
 Side 2 forced transition at x/c =  1.0000   78

  52   rms: 0.6209E-02   max: -.1289E+00   C at   40  1
       a =  2.000      CL =  0.4713
      Cm = -0.0283     CD =  0.00894   =>   CDf =  0.00597    CDp =  0.00297

 Side 1  free  transition at x/c =  0.3417   40
 Side 2 forced transition at x/c =  1.0000   78

  53   rms: 0.6210E-02   max: -.1289E+00   C at   40  1
       a =  2.000      CL =  0.4713
      Cm = -0.0283     CD =  0.00894   =>   CDf =  0.00597    CDp =  0.00297

 Side 1  free  transition at x/c =  0.3417   40
 Side 2 forced transition at x/c =  1.0000   78

  54   rms: 0.6208E-02   max: -.1289E+00   C at   40  1
       a =  2.000      CL =  0.4713
      Cm = -0.0283     CD =  0.00894   =>   CDf =  0.00597    CDp =  0.00297

 Side 1  free  transition at x/c =  0.3417   40
 Side 2 forced transition at x/c =  1.0000   78

  55   rms: 0.6209E-02   max: -.1289E+00   C at   40  1
       a =  2.000      CL =  0.4713
      Cm = -0.0283     CD =  0.00894   =>   CDf =  0.00597    CDp =  0.00297

 Side 1  free  transition at x/c =  0.3417   40
 Side 2 forced transition at x/c =  1.0000   78

  56   rms: 0.6209E-02   max: -.1289E+00   C at   40  1
       a =  2.000      CL =  0.4713
      Cm = -0.0283     CD =  0.00894   =>   CDf =  0.00597    CDp =  0.00297

 Side 1  free  transition at x/c =  0.3417   40
 Side 2 forced transition at x/c =  1.0000   78

  57   rms: 0.6209E-02   max: -.1289E+00   C at   40  1
       a =  2.000      CL =  0.4713
      Cm = -0.0283     CD =  0.00894   =>   CDf =  0.00597    CDp =  0.00297

 Side 1  free  transition at x/c =  0.3417   40
 Side 2 forced transition at x/c =  1.0000   78

  58   rms: 0.6208E-02   max: -.1289E+00   C at   40  1
       a =  2.000      CL =  0.4713
      Cm = -0.0283     CD =  0.00894   =>   CDf =  0.00597    CDp =  0.00297

 Side 1  free  transition at x/c =  0.3417   40
 Side 2 forced transition at x/c =  1.0000   78

  59   rms: 0.6209E-02   max: -.1289E+00   C at   40  1
       a =  2.000      CL =  0.4713
      Cm = -0.0283     CD =  0.00894   =>   CDf =  0.00597    CDp =  0.00297

 Side 1  free  transition at x/c =  0.3417   40
 Side 2 forced transition at x/c =  1.0000   78

  60   rms: 0.6209E-02   max: -.1289E+00   C at   40  1
       a =  2.000      CL =  0.4713
      Cm = -0.0283     CD =  0.00894   =>   CDf =  0.00597    CDp =  0.00297

 Side 1  free  transition at x/c =  0.3417   40
 Side 2 forced transition at x/c =  1.0000   78

  61   rms: 0.6210E-02   max: -.1289E+00   C at   40  1
       a =  2.000      CL =  0.4713
      Cm = -0.0283     CD =  0.00894   =>   CDf =  0.00597    CDp =  0.00297

 Side 1  free  transition at x/c =  0.3417   40
 Side 2 forced transition at x/c =  1.0000   78

  62   rms: 0.6208E-02   max: -.1289E+00   C at   40  1
       a =  2.000      CL =  0.4713
      Cm = -0.0283     CD =  0.00894   =>   CDf =  0.00597    CDp =  0.00297

 Side 1  free  transition at x/c =  0.3417   40
 Side 2 forced transition at x/c =  1.0000   78

  63   rms: 0.6209E-02   max: -.1289E+00   C at   40  1
       a =  2.000      CL =  0.4713
      Cm = -0.0283     CD =  0.00894   =>   CDf =  0.00597    CDp =  0.00297

 Side 1  free  transition at x/c =  0.3417   40
 Side 2 forced transition at x/c =  1.0000   78

  64   rms: 0.6208E-02   max: -.1289E+00   C at   40  1
       a =  2.000      CL =  0.4713
      Cm = -0.0283     CD =  0.00894   =>   CDf =  0.00597    CDp =  0.00297

 Side 1  free  transition at x/c =  0.3417   40
 Side 2 forced transition at x/c =  1.0000   78

  65   rms: 0.6209E-02   max: -.1289E+00   C at   40  1
       a =  2.000      CL =  0.4713
      Cm = -0.0283     CD =  0.00894   =>   CDf =  0.00597    CDp =  0.00297

 Side 1  free  transition at x/c =  0.3417   40
 Side 2 forced transition at x/c =  1.0000   78

  66   rms: 0.6209E-02   max: -.1289E+00   C at   40  1
       a =  2.000      CL =  0.4713
      Cm = -0.0283     CD =  0.00894   =>   CDf =  0.00597    CDp =  0.00297

 Side 1  free  transition at x/c =  0.3417   40
 Side 2 forced transition at x/c =  1.0000   78

  67   rms: 0.6209E-02   max: -.1289E+00   C at   40  1
       a =  2.000      CL =  0.4713
      Cm = -0.0283     CD =  0.00894   =>   CDf =  0.00597    CDp =  0.00297

 Side 1  free  transition at x/c =  0.3417   40
 Side 2 forced transition at x/c =  1.0000   78

  68   rms: 0.6209E-02   max: -.1289E+00   C at   40  1
       a =  2.000      CL =  0.4713
      Cm = -0.0283     CD =  0.00894   =>   CDf =  0.00597    CDp =  0.00297

 Side 1  free  transition at x/c =  0.3417   40
 Side 2 forced transition at x/c =  1.0000   78

  69   rms: 0.6209E-02   max: -.1289E+00   C at   40  1
       a =  2.000      CL =  0.4713
      Cm = -0.0283     CD =  0.00894   =>   CDf =  0.00597    CDp =  0.00297

 Side 1  free  transition at x/c =  0.3417   40
 Side 2 forced transition at x/c =  1.0000   78

  70   rms: 0.6209E-02   max: -.1289E+00   C at   40  1
       a =  2.000      CL =  0.4713
      Cm = -0.0283     CD =  0.00894   =>   CDf =  0.00597    CDp =  0.00297

 Side 1  free  transition at x/c =  0.3417   40
 Side 2 forced transition at x/c =  1.0000   78

  71   rms: 0.6209E-02   max: -.1289E+00   C at   40  1
       a =  2.000      CL =  0.4713
      Cm = -0.0283     CD =  0.00894   =>   CDf =  0.00597    CDp =  0.00297

 Side 1  free  transition at x/c =  0.3417   40
 Side 2 forced transition at x/c =  1.0000   78

  72   rms: 0.6208E-02   max: -.1289E+00   C at   40  1
       a =  2.000      CL =  0.4713
      Cm = -0.0283     CD =  0.00894   =>   CDf =  0.00597    CDp =  0.00297

 Side 1  free  transition at x/c =  0.3417   40
 Side 2 forced transition at x/c =  1.0000   78

  73   rms: 0.6209E-02   max: -.1289E+00   C at   40  1
       a =  2.000      CL =  0.4713
      Cm = -0.0283     CD =  0.00894   =>   CDf =  0.00597    CDp =  0.00297

 Side 1  free  transition at x/c =  0.3417   40
 Side 2 forced transition at x/c =  1.0000   78

  74   rms: 0.6209E-02   max: -.1289E+00   C at   40  1
       a =  2.000      CL =  0.4713
      Cm = -0.0283     CD =  0.00894   =>   CDf =  0.00597    CDp =  0.00297

 Side 1  free  transition at x/c =  0.3417   40
 Side 2 forced transition at x/c =  1.0000   78

  75   rms: 0.6209E-02   max: -.1289E+00   C at   40  1
       a =  2.000      CL =  0.4713
      Cm = -0.0283     CD =  0.00894   =>   CDf =  0.00597    CDp =  0.00297

 Side 1  free  transition at x/c =  0.3417   40
 Side 2 forced transition at x/c =  1.0000   78

  76   rms: 0.6209E-02   max: -.1289E+00   C at   40  1
       a =  2.000      CL =  0.4713
      Cm = -0.0283     CD =  0.00894   =>   CDf =  0.00597    CDp =  0.00297

 Side 1  free  transition at x/c =  0.3417   40
 Side 2 forced transition at x/c =  1.0000   78

  77   rms: 0.6209E-02   max: -.1289E+00   C at   40  1
       a =  2.000      CL =  0.4713
      Cm = -0.0283     CD =  0.00894   =>   CDf =  0.00597    CDp =  0.00297

 Side 1  free  transition at x/c =  0.3417   40
 Side 2 forced transition at x/c =  1.0000   78

  78   rms: 0.6209E-02   max: -.1289E+00   C at   40  1
       a =  2.000      CL =  0.4713
      Cm = -0.0283     CD =  0.00894   =>   CDf =  0.00597    CDp =  0.00297

 Side 1  free  transition at x/c =  0.3417   40
 Side 2 forced transition at x/c =  1.0000   78

  79   rms: 0.6209E-02   max: -.1289E+00   C at   40  1
       a =  2.000      CL =  0.4713
      Cm = -0.0283     CD =  0.00894   =>   CDf =  0.00597    CDp =  0.00297

 Side 1  free  transition at x/c =  0.3417   40
 Side 2 forced transition at x/c =  1.0000   78

  80   rms: 0.6209E-02   max: -.1289E+00   C at   40  1
       a =  2.000      CL =  0.4713
      Cm = -0.0283     CD =  0.00894   =>   CDf =  0.00597    CDp =  0.00297

 Side 1  free  transition at x/c =  0.3417   40
 Side 2 forced transition at x/c =  1.0000   78

  81   rms: 0.6209E-02   max: -.1289E+00   C at   40  1
       a =  2.000      CL =  0.4713
      Cm = -0.0283     CD =  0.00894   =>   CDf =  0.00597    CDp =  0.00297

 Side 1  free  transition at x/c =  0.3417   40
 Side 2 forced transition at x/c =  1.0000   78

  82   rms: 0.6209E-02   max: -.1289E+00   C at   40  1
       a =  2.000      CL =  0.4713
      Cm = -0.0283     CD =  0.00894   =>   CDf =  0.00597    CDp =  0.00297

 Side 1  free  transition at x/c =  0.3417   40
 Side 2 forced transition at x/c =  1.0000   78

  83   rms: 0.6209E-02   max: -.1289E+00   C at   40  1
       a =  2.000      CL =  0.4713
      Cm = -0.0283     CD =  0.00894   =>   CDf =  0.00597    CDp =  0.00297

 Side 1  free  transition at x/c =  0.3417   40
 Side 2 forced transition at x/c =  1.0000   78

  84   rms: 0.6209E-02   max: -.1289E+00   C at   40  1
       a =  2.000      CL =  0.4713
      Cm = -0.0283     CD =  0.00894   =>   CDf =  0.00597    CDp =  0.00297

 Side 1  free  transition at x/c =  0.3417   40
 Side 2 forced transition at x/c =  1.0000   78

  85   rms: 0.6210E-02   max: -.1289E+00   C at   40  1
       a =  2.000      CL =  0.4713
      Cm = -0.0283     CD =  0.00894   =>   CDf =  0.00597    CDp =  0.00297

 Side 1  free  transition at x/c =  0.3417   40
 Side 2 forced transition at x/c =  1.0000   78

  86   rms: 0.6209E-02   max: -.1289E+00   C at   40  1
       a =  2.000      CL =  0.4713
      Cm = -0.0283     CD =  0.00894   =>   CDf =  0.00597    CDp =  0.00297

 Side 1  free  transition at x/c =  0.3417   40
 Side 2 forced transition at x/c =  1.0000   78

  87   rms: 0.6209E-02   max: -.1289E+00   C at   40  1
       a =  2.000      CL =  0.4713
      Cm = -0.0283     CD =  0.00894   =>   CDf =  0.00597    CDp =  0.00297

 Side 1  free  transition at x/c =  0.3417   40
 Side 2 forced transition at x/c =  1.0000   78

[...]
 Dump file unspecified or not available
 Calculating wake trajectory ...
 Calculating source influence matrix ...

 Solving BL system ...

 Side 1  free  transition at x/c =  0.0820   34
 Side 2 forced transition at x/c =  1.0000   67

   1   rms: 0.3617E-01   max: -.2253E+00   D at   34  1
       a = 12.500      CL =  1.3980
      Cm =  0.0072     CD =  0.02118   =>   CDf =  0.00613    CDp =  0.01505

 Side 1  free  transition at x/c =  0.0780   33
 Side 2 forced transition at x/c =  1.0000   67

   2   rms: 0.7892E-02   max: -.8200E-01   C at   33  1
       a = 12.500      CL =  1.3990
      Cm =  0.0071     CD =  0.02108   =>   CDf =  0.00609    CDp =  0.01499

 Side 1  free  transition at x/c =  0.0778   33
 Side 2 forced transition at x/c =  1.0000   67

   3   rms: 0.2518E-03   max: 0.2777E-02   C at   33  1
       a = 12.500      CL =  1.3991
      Cm =  0.0071     CD =  0.02110   =>   CDf =  0.00609    CDp =  0.01501

 Side 1  free  transition at x/c =  0.0777   33
 Side 2 forced transition at x/c =  1.0000   67

   4   rms: 0.3251E-05   max: -.2044E-04   C at   67  2
       a = 12.500      CL =  1.3991
      Cm =  0.0071     CD =  0.02110   =>   CDf =  0.00609    CDp =  0.01501
 plradd ia,ip,cpol           39           0  1.36750023E-05

 Point added to stored polar  1
 Point written to save file  vr12_Re500k.base.pol                            
 Dump file unspecified or not available
 Calculating wake trajectory ...
 Calculating source influence matrix ...

 Solving BL system ...

 Side 1  free  transition at x/c =  0.0777   33
 Side 2 forced transition at x/c =  1.0000   67

   1   rms: 0.3384E-01   max: 0.1165E+00   T at   33  1
       a = 12.750      CL =  1.4147
      Cm =  0.0086     CD =  0.02158   =>   CDf =  0.00609    CDp =  0.01550

 Side 1  free  transition at x/c =  0.0722   33
 Side 2 forced transition at x/c =  1.0000   67

   2   rms: 0.4423E-02   max: 0.3233E-01   D at   34  1
       a = 12.750      CL =  1.4126
      Cm =  0.0088     CD =  0.02166   =>   CDf =  0.00606    CDp =  0.01560

 Side 1  free  transition at x/c =  0.0730   33
 Side 2 forced transition at x/c =  1.0000   67

   3   rms: 0.9681E-04   max: -.1171E-02   D at   34  1
       a = 12.750      CL =  1.4126
      Cm =  0.0088     CD =  0.02167   =>   CDf =  0.00605    CDp =  0.01562
 plradd ia,ip,cpol           40           0  1.36750023E-05

 Point added to stored polar  1
 Point written to save file  vr12_Re500k.base.pol                            
 Dump file unspecified or not available
 Calculating wake trajectory ...
 Calculating source influence matrix ...

 Solving BL system ...

 Side 1  free  transition at x/c =  0.0730   33
 Side 2 forced transition at x/c =  1.0000   67

   1   rms: 0.3635E-01   max: -.2087E+00   D at   33  1
       a = 13.000      CL =  1.4254
      Cm =  0.0106     CD =  0.02238   =>   CDf =  0.00571    CDp =  0.01667

 Side 1  free  transition at x/c =  0.0681   33
 Side 2 forced transition at x/c =  1.0000   66

   2   rms: 0.4967E-02   max: -.4585E-01   C at   33  1
       a = 13.000      CL =  1.4230
      Cm =  0.0108     CD =  0.02249   =>   CDf =  0.00605    CDp =  0.01644

 Side 1  free  transition at x/c =  0.0682   33
 Side 2 forced transition at x/c =  1.0000   66

   3   rms: 0.8970E-03   max: -.1086E-01   D at    4  1
       a = 13.000      CL =  1.4231
      Cm =  0.0108     CD =  0.02249   =>   CDf =  0.00604    CDp =  0.01644

 Side 1  free  transition at x/c =  0.0682   33
 Side 2 forced transition at x/c =  1.0000   66

   4   rms: 0.1042E-05   max: 0.6844E-05   D at    8  1
       a = 13.000      CL =  1.4231
      Cm =  0.0108     CD =  0.02249   =>   CDf =  0.00604    CDp =  0.01644
 plradd ia,ip,cpol           41           0  1.36750023E-05

 Point added to stored polar  1
 Point written to save file  vr12_Re500k.base.pol                            
 Dump file unspecified or not available
 Calculating wake trajectory ...
 Calculating source influence matrix ...

 Solving BL system ...

 Side 1  free  transition at x/c =  0.0682   33
 Side 2 forced transition at x/c =  1.0000   66

   1   rms: 0.3433E-01   max: 0.1203E+00   T at   33  1
       a = 13.250      CL =  1.4385
      Cm =  0.0122     CD =  0.02311   =>   CDf =  0.00604    CDp =  0.01706

 Side 1  free  transition at x/c =  0.0637   33
 Side 2 forced transition at x/c =  1.0000   66

   2   rms: 0.3737E-02   max: -.3282E-01   C at   33  1
       a = 13.250      CL =  1.4359
      Cm =  0.0124     CD =  0.02322   =>   CDf =  0.00600    CDp =  0.01723

 Side 1  free  transition at x/c =  0.0641   33
 Side 2 forced transition at x/c =  1.0000   66

   3   rms: 0.6809E-04   max: 0.6785E-03   D at   88  1
       a = 13.250      CL =  1.4359
      Cm =  0.0124     CD =  0.02322   =>   CDf =  0.00599    CDp =  0.01724
 plradd ia,ip,cpol           42           0  1.36750023E-05

 Point added to stored polar  1
 Point written to save file  vr12_Re500k.base.pol                            
 Dump file unspecified or not available
 Calculating wake trajectory ...
 Calculating source influence matrix ...

 Solving BL system ...

 Side 1  free  transition at x/c =  0.0641   33
 Side 2 forced transition at x/c =  1.0000   66

   1   rms: 0.3664E-01   max: -.1894E+00   D at   33  1
       a = 13.500      CL =  1.4479
      Cm =  0.0139     CD =  0.02413   =>   CDf =  0.00599    CDp =  0.01814

 Side 1  free  transition at x/c =  0.0595   33
 Side 2 forced transition at x/c =  1.0000   66

   2   rms: 0.4511E-02   max: 0.2252E-01   D at   88  1
       a = 13.500      CL =  1.4441
      Cm =  0.0142     CD =  0.02432   =>   CDf =  0.00600    CDp =  0.01832

 Side 1  free  transition at x/c =  0.0596   33
 Side 2 forced transition at x/c =  1.0000   66

   3   rms: 0.9297E-04   max: 0.1765E-02   D at   87  1
       a = 13.500      CL =  1.4441
      Cm =  0.0142     CD =  0.02431   =>   CDf =  0.00600    CDp =  0.01831
 plradd ia,ip,cpol           43           0  1.36750023E-05

 Point added to stored polar  1
 Point written to save file  vr12_Re500k.base.pol                            
 Dump file unspecified or not available
 Calculating wake trajectory ...
 Calculating source influence matrix ...

 Solving BL system ...

 Side 1  free  transition at x/c =  0.0596   33
 Side 2 forced transition at x/c =  1.0000   66

   1   rms: 0.4040E-01   max: -.1544E+00   D at   33  1
       a = 13.750      CL =  1.4497
      Cm =  0.0162     CD =  0.02575   =>   CDf =  0.00600    CDp =  0.01975

 Side 1  free  transition at x/c =  0.0561   32
 Side 2 forced transition at x/c =  1.0000   66

   2   rms: 0.1988E-01   max: -.2211E+00   D at   32  1
       a = 13.750      CL =  1.4551
      Cm =  0.0158     CD =  0.02518   =>   CDf =  0.00590    CDp =  0.01928

 Side 1  free  transition at x/c =  0.0566   32
 Side 2 forced transition at x/c =  1.0000   66

   3   rms: 0.1819E-02   max: 0.2661E-01   C at   32  1
       a = 13.750      CL =  1.4550
      Cm =  0.0157     CD =  0.02527   =>   CDf =  0.00591    CDp =  0.01936

 Side 1  free  transition at x/c =  0.0564   32
 Side 2 forced transition at x/c =  1.0000   66

   4   rms: 0.7311E-04   max: 0.3008E-03   D at   86  1
       a = 13.750      CL =  1.4549
      Cm =  0.0157     CD =  0.02527   =>   CDf =  0.00591    CDp =  0.01936
 plradd ia,ip,cpol           44           0  1.36750023E-05

 Point added to stored polar  1
 Point written to save file  vr12_Re500k.base.pol                            
 Dump file unspecified or not available
 Calculating wake trajectory ...
 Calculating source influence matrix ...

 Solving BL system ...

 Side 1  free  transition at x/c =  0.0564   32
 Side 2 forced transition at x/c =  1.0000   66

   1   rms: 0.3548E-01   max: -.1328E+00   D at   32  1
       a = 14.000      CL =  1.4663
      Cm =  0.0171     CD =  0.02632   =>   CDf =  0.00591    CDp =  0.02041

 Side 1  free  transition at x/c =  0.0526   32
 Side 2 forced transition at x/c =  1.0000   66

   2   rms: 0.4360E-02   max: 0.2182E-01   D at   85  1
       a = 14.000      CL =  1.4631
      Cm =  0.0173     CD =  0.02646   =>   CDf =  0.00588    CDp =  0.02058

 Side 1  free  transition at x/c =  0.0530   32
 Side 2 forced transition at x/c =  1.0000   66

   3   rms: 0.8467E-04   max: 0.1051E-02   D at   85  1
       a = 14.000      CL =  1.4631
      Cm =  0.0173     CD =  0.02645   =>   CDf =  0.00587    CDp =  0.02059
 plradd ia,ip,cpol           45           0  1.36750023E-05

 Point added to stored polar  1
 Point written to save file  vr12_Re500k.base.pol                            
 Dump file unspecified or not available
 Calculating wake trajectory ...
 Calculating source influence matrix ...

 Solving BL system ...

 Side 1  free  transition at x/c =  0.0530   32
 Side 2 forced transition at x/c =  1.0000   66

   1   rms: 0.3902E-01   max: -.2059E+00   D at   32  1
       a = 14.250      CL =  1.4704
      Cm =  0.0187     CD =  0.02791   =>   CDf =  0.00587    CDp =  0.02204

 Side 1  free  transition at x/c =  0.0497   32
 Side 2 forced transition at x/c =  1.0000   66

   2   rms: 0.7890E-02   max: 0.4291E-01   D at   84  1
       a = 14.250      CL =  1.4648
      Cm =  0.0191     CD =  0.02821   =>   CDf =  0.00583    CDp =  0.02237

 Side 1  free  transition at x/c =  0.0494   32
 Side 2 forced transition at x/c =  1.0000   66

   3   rms: 0.2749E-03   max: 0.2734E-02   D at   75  2
       a = 14.250      CL =  1.4647
      Cm =  0.0192     CD =  0.02819   =>   CDf =  0.00584    CDp =  0.02235

 Side 1  free  transition at x/c =  0.0494   32
 Side 2 forced transition at x/c =  1.0000   66

   4   rms: 0.6560E-05   max: 0.5731E-04   D at   75  2
       a = 14.250      CL =  1.4646
      Cm =  0.0192     CD =  0.02819   =>   CDf =  0.00584    CDp =  0.02235
 plradd ia,ip,cpol           46           0  1.36750023E-05

 Point added to stored polar  1
 Point written to save file  vr12_Re500k.base.pol                            
 Dump file unspecified or not available
 Calculating wake trajectory ...
 Calculating source influence matrix ...

 Solving BL system ...

 Side 1  free  transition at x/c =  0.0494   32
 Side 2 forced transition at x/c =  1.0000   66

   1   rms: 0.4557E-01   max: 0.1476E+00   D at   79  1
       a = 14.500      CL =  1.4628
      Cm =  0.0210     CD =  0.03046   =>   CDf =  0.00585    CDp =  0.02462

 Side 1  free  transition at x/c =  0.0466   31
 Side 2 forced transition at x/c =  1.0000   66

   2   rms: 0.3245E-01   max: -.3231E+00   D at   31  1
       a = 14.500      CL =  1.4748
      Cm =  0.0203     CD =  0.02913   =>   CDf =  0.00529    CDp =  0.02384

 Side 1  free  transition at x/c =  0.0477   32
 Side 2 forced transition at x/c =  1.0000   65

   3   rms: 0.5390E-02   max: 0.7240E-01   T at    2  1
       a = 14.500      CL =  1.4762
      Cm =  0.0202     CD =  0.02923   =>   CDf =  0.00571    CDp =  0.02353

 Side 1  free  transition at x/c =  0.0472   32
 Side 2 forced transition at x/c =  1.0000   65

   4   rms: 0.3197E-03   max: -.3580E-02   D at    4  1
       a = 14.500      CL =  1.4761
      Cm =  0.0202     CD =  0.02924   =>   CDf =  0.00571    CDp =  0.02353

 Side 1  free  transition at x/c =  0.0472   32
 Side 2 forced transition at x/c =  1.0000   65

   5   rms: 0.2038E-05   max: 0.1090E-04   D at    4  1
       a = 14.500      CL =  1.4761
      Cm =  0.0202     CD =  0.02924   =>   CDf =  0.00571    CDp =  0.02353
 plradd ia,ip,cpol           47           0  1.36750023E-05

 Point added to stored polar  1
 Point written to save file  vr12_Re500k.base.pol                            
 Dump file unspecified or not available
 Calculating wake trajectory ...
 Calculating source influence matrix ...

 Solving BL system ...

 Side 1  free  transition at x/c =  0.0472   32
 Side 2 forced transition at x/c =  1.0000   65

   1   rms: 0.3514E-01   max: 0.1249E+00   T at   32  1
       a = 14.750      CL =  1.4865
      Cm =  0.0211     CD =  0.03054   =>   CDf =  0.00571    CDp =  0.02483

 Side 1  free  transition at x/c =  0.0443   32
 Side 2 forced transition at x/c =  1.0000   65

   2   rms: 0.5133E-02   max: 0.2766E-01   D at   83  1
       a = 14.750      CL =  1.4826
      Cm =  0.0213     CD =  0.03073   =>   CDf =  0.00564    CDp =  0.02509

 Side 1  free  transition at x/c =  0.0446   32
 Side 2 forced transition at x/c =  1.0000   65

   3   rms: 0.1023E-03   max: 0.2206E-02   D at   82  1
       a = 14.750      CL =  1.4826
      Cm =  0.0213     CD =  0.03072   =>   CDf =  0.00563    CDp =  0.02509

 Side 1  free  transition at x/c =  0.0446   32
 Side 2 forced transition at x/c =  1.0000   65

   4   rms: 0.8143E-06   max: 0.1056E-04   D at   82  1
       a = 14.750      CL =  1.4826
      Cm =  0.0213     CD =  0.03072   =>   CDf =  0.00563    CDp =  0.02509
 plradd ia,ip,cpol           48           0  1.36750023E-05

 Point added to stored polar  1
 Point written to save file  vr12_Re500k.base.pol                            
 Dump file unspecified or not available
 Calculating wake trajectory ...
 Calculating source influence matrix ...

 Solving BL system ...

 Side 1  free  transition at x/c =  0.0446   32
 Side 2 forced transition at x/c =  1.0000   65

   1   rms: 0.3758E-01   max: -.1471E+00   D at   32  1
       a = 15.000      CL =  1.4883
      Cm =  0.0223     CD =  0.03253   =>   CDf =  0.00563    CDp =  0.02690

 Side 1  free  transition at x/c =  0.0422   32
 Side 2 forced transition at x/c =  1.0000   65

   2   rms: 0.5977E-02   max: 0.3728E-01   D at   81  1
       a = 15.000      CL =  1.4839
      Cm =  0.0225     CD =  0.03272   =>   CDf =  0.00558    CDp =  0.02714

 Side 1  free  transition at x/c =  0.0423   32
 Side 2 forced transition at x/c =  1.0000   65

   3   rms: 0.1258E-03   max: 0.1261E-02   D at   75  2
       a = 15.000      CL =  1.4838
      Cm =  0.0225     CD =  0.03270   =>   CDf =  0.00557    CDp =  0.02713

 Side 1  free  transition at x/c =  0.0423   32
 Side 2 forced transition at x/c =  1.0000   65

   4   rms: 0.2305E-05   max: -.7849E-05   T at   79  2
       a = 15.000      CL =  1.4838
      Cm =  0.0225     CD =  0.03270   =>   CDf =  0.00557    CDp =  0.02713
 plradd ia,ip,cpol           49           0  1.36750023E-05

 Point added to stored polar  1
 Point written to save file  vr12_Re500k.base.pol                            
 Dump file unspecified or not available
 Calculating wake trajectory ...
 Calculating source influence matrix ...

 Solving BL system ...

 Side 1  free  transition at x/c =  0.0423   32
 Side 2 forced transition at x/c =  1.0000   65

   1   rms: 0.4251E-01   max: 0.1403E+00   D at   77  1
       a = 15.250      CL =  1.4834
      Cm =  0.0235     CD =  0.03524   =>   CDf =  0.00558    CDp =  0.02966

 Side 1  free  transition at x/c =  0.0403   31
 Side 2 forced transition at x/c =  1.0000   65

   2   rms: 0.5941E-02   max: -.5592E-01   D at   32  1
       a = 15.250      CL =  1.4824
      Cm =  0.0236     CD =  0.03500   =>   CDf =  0.00548    CDp =  0.02952

 Side 1  free  transition at x/c =  0.0403   31
 Side 2 forced transition at x/c =  1.0000   65

   3   rms: 0.3795E-03   max: -.1800E-02   D at   80  1
       a = 15.250      CL =  1.4826
      Cm =  0.0235     CD =  0.03499   =>   CDf =  0.00548    CDp =  0.02951

 Side 1  free  transition at x/c =  0.0403   31
 Side 2 forced transition at x/c =  1.0000   65

   4   rms: 0.1881E-04   max: -.9424E-04   D at   76  2
       a = 15.250      CL =  1.4826
      Cm =  0.0235     CD =  0.03500   =>   CDf =  0.00548    CDp =  0.02951
 plradd ia,ip,cpol           50           0  1.36750023E-05

 Point added to stored polar  1
 Point written to save file  vr12_Re500k.base.pol                            
 Dump file unspecified or not available
 Calculating wake trajectory ...
 Calculating source influence matrix ...

 Solving BL system ...

 Side 1  free  transition at x/c =  0.0403   31
 Side 2 forced transition at x/c =  1.0000   65

   1   rms: 0.3332E-01   max: -.1895E+00   C at   31  1
       a = 15.500      CL =  1.4944
      Cm =  0.0239     CD =  0.03640   =>   CDf =  0.00548    CDp =  0.03091

 Side 1  free  transition at x/c =  0.0388   31
 Side 2 forced transition at x/c =  1.0000   65

   2   rms: 0.5806E-02   max: 0.2981E-01   D at   78  1
       a = 15.500      CL =  1.4903
      Cm =  0.0241     CD =  0.03663   =>   CDf =  0.00535    CDp =  0.03127

 Side 1  free  transition at x/c =  0.0388   31
 Side 2 forced transition at x/c =  1.0000   65

   3   rms: 0.3428E-03   max: 0.2537E-02   D at   76  2
       a = 15.500      CL =  1.4900
      Cm =  0.0241     CD =  0.03661   =>   CDf =  0.00535    CDp =  0.03126

 Side 1  free  transition at x/c =  0.0388   31
 Side 2 forced transition at x/c =  1.0000   65

   4   rms: 0.1393E-04   max: 0.8159E-04   D at   76  2
       a = 15.500      CL =  1.4900
      Cm =  0.0241     CD =  0.03660   =>   CDf =  0.00535    CDp =  0.03126
 plradd ia,ip,cpol           51           0  1.36750023E-05

 Point added to stored polar  1
 Point written to save file  vr12_Re500k.base.pol                            
 Dump file unspecified or not available
 Calculating wake trajectory ...
 Calculating source influence matrix ...

 Solving BL system ...

 Side 1  free  transition at x/c =  0.0388   31
 Side 2 forced transition at x/c =  1.0000   65

   1   rms: 0.3385E-01   max: 0.9612E-01   D at   75  1
       a = 15.750      CL =  1.4972
      Cm =  0.0245     CD =  0.03855   =>   CDf =  0.00535    CDp =  0.03319

 Side 1  free  transition at x/c =  0.0370   31
 Side 2 forced transition at x/c =  1.0000   65

   2   rms: 0.5166E-02   max: 0.3550E-01   D at   77  1
       a = 15.750      CL =  1.4934
      Cm =  0.0246     CD =  0.03868   =>   CDf =  0.00524    CDp =  0.03344

 Side 1  free  transition at x/c =  0.0372   31
 Side 2 forced transition at x/c =  1.0000   65

   3   rms: 0.1650E-03   max: 0.1497E-02   D at   76  1
       a = 15.750      CL =  1.4933
      Cm =  0.0246     CD =  0.03866   =>   CDf =  0.00524    CDp =  0.03342

 Side 1  free  transition at x/c =  0.0372   31
 Side 2 forced transition at x/c =  1.0000   65

   4   rms: 0.3034E-05   max: 0.1627E-04   D at   77  2
       a = 15.750      CL =  1.4933
      Cm =  0.0246     CD =  0.03865   =>   CDf =  0.00524    CDp =  0.03342
 plradd ia,ip,cpol           52           0  1.36750023E-05

 Point added to stored polar  1
 Point written to save file  vr12_Re500k.base.pol                            
 Dump file unspecified or not available
 Calculating wake trajectory ...
 Calculating source influence matrix ...

 Solving BL system ...

 Side 1  free  transition at x/c =  0.0372   31
 Side 2 forced transition at x/c =  1.0000   65

   1   rms: 0.3573E-01   max: 0.1146E+00   D at   73  1
       a = 16.000      CL =  1.4973
      Cm =  0.0248     CD =  0.04109   =>   CDf =  0.00524    CDp =  0.03585

 Side 1  free  transition at x/c =  0.0354   31
 Side 2 forced transition at x/c =  1.0000   65

   2   rms: 0.5936E-02   max: 0.3527E-01   D at   75  1
       a = 16.000      CL =  1.4931
      Cm =  0.0249     CD =  0.04121   =>   CDf =  0.00516    CDp =  0.03605

 Side 1  free  transition at x/c =  0.0357   31
 Side 2 forced transition at x/c =  1.0000   65

   3   rms: 0.1982E-03   max: 0.2507E-02   D at   75  1
       a = 16.000      CL =  1.4929
      Cm =  0.0249     CD =  0.04117   =>   CDf =  0.00515    CDp =  0.03602

 Side 1  free  transition at x/c =  0.0357   31
 Side 2 forced transition at x/c =  1.0000   65

   4   rms: 0.2863E-05   max: 0.1759E-04   D at   77  2
       a = 16.000      CL =  1.4929
      Cm =  0.0249     CD =  0.04117   =>   CDf =  0.00515    CDp =  0.03602
 plradd ia,ip,cpol           53           0  1.36750023E-05

 Point added to stored polar  1
 Point written to save file  vr12_Re500k.base.pol                            
 Dump file unspecified or not available

.OPERva   c>  
 Polar accumulation disabled

.OPERv   c>  
 XFOIL   c>  
 XFOIL   c>  