
 ===================================================
  XFOIL Version 6.99
  Copyright (C) 2000   Mark Drela, Harold Youngren

  This software comes with ABSOLUTELY NO WARRANTY,
    subject to the GNU General Public License.

  Caveat computor
 ===================================================

 File  xfoil.def  not found

   QUIT    Exit program

  .OPER    Direct operating point(s)
  .MDES    Complex mapping design routine
  .QDES    Surface speed design routine
  .GDES    Geometry design routine

   SAVE f  Write airfoil to labeled coordinate file
   PSAV f  Write airfoil to plain coordinate file
   ISAV f  Write airfoil to ISES coordinate file
   MSAV f  Write airfoil to MSES coordinate file
   REVE    Reverse written-airfoil node ordering

   LOAD f  Read buffer airfoil from coordinate file
   NACA i  Set NACA 4,5-digit airfoil and buffer airfoil
   INTE    Set buffer airfoil by interpolating two airfoils
   NORM    Buffer airfoil normalization toggle
   XYCM rr Change CM reference location, currently  0.25000 0.00000

   BEND    Display structural properties of current airfoil

   PCOP    Set current-airfoil panel nodes directly from buffer airfoil points
   PANE    Set current-airfoil panel nodes ( 160 ) based on curvature
  .PPAR    Show/change paneling

  .PLOP    Plotting options

   WDEF f  Write  current-settings file
   RDEF f  Reread current-settings file
   NAME s  Specify new airfoil name
   NINC    Increment name version number

   Z       Zoom    | (available in all menus)
   U       Unzoom  | 

 XFOIL   c>  
 Labeled airfoil file.  Name:   BOEING-VERTOL VR-13 AIRFOIL                    

 Number of input coordinate points:  83
 Counterclockwise ordering
 Max thickness =     0.094508  at x =   0.350
 Max camber    =     0.020036  at x =   0.200

  LE  x,y  =  -0.00001   0.00045  |   Chord =   1.00001
  TE  x,y  =   1.00000   0.00000  |

 Current airfoil nodes set from buffer airfoil nodes (  83 )

 XFOIL   c>  
 XFOIL   c>  
 Blunt trailing edge.  Gap =  0.00268

 Paneling parameters used...
   Number of panel nodes       160
   Panel bunching parameter    1.000
   TE/LE panel density ratio   0.150
   Refined-area/LE panel density ratio    0.200
   Top    side refined area x/c limits  1.000 1.000
   Bottom side refined area x/c limits  1.000 1.000

 XFOIL   c>  
.OPERi   c>  
 Xtr/c     =  1.0000    top    side
 Xtr/c     =  1.0000    bottom side
 Ncrit     =    9.00   ( 0.070 % turb. level )
 Vacc      =  0.0100

 Klag  =  5.6000     Uxwt  =    1.00
 A     =  6.7000     B     =  0.7500       KCt = 0.01485
 CtiniK=  1.8000     CtiniX=  3.3000

..VPAR   c>  
..VPAR   c>  
.OPERi   c>  
 M  =    0.0000
 Re =    500000

.OPERv   c>  
.OPERv   c>  
.OPERv   c>  
 Polar  1 newly created for accumulation
 Airfoil archived with polar: BOEING-VERTOL VR-13 AIRFOIL                     

Enter  polar save filename  OR  <return> for no file   s>  
 New polar save file available

Enter  polar dump filename  OR  <return> for no file   s>  
 Polar dump file will NOT be written

 Polar accumulation enabled

.OPERva   c>   Calculating unit vorticity distributions ...
 Calculating wake trajectory ...
 Calculating source influence matrix ...

 Solving BL system ...

 Initializing BL ...
    side            1  ...
 MRCHUE: Inverse mode at  54     Hk =   3.934
 MRCHUE: Inverse mode at  55     Hk =   4.491
 MRCHUE: Inverse mode at  56     Hk =   5.042
 MRCHUE: Inverse mode at  57     Hk =   5.587
 MRCHUE: Inverse mode at  58     Hk =   6.125
 MRCHUE: Inverse mode at  59     Hk =   6.655
 MRCHUE: Inverse mode at  60     Hk =   7.175
 MRCHUE: Inverse mode at  61     Hk =   7.688
 MRCHUE: Inverse mode at  62     Hk =   8.200
 MRCHUE: Inverse mode at  63     Hk =   8.713
 MRCHUE: Inverse mode at  64     Hk =   9.225
 MRCHUE: Inverse mode at  65     Hk =   7.804
 MRCHUE: Inverse mode at  66     Hk =   5.962
 MRCHUE: Inverse mode at  67     Hk =   4.714
 MRCHUE: Inverse mode at  68     Hk =   3.779
 MRCHUE: Inverse mode at  69     Hk =   3.049
    side            2  ...
 MRCHUE: Inverse mode at  12     Hk =   4.193
 MRCHUE: Inverse mode at  15     Hk =   3.800
 MRCHUE: Inverse mode at  17     Hk =   4.222
 MRCHUE: Inverse mode at  18     Hk =   5.300
 MRCHUE: Convergence failed at  19  side 2    Res =  0.1007E+03
 MRCHUE: Inverse mode at  20     Hk =   6.732
 MRCHUE: Inverse mode at  21     Hk =   2.615
 MRCHUE: Inverse mode at  22     Hk =   2.500
 MRCHUE: Inverse mode at  87     Hk =   2.500

 MRCHDU: Convergence failed at  21  side 2    Res =  0.4275E+01
 MRCHDU: Convergence failed at  22  side 2    Res =  0.2521E+02
 MRCHDU: Convergence failed at  23  side 2    Res =  0.9087E+01
 MRCHDU: Convergence failed at  24  side 2    Res =  0.5763E+01
 MRCHDU: Convergence failed at  25  side 2    Res =  0.2429E+02
 MRCHDU: Convergence failed at  26  side 2    Res =  0.8712E+02
 MRCHDU: Convergence failed at  27  side 2    Res =  0.9376E+02
 MRCHDU: Convergence failed at  28  side 2    Res =  0.1700E+02
 MRCHDU: Convergence failed at  29  side 2    Res =  0.2036E+02
 MRCHDU: Convergence failed at  30  side 2    Res =  0.2082E+02
 MRCHDU: Convergence failed at  31  side 2    Res =  0.3479E+02
 MRCHDU: Convergence failed at  32  side 2    Res =  0.3815E+02
 MRCHDU: Convergence failed at  33  side 2    Res =  0.4117E+02
 MRCHDU: Convergence failed at  34  side 2    Res =  0.4393E+02
 MRCHDU: Convergence failed at  35  side 2    Res =  0.4682E+02
 MRCHDU: Convergence failed at  36  side 2    Res =  0.4937E+02
 MRCHDU: Convergence failed at  37  side 2    Res =  0.5226E+02
 MRCHDU: Convergence failed at  38  side 2    Res =  0.5518E+02
 MRCHDU: Convergence failed at  39  side 2    Res =  0.2177E+02
 MRCHDU: Convergence failed at  40  side 2    Res =  0.1952E+02
 MRCHDU: Convergence failed at  41  side 2    Res =  0.1961E+02
 MRCHDU: Convergence failed at  42  side 2    Res =  0.2006E+02
 MRCHDU: Convergence failed at  43  side 2    Res =  0.1879E+02
 MRCHDU: Convergence failed at  44  side 2    Res =  0.1914E+02
 MRCHDU: Convergence failed at  45  side 2    Res =  0.1964E+02
 MRCHDU: Convergence failed at  46  side 2    Res =  0.2012E+02
 MRCHDU: Convergence failed at  47  side 2    Res =  0.1924E+02
 MRCHDU: Convergence failed at  48  side 2    Res =  0.1992E+02
 MRCHDU: Convergence failed at  49  side 2    Res =  0.2047E+02
 MRCHDU: Convergence failed at  50  side 2    Res =  0.2092E+02
 MRCHDU: Convergence failed at  51  side 2    Res =  0.2123E+02
 MRCHDU: Convergence failed at  52  side 2    Res =  0.2158E+02
 MRCHDU: Convergence failed at  53  side 2    Res =  0.2196E+02
 MRCHDU: Convergence failed at  54  side 2    Res =  0.2243E+02
 MRCHDU: Convergence failed at  55  side 2    Res =  0.2291E+02
 MRCHDU: Convergence failed at  56  side 2    Res =  0.2332E+02
 MRCHDU: Convergence failed at  57  side 2    Res =  0.2362E+02
 MRCHDU: Convergence failed at  58  side 2    Res =  0.2383E+02
 MRCHDU: Convergence failed at  59  side 2    Res =  0.2424E+02
 MRCHDU: Convergence failed at  60  side 2    Res =  0.2469E+02
 MRCHDU: Convergence failed at  61  side 2    Res =  0.2529E+02
 MRCHDU: Convergence failed at  62  side 2    Res =  0.2583E+02
 MRCHDU: Convergence failed at  63  side 2    Res =  0.2648E+02
 MRCHDU: Convergence failed at  64  side 2    Res =  0.2703E+02
 MRCHDU: Convergence failed at  65  side 2    Res =  0.2769E+02
 MRCHDU: Convergence failed at  66  side 2    Res =  0.2826E+02
 MRCHDU: Convergence failed at  67  side 2    Res =  0.2899E+02
 MRCHDU: Convergence failed at  68  side 2    Res =  0.3004E+02
 MRCHDU: Convergence failed at  69  side 2    Res =  0.3132E+02
 MRCHDU: Convergence failed at  70  side 2    Res =  0.3118E+02
 MRCHDU: Convergence failed at  71  side 2    Res =  0.3214E+02
 MRCHDU: Convergence failed at  72  side 2    Res =  0.3312E+02
 MRCHDU: Convergence failed at  73  side 2    Res =  0.3432E+02
 MRCHDU: Convergence failed at  74  side 2    Res =  0.3596E+02
 MRCHDU: Convergence failed at  75  side 2    Res =  0.3665E+02
 MRCHDU: Convergence failed at  76  side 2    Res =  0.3705E+02
 MRCHDU: Convergence failed at  77  side 2    Res =  0.3747E+02
 MRCHDU: Convergence failed at  78  side 2    Res =  0.4030E+02
 MRCHDU: Convergence failed at  79  side 2    Res =  0.4721E+02
 MRCHDU: Convergence failed at  80  side 2    Res =  0.5934E+02
 MRCHDU: Convergence failed at  81  side 2    Res =  0.1422E+03
 MRCHDU: Convergence failed at  82  side 2    Res =  0.8005E+02
 MRCHDU: Convergence failed at  83  side 2    Res =  0.8730E+02
 MRCHDU: Convergence failed at  84  side 2    Res =  0.6971E+02
 MRCHDU: Convergence failed at  85  side 2    Res =  0.3383E+02
 MRCHDU: Convergence failed at  86  side 2    Res =  0.6275E+02
 MRCHDU: Convergence failed at  87  side 2    Res =  0.4078E+02
 Side 1  free  transition at x/c =  0.8671   65
 Side 2  free  transition at x/c =  0.0303   21

   1   rms: 0.1139E+01   max: -.9062E+00   U at   87  2   RLX: 0.349
       a = -4.000      CL = -1.5777
      Cm =  0.3531     CD =  0.00455   =>   CDf =  0.00163    CDp =  0.00291

 Side 1  free  transition at x/c =  0.8837   67
 Side 2  free  transition at x/c =  0.0319   20

   2   rms: 0.6184E+00   max: 0.5932E+00   D at   92  2   RLX: 0.397
       a = -4.000      CL = -0.9818
      Cm =  0.1718     CD =  0.00900   =>   CDf =  0.01061    CDp = -0.00161

 Side 1  free  transition at x/c =  0.8951   68
 Side 2  free  transition at x/c =  0.0315   20

   3   rms: 0.4604E+00   max: 0.3961E+00   D at   94  2   RLX: 0.364
       a = -4.000      CL = -0.7047
      Cm =  0.0953     CD =  0.00955   =>   CDf =  0.00853    CDp =  0.00102

 MRCHDU: Convergence failed at  62  side 2    Res =  0.5481E+00
 MRCHDU: Convergence failed at  63  side 2    Res =  0.4368E+00
 MRCHDU: Convergence failed at  64  side 2    Res =  0.3872E+00
 MRCHDU: Convergence failed at  65  side 2    Res =  0.7148E+00
 MRCHDU: Convergence failed at  66  side 2    Res =  0.6800E+00
 Side 1  free  transition at x/c =  0.9004   68
 Side 2  free  transition at x/c =  0.0310   20
 idif Ue xi dudx           1  0.17835693      3.67963314E-03   48.471390    
 Uenew xinew           2  1.59306079E-02  3.28660011E-04

   4   rms: 0.5785E+00   max: 0.1622E+01   T at   87  2   RLX: 0.232
       a = -4.000      CL = -0.7419
      Cm =  0.1067     CD =  0.01078   =>   CDf =  0.00812    CDp =  0.00265

 MRCHDU: Convergence failed at  80  side 2    Res =  0.1051E+01
 Side 1  free  transition at x/c =  0.8906   66
 Side 2  free  transition at x/c =  0.0284   21

   5   rms: 0.2940E+00   max: 0.6973E+00   T at   88  2   RLX: 0.522
       a = -4.000      CL = -0.6129
      Cm =  0.0690     CD =  0.01224   =>   CDf =  0.00794    CDp =  0.00430

 Side 1  free  transition at x/c =  0.8869   66
 Side 2  free  transition at x/c =  0.0257   20

   6   rms: 0.2015E+00   max: -.5787E+00   D at   87  2   RLX: 0.864
       a = -4.000      CL = -0.3830
      Cm =  0.0069     CD =  0.01607   =>   CDf =  0.00695    CDp =  0.00912

 Side 1  free  transition at x/c =  0.9031   68
 Side 2  free  transition at x/c =  0.0264   20

   7   rms: 0.3387E+01   max: -.1214E+02   D at   23  2   RLX: 0.041
       a = -4.000      CL = -0.3663
      Cm =  0.0030     CD =  0.01064   =>   CDf =  0.00642    CDp =  0.00421

 Side 1  free  transition at x/c =  0.9055   68
 Side 2  free  transition at x/c =  0.0286   20

   8   rms: 0.1427E+00   max: 0.6879E+00   D at   20  2   RLX: 0.939
       a = -4.000      CL = -0.3553
      Cm =  0.0002     CD =  0.01555   =>   CDf =  0.00638    CDp =  0.00917

 Side 1  free  transition at x/c =  0.8992   68
 Side 2  free  transition at x/c =  0.0275   20

   9   rms: 0.5701E-01   max: -.5027E+00   D at   86  2   RLX: 0.995
       a = -4.000      CL = -0.3124
      Cm = -0.0098     CD =  0.01517   =>   CDf =  0.00618    CDp =  0.00899

 Side 1  free  transition at x/c =  0.9044   68
 Side 2  free  transition at x/c =  0.0287   20

  10   rms: 0.4884E-01   max: -.2934E+00   D at   86  2
       a = -4.000      CL = -0.2871
      Cm = -0.0154     CD =  0.01506   =>   CDf =  0.00605    CDp =  0.00902

 Side 1  free  transition at x/c =  0.9097   69
 Side 2  free  transition at x/c =  0.0294   20

  11   rms: 0.1794E-01   max: 0.1067E+00   D at   69  1
       a = -4.000      CL = -0.2806
      Cm = -0.0169     CD =  0.01492   =>   CDf =  0.00609    CDp =  0.00883

 Side 1  free  transition at x/c =  0.9091   69
 Side 2  free  transition at x/c =  0.0296   20

  12   rms: 0.9419E-03   max: 0.7572E-02   D at   69  1
       a = -4.000      CL = -0.2805
      Cm = -0.0169     CD =  0.01492   =>   CDf =  0.00612    CDp =  0.00879

 Side 1  free  transition at x/c =  0.9090   69
 Side 2  free  transition at x/c =  0.0296   20

  13   rms: 0.4976E-05   max: -.3590E-04   D at   72  1
       a = -4.000      CL = -0.2805
      Cm = -0.0169     CD =  0.01492   =>   CDf =  0.00613    CDp =  0.00879
 plradd ia,ip,cpol            1           0  5.03969728E-04

 Point added to stored polar  1
 Point written to save file  vr13_Re500k.base.pol                            
 Dump file unspecified or not available
 Calculating wake trajectory ...
 Calculating source influence matrix ...

 Solving BL system ...

 Side 1  free  transition at x/c =  0.9090   69
 Side 2  free  transition at x/c =  0.0296   20

   1   rms: 0.9486E-01   max: -.4632E+00   T at   20  2
       a = -3.500      CL = -0.2324
      Cm = -0.0147     CD =  0.01355   =>   CDf =  0.00613    CDp =  0.00742

 Side 1  free  transition at x/c =  0.8985   68
 Side 2  free  transition at x/c =  0.0329   20

   2   rms: 0.6752E-01   max: -.2797E+00   D at   23  2
       a = -3.500      CL = -0.2289
      Cm = -0.0155     CD =  0.01351   =>   CDf =  0.00624    CDp =  0.00727

 Side 1  free  transition at x/c =  0.8963   68
 Side 2  free  transition at x/c =  0.0326   20

   3   rms: 0.2155E-02   max: 0.2057E-01   D at   20  2
       a = -3.500      CL = -0.2295
      Cm = -0.0154     CD =  0.01363   =>   CDf =  0.00630    CDp =  0.00733

 Side 1  free  transition at x/c =  0.8965   68
 Side 2  free  transition at x/c =  0.0325   20

   4   rms: 0.2050E-04   max: 0.1517E-03   D at   22  2
       a = -3.500      CL = -0.2295
      Cm = -0.0154     CD =  0.01363   =>   CDf =  0.00630    CDp =  0.00733
 plradd ia,ip,cpol            2           0  5.03969728E-04

 Point added to stored polar  1
 Point written to save file  vr13_Re500k.base.pol                            
 Dump file unspecified or not available
 Calculating wake trajectory ...
 Calculating source influence matrix ...

 Solving BL system ...

 Side 1  free  transition at x/c =  0.8965   68
 Side 2  free  transition at x/c =  0.0325   20

   1   rms: 0.9054E-01   max: -.4577E+00   T at   20  2
       a = -3.000      CL = -0.1802
      Cm = -0.0132     CD =  0.01262   =>   CDf =  0.00634    CDp =  0.00628

 Side 1  free  transition at x/c =  0.8772   68
 Side 2  free  transition at x/c =  0.0363   20

   2   rms: 0.5435E-01   max: 0.3984E+00   D at   20  2
       a = -3.000      CL = -0.1824
      Cm = -0.0128     CD =  0.01203   =>   CDf =  0.00647    CDp =  0.00556

 Side 1  free  transition at x/c =  0.8810   68
 Side 2  free  transition at x/c =  0.0360   20

   3   rms: 0.5005E-02   max: 0.3576E-01   C at   68  1
       a = -3.000      CL = -0.1819
      Cm = -0.0130     CD =  0.01209   =>   CDf =  0.00644    CDp =  0.00565

 Side 1  free  transition at x/c =  0.8798   68
 Side 2  free  transition at x/c =  0.0359   20

   4   rms: 0.1796E-03   max: -.2718E-02   D at   70  1
       a = -3.000      CL = -0.1819
      Cm = -0.0130     CD =  0.01209   =>   CDf =  0.00645    CDp =  0.00564

 Side 1  free  transition at x/c =  0.8798   68
 Side 2  free  transition at x/c =  0.0359   20

   5   rms: 0.1480E-05   max: -.1204E-04   T at   68  1
       a = -3.000      CL = -0.1819
      Cm = -0.0130     CD =  0.01209   =>   CDf =  0.00645    CDp =  0.00564
 plradd ia,ip,cpol            3           0  1.50045555E-03

 Point added to stored polar  1
 Point written to save file  vr13_Re500k.base.pol                            
 Dump file unspecified or not available
 Calculating wake trajectory ...
 Calculating source influence matrix ...

 Solving BL system ...

 Side 1  free  transition at x/c =  0.8798   68
 Side 2  free  transition at x/c =  0.0359   20

   1   rms: 0.1129E+00   max: -.5441E+00   T at   20  2   RLX: 0.919
       a = -2.500      CL = -0.1402
      Cm = -0.0105     CD =  0.01083   =>   CDf =  0.00645    CDp =  0.00438

 Side 1  free  transition at x/c =  0.8660   67
 Side 2  free  transition at x/c =  0.0399   20

   2   rms: 0.4491E-01   max: -.2344E+00   D at   22  2
       a = -2.500      CL = -0.1322
      Cm = -0.0112     CD =  0.01114   =>   CDf =  0.00645    CDp =  0.00469

 Side 1  free  transition at x/c =  0.8614   67
 Side 2  free  transition at x/c =  0.0399   20

   3   rms: 0.3785E-02   max: -.6270E-01   D at   67  1
       a = -2.500      CL = -0.1327
      Cm = -0.0111     CD =  0.01119   =>   CDf =  0.00652    CDp =  0.00467

 Side 1  free  transition at x/c =  0.8622   67
 Side 2  free  transition at x/c =  0.0399   20

   4   rms: 0.1528E-03   max: 0.1560E-02   C at   67  1
       a = -2.500      CL = -0.1326
      Cm = -0.0111     CD =  0.01119   =>   CDf =  0.00651    CDp =  0.00468

 Side 1  free  transition at x/c =  0.8622   67
 Side 2  free  transition at x/c =  0.0399   20

   5   rms: 0.1247E-05   max: 0.1061E-04   D at    4  2
       a = -2.500      CL = -0.1326
      Cm = -0.0111     CD =  0.01119   =>   CDf =  0.00651    CDp =  0.00468
 plradd ia,ip,cpol            4           0  1.50045555E-03

 Point added to stored polar  1
 Point written to save file  vr13_Re500k.base.pol                            
 Dump file unspecified or not available
 Calculating wake trajectory ...
 Calculating source influence matrix ...

 Solving BL system ...

 Side 1  free  transition at x/c =  0.8622   67
 Side 2  free  transition at x/c =  0.0399   20

   1   rms: 0.9362E-01   max: -.4554E+00   T at   20  2
       a = -2.000      CL = -0.0843
      Cm = -0.0089     CD =  0.01055   =>   CDf =  0.00655    CDp =  0.00400

 Side 1  free  transition at x/c =  0.8454   66
 Side 2  free  transition at x/c =  0.0433   19

   2   rms: 0.5308E-01   max: -.2821E+00   D at   67  1
       a = -2.000      CL = -0.0815
      Cm = -0.0096     CD =  0.01042   =>   CDf =  0.00657    CDp =  0.00385

 Side 1  free  transition at x/c =  0.8443   66
 Side 2  free  transition at x/c =  0.0432   19

   3   rms: 0.3278E-02   max: 0.2908E-01   D at   67  1
       a = -2.000      CL = -0.0813
      Cm = -0.0097     CD =  0.01049   =>   CDf =  0.00662    CDp =  0.00387

 Side 1  free  transition at x/c =  0.8433   66
 Side 2  free  transition at x/c =  0.0432   19

   4   rms: 0.4841E-04   max: -.4856E-03   D at   69  1
       a = -2.000      CL = -0.0813
      Cm = -0.0097     CD =  0.01049   =>   CDf =  0.00662    CDp =  0.00387
 plradd ia,ip,cpol            5           0  4.57320921E-03

 Point added to stored polar  1
 Point written to save file  vr13_Re500k.base.pol                            
 Dump file unspecified or not available
 Calculating wake trajectory ...
 Calculating source influence matrix ...

 Solving BL system ...

 Side 1  free  transition at x/c =  0.8433   66
 Side 2  free  transition at x/c =  0.0432   19

   1   rms: 0.9286E-01   max: -.4015E+00   T at   19  2
       a = -1.500      CL = -0.0272
      Cm = -0.0090     CD =  0.00989   =>   CDf =  0.00664    CDp =  0.00325

 Side 1  free  transition at x/c =  0.8198   66
 Side 2  free  transition at x/c =  0.0485   19

   2   rms: 0.1735E-01   max: -.2227E+00   D at   66  1
       a = -1.500      CL = -0.0302
      Cm = -0.0082     CD =  0.00968   =>   CDf =  0.00677    CDp =  0.00291

 Side 1  free  transition at x/c =  0.8253   66
 Side 2  free  transition at x/c =  0.0484   19

   3   rms: 0.3188E-02   max: 0.3451E-01   C at   66  1
       a = -1.500      CL = -0.0298
      Cm = -0.0083     CD =  0.00970   =>   CDf =  0.00670    CDp =  0.00300

 Side 1  free  transition at x/c =  0.8239   66
 Side 2  free  transition at x/c =  0.0484   19

   4   rms: 0.1008E-03   max: -.1234E-02   D at   66  1
       a = -1.500      CL = -0.0298
      Cm = -0.0083     CD =  0.00970   =>   CDf =  0.00671    CDp =  0.00299

 Side 1  free  transition at x/c =  0.8239   66
 Side 2  free  transition at x/c =  0.0484   19

   5   rms: 0.1186E-05   max: 0.1066E-04   D at    4  1
       a = -1.500      CL = -0.0298
      Cm = -0.0083     CD =  0.00970   =>   CDf =  0.00671    CDp =  0.00299
 plradd ia,ip,cpol            6           0  4.57320921E-03

 Point added to stored polar  1
 Point written to save file  vr13_Re500k.base.pol                            
 Dump file unspecified or not available
 Calculating wake trajectory ...
 Calculating source influence matrix ...

 Solving BL system ...

 Side 1  free  transition at x/c =  0.8239   66
 Side 2  free  transition at x/c =  0.0484   19

   1   rms: 0.1008E+00   max: -.4958E+00   T at   19  2
       a = -1.000      CL =  0.0231
      Cm = -0.0074     CD =  0.00912   =>   CDf =  0.00671    CDp =  0.00242

 Side 1  free  transition at x/c =  0.8041   65
 Side 2  free  transition at x/c =  0.0547   19

   2   rms: 0.3297E-01   max: -.3520E+00   D at   19  2
       a = -1.000      CL =  0.0235
      Cm = -0.0073     CD =  0.00926   =>   CDf =  0.00679    CDp =  0.00246

 Side 1  free  transition at x/c =  0.8058   65
 Side 2  free  transition at x/c =  0.0558   19

   3   rms: 0.2902E-02   max: 0.3058E-01   D at   19  2
       a = -1.000      CL =  0.0237
      Cm = -0.0074     CD =  0.00928   =>   CDf =  0.00679    CDp =  0.00249

 Side 1  free  transition at x/c =  0.8051   65
 Side 2  free  transition at x/c =  0.0556   19

   4   rms: 0.4885E-04   max: -.8360E-03   D at   67  1
       a = -1.000      CL =  0.0237
      Cm = -0.0074     CD =  0.00928   =>   CDf =  0.00680    CDp =  0.00248
 plradd ia,ip,cpol            7           0  9.11995769E-03

 Point added to stored polar  1
 Point written to save file  vr13_Re500k.base.pol                            
 Dump file unspecified or not available
 Calculating wake trajectory ...
 Calculating source influence matrix ...

 Solving BL system ...

 Side 1  free  transition at x/c =  0.8051   65
 Side 2  free  transition at x/c =  0.0556   19

   1   rms: 0.9558E-01   max: -.5438E+00   T at   19  2   RLX: 0.919
       a = -0.500      CL =  0.0730
      Cm = -0.0065     CD =  0.00901   =>   CDf =  0.00680    CDp =  0.00221

 Side 1  free  transition at x/c =  0.7881   65
 Side 2  free  transition at x/c =  0.0768   20

   2   rms: 0.2257E+00   max: -.4626E+01   C at   20  2   RLX: 0.108
       a = -0.500      CL =  0.0741
      Cm = -0.0061     CD =  0.00898   =>   CDf =  0.00682    CDp =  0.00216

 Side 1  free  transition at x/c =  0.7880   65
 Side 2  free  transition at x/c =  0.0813   20

   3   rms: 0.8315E-01   max: -.1101E+01   T at   20  2   RLX: 0.454
       a = -0.500      CL =  0.0759
      Cm = -0.0061     CD =  0.00888   =>   CDf =  0.00679    CDp =  0.00209

 Side 1  free  transition at x/c =  0.7876   65
 Side 2  free  transition at x/c =  0.4125   42

   4   rms: 0.5940E+00   max: -.1193E+02   C at   42  2   RLX: 0.042
       a = -0.500      CL =  0.0733
      Cm = -0.0061     CD =  0.00763   =>   CDf =  0.00566    CDp =  0.00198

 Side 1  free  transition at x/c =  0.7875   65
 Side 2  free  transition at x/c =  0.4364   44

   5   rms: 0.1218E+01   max: -.2411E+02   C at   44  2   RLX: 0.021
       a = -0.500      CL =  0.0725
      Cm = -0.0060     CD =  0.00752   =>   CDf =  0.00555    CDp =  0.00197

 Side 1  free  transition at x/c =  0.7875   65
 Side 2  free  transition at x/c =  0.4540   45

   6   rms: 0.1296E+01   max: -.2537E+02   C at   45  2   RLX: 0.020
       a = -0.500      CL =  0.0719
      Cm = -0.0059     CD =  0.00746   =>   CDf =  0.00549    CDp =  0.00196

 Side 1  free  transition at x/c =  0.7876   65
 Side 2  free  transition at x/c =  0.4737   46

   7   rms: 0.1415E+01   max: -.2718E+02   C at   46  2   RLX: 0.018
       a = -0.500      CL =  0.0713
      Cm = -0.0058     CD =  0.00739   =>   CDf =  0.00543    CDp =  0.00196

 Side 1  free  transition at x/c =  0.7876   65
 Side 2  free  transition at x/c =  0.4921   47

   8   rms: 0.1481E+01   max: -.2794E+02   C at   47  2   RLX: 0.018
       a = -0.500      CL =  0.0707
      Cm = -0.0057     CD =  0.00732   =>   CDf =  0.00536    CDp =  0.00196

 Side 1  free  transition at x/c =  0.7876   65
 Side 2  free  transition at x/c =  0.4903   47

   9   rms: 0.7527E+00   max: -.1437E+02   C at   47  2   RLX: 0.035
       a = -0.500      CL =  0.0704
      Cm = -0.0057     CD =  0.00732   =>   CDf =  0.00537    CDp =  0.00195

 Side 1  free  transition at x/c =  0.7876   65
 Side 2  free  transition at x/c =  0.4925   48

  10   rms: 0.3840E+00   max: -.7711E+01   C at   48  2   RLX: 0.065
       a = -0.500      CL =  0.0698
      Cm = -0.0056     CD =  0.00730   =>   CDf =  0.00536    CDp =  0.00194

 Side 1  free  transition at x/c =  0.7876   65
 Side 2  free  transition at x/c =  0.5151   49

  11   rms: 0.4574E+00   max: -.8860E+01   C at   49  2   RLX: 0.056
       a = -0.500      CL =  0.0689
      Cm = -0.0055     CD =  0.00721   =>   CDf =  0.00527    CDp =  0.00194

 Side 1  free  transition at x/c =  0.7875   65
 Side 2  free  transition at x/c =  0.5299   50

  12   rms: 0.5651E+00   max: -.1090E+02   C at   50  2   RLX: 0.046
       a = -0.500      CL =  0.0682
      Cm = -0.0054     CD =  0.00715   =>   CDf =  0.00521    CDp =  0.00194

 Side 1  free  transition at x/c =  0.7875   65
 Side 2  free  transition at x/c =  0.5323   50

  13   rms: 0.3249E+00   max: -.6201E+01   C at   50  2   RLX: 0.081
       a = -0.500      CL =  0.0676
      Cm = -0.0053     CD =  0.00714   =>   CDf =  0.00520    CDp =  0.00194

 Side 1  free  transition at x/c =  0.7875   65
 Side 2  free  transition at x/c =  0.5498   51

  14   rms: 0.3549E+00   max: -.6687E+01   C at   51  2   RLX: 0.075
       a = -0.500      CL =  0.0667
      Cm = -0.0052     CD =  0.00707   =>   CDf =  0.00514    CDp =  0.00193

 MRCHDU: Convergence failed at  51  side 2    Res =  0.3025E-04
 Side 1  free  transition at x/c =  0.7875   65
 Side 2  free  transition at x/c =  0.5526   51

  15   rms: 0.2039E+00   max: -.3782E+01   C at   51  2   RLX: 0.132
       a = -0.500      CL =  0.0660
      Cm = -0.0051     CD =  0.00706   =>   CDf =  0.00513    CDp =  0.00193

 Side 1  free  transition at x/c =  0.7875   65
 Side 2  free  transition at x/c =  0.5819   53

  16   rms: 0.1617E+00   max: -.2972E+01   C at   53  2   RLX: 0.168
       a = -0.500      CL =  0.0644
      Cm = -0.0047     CD =  0.00694   =>   CDf =  0.00502    CDp =  0.00192

 Side 1  free  transition at x/c =  0.7875   65
 Side 2  free  transition at x/c =  0.5999   55

  17   rms: 0.8626E-01   max: -.1656E+01   C at   55  2   RLX: 0.302
       a = -0.500      CL =  0.0626
      Cm = -0.0044     CD =  0.00685   =>   CDf =  0.00495    CDp =  0.00190

 Side 1  free  transition at x/c =  0.7874   65
 Side 2  free  transition at x/c =  0.6171   56

  18   rms: 0.7425E-01   max: -.1426E+01   C at   56  2   RLX: 0.351
       a = -0.500      CL =  0.0611
      Cm = -0.0042     CD =  0.00678   =>   CDf =  0.00488    CDp =  0.00190

 Side 1  free  transition at x/c =  0.7874   65
 Side 2  free  transition at x/c =  0.6289   56

  19   rms: 0.3157E-01   max: -.5739E+00   C at   56  2   RLX: 0.871
       a = -0.500      CL =  0.0595
      Cm = -0.0039     CD =  0.00674   =>   CDf =  0.00483    CDp =  0.00191

 Side 1  free  transition at x/c =  0.7873   65
 Side 2  free  transition at x/c =  0.6171   56

  20   rms: 0.1954E-01   max: -.3745E+00   C at   56  2
       a = -0.500      CL =  0.0601
      Cm = -0.0040     CD =  0.00679   =>   CDf =  0.00488    CDp =  0.00191

 Side 1  free  transition at x/c =  0.7872   65
 Side 2  free  transition at x/c =  0.6294   56

  21   rms: 0.3325E-03   max: -.3732E-02   D at   59  2
       a = -0.500      CL =  0.0601
      Cm = -0.0040     CD =  0.00680   =>   CDf =  0.00483    CDp =  0.00197

 Side 1  free  transition at x/c =  0.7872   65
 Side 2  free  transition at x/c =  0.6296   56

  22   rms: 0.5205E-03   max: -.9014E-02   C at   56  2
       a = -0.500      CL =  0.0601
      Cm = -0.0040     CD =  0.00680   =>   CDf =  0.00483    CDp =  0.00197

 Side 1  free  transition at x/c =  0.7872   65
 Side 2  free  transition at x/c =  0.6297   57

  23   rms: 0.3704E-03   max: -.6699E-02   C at   57  2
       a = -0.500      CL =  0.0601
      Cm = -0.0040     CD =  0.00680   =>   CDf =  0.00483    CDp =  0.00197

 Side 1  free  transition at x/c =  0.7872   65
 Side 2  free  transition at x/c =  0.6298   57

  24   rms: 0.1281E-03   max: 0.2474E-02   C at   57  2
       a = -0.500      CL =  0.0601
      Cm = -0.0040     CD =  0.00680   =>   CDf =  0.00483    CDp =  0.00197

 Side 1  free  transition at x/c =  0.7872   65
 Side 2  free  transition at x/c =  0.6297   57

  25   rms: 0.4074E-05   max: -.7597E-04   C at   57  2
       a = -0.500      CL =  0.0601
      Cm = -0.0040     CD =  0.00680   =>   CDf =  0.00483    CDp =  0.00197
 plradd ia,ip,cpol            8           0  9.11995769E-03

 Point added to stored polar  1
 Point written to save file  vr13_Re500k.base.pol                            
 Dump file unspecified or not available
 Calculating wake trajectory ...
 Calculating source influence matrix ...

 Solving BL system ...

 Side 1  free  transition at x/c =  0.7872   65
 Side 2  free  transition at x/c =  0.6297   57

   1   rms: 0.1245E+01   max: -.2406E+02   C at   57  2   RLX: 0.021
       a =  0.000      CL =  0.0602
      Cm = -0.0038     CD =  0.00672   =>   CDf =  0.00483    CDp =  0.00189

 Side 1  free  transition at x/c =  0.7869   65
 Side 2  free  transition at x/c =  0.6471   58

   2   rms: 0.1308E+01   max: -.2507E+02   C at   58  2   RLX: 0.020
       a =  0.000      CL =  0.0604
      Cm = -0.0036     CD =  0.00665   =>   CDf =  0.00477    CDp =  0.00188

 Side 1  free  transition at x/c =  0.7867   65
 Side 2  free  transition at x/c =  0.6617   59

   3   rms: 0.1201E+01   max: -.2298E+02   C at   59  2   RLX: 0.022
       a =  0.000      CL =  0.0606
      Cm = -0.0034     CD =  0.00659   =>   CDf =  0.00471    CDp =  0.00188

 Side 1  free  transition at x/c =  0.7864   65
 Side 2  free  transition at x/c =  0.6773   60

   4   rms: 0.1130E+01   max: -.2153E+02   C at   60  2   RLX: 0.023
       a =  0.000      CL =  0.0609
      Cm = -0.0032     CD =  0.00653   =>   CDf =  0.00465    CDp =  0.00187

 Side 1  free  transition at x/c =  0.7861   64
 Side 2  free  transition at x/c =  0.6943   61

   5   rms: 0.1131E+01   max: -.2133E+02   C at   61  2   RLX: 0.023
       a =  0.000      CL =  0.0611
      Cm = -0.0031     CD =  0.00646   =>   CDf =  0.00458    CDp =  0.00187

 Side 1  free  transition at x/c =  0.7857   64
 Side 2  free  transition at x/c =  0.7117   62

   6   rms: 0.1017E+01   max: -.1898E+02   C at   62  2   RLX: 0.026
       a =  0.000      CL =  0.0614
      Cm = -0.0028     CD =  0.00639   =>   CDf =  0.00451    CDp =  0.00187

 Side 1  free  transition at x/c =  0.7852   64
 Side 2  free  transition at x/c =  0.7324   63

   7   rms: 0.9065E+00   max: -.1664E+02   C at   63  2   RLX: 0.030
       a =  0.000      CL =  0.0619
      Cm = -0.0026     CD =  0.00631   =>   CDf =  0.00444    CDp =  0.00188

 Side 1  free  transition at x/c =  0.7847   64
 Side 2  free  transition at x/c =  0.7571   65

   8   rms: 0.7926E+00   max: -.1484E+02   C at   65  2   RLX: 0.034
       a =  0.000      CL =  0.0622
      Cm = -0.0022     CD =  0.00621   =>   CDf =  0.00434    CDp =  0.00187

 Side 1  free  transition at x/c =  0.7842   64
 Side 2  free  transition at x/c =  0.7784   66

   9   rms: 0.6070E+00   max: -.1117E+02   C at   66  2   RLX: 0.045
       a =  0.000      CL =  0.0632
      Cm = -0.0019     CD =  0.00614   =>   CDf =  0.00426    CDp =  0.00188

 Side 1  free  transition at x/c =  0.7834   64
 Side 2  free  transition at x/c =  0.8095   68

  10   rms: 0.5280E+00   max: -.9666E+01   C at   68  2   RLX: 0.052
       a =  0.000      CL =  0.0643
      Cm = -0.0014     CD =  0.00603   =>   CDf =  0.00414    CDp =  0.00189

 Side 1  free  transition at x/c =  0.7826   64
 Side 2  free  transition at x/c =  0.8424   71

  11   rms: 0.7679E+00   max: -.1416E+02   C at   71  2   RLX: 0.035
       a =  0.000      CL =  0.0655
      Cm = -0.0011     CD =  0.00593   =>   CDf =  0.00401    CDp =  0.00192

 Side 1  free  transition at x/c =  0.7821   64
 Side 2  free  transition at x/c =  0.8577   72

  12   rms: 0.7990E+00   max: -.1433E+02   C at   72  2   RLX: 0.035
       a =  0.000      CL =  0.0687
      Cm = -0.0016     CD =  0.00590   =>   CDf =  0.00396    CDp =  0.00194

 Side 1  free  transition at x/c =  0.7816   64
 Side 2  free  transition at x/c =  0.8730   73

  13   rms: 0.8233E+00   max: -.1404E+02   C at   73  2   RLX: 0.036
       a =  0.000      CL =  0.0737
      Cm = -0.0024     CD =  0.00589   =>   CDf =  0.00391    CDp =  0.00199

 Side 1  free  transition at x/c =  0.7811   64
 Side 2  free  transition at x/c =  0.8881   74

  14   rms: 0.5385E+00   max: -.8243E+01   C at   74  2   RLX: 0.061
       a =  0.000      CL =  0.0821
      Cm = -0.0039     CD =  0.00590   =>   CDf =  0.00387    CDp =  0.00204

 Side 1  free  transition at x/c =  0.7802   64
 Side 2  free  transition at x/c =  0.9027   75

  15   rms: 0.2342E+00   max: -.3010E+01   C at   75  2   RLX: 0.166
       a =  0.000      CL =  0.0950
      Cm = -0.0055     CD =  0.00593   =>   CDf =  0.00385    CDp =  0.00208

 Side 1  free  transition at x/c =  0.7776   64
 Side 2  free  transition at x/c =  0.9226   76

  16   rms: 0.1201E+00   max: -.7804E+00   C at   76  2   RLX: 0.641
       a =  0.000      CL =  0.1280
      Cm = -0.0078     CD =  0.00607   =>   CDf =  0.00382    CDp =  0.00225

 Side 1  free  transition at x/c =  0.7694   63
 Side 2  free  transition at x/c =  0.9654   79

  17   rms: 0.7192E-01   max: 0.4873E+00   D at   82  2
       a =  0.000      CL =  0.1577
      Cm = -0.0115     CD =  0.00621   =>   CDf =  0.00391    CDp =  0.00230

 Side 1  free  transition at x/c =  0.7643   64
 Side 2  free  transition at x/c =  0.9871   80

  18   rms: 0.4145E-01   max: 0.3682E+00   C at   80  2
       a =  0.000      CL =  0.1535
      Cm = -0.0104     CD =  0.00632   =>   CDf =  0.00390    CDp =  0.00241

 Side 1  free  transition at x/c =  0.7650   64
 Side 2  free  transition at x/c =  0.9790   79

  19   rms: 0.1542E-01   max: 0.8325E-01   D at   81  2
       a =  0.000      CL =  0.1645
      Cm = -0.0128     CD =  0.00645   =>   CDf =  0.00389    CDp =  0.00255

 Side 1  free  transition at x/c =  0.7646   64
 Side 2  free  transition at x/c =  0.9795   79

  20   rms: 0.7173E-03   max: 0.5838E-02   D at   80  2
       a =  0.000      CL =  0.1645
      Cm = -0.0128     CD =  0.00646   =>   CDf =  0.00390    CDp =  0.00256

 Side 1  free  transition at x/c =  0.7646   64
 Side 2  free  transition at x/c =  0.9792   79

  21   rms: 0.9569E-05   max: -.6512E-04   D at   81  2
       a =  0.000      CL =  0.1645
      Cm = -0.0128     CD =  0.00646   =>   CDf =  0.00390    CDp =  0.00256
 plradd ia,ip,cpol            9           0  7.85493106E-02

 Point added to stored polar  1
 Point written to save file  vr13_Re500k.base.pol                            
 Dump file unspecified or not available
 Calculating wake trajectory ...
 Calculating source influence matrix ...

 Solving BL system ...

 Side 1  free  transition at x/c =  0.7646   64
 Side 2  free  transition at x/c =  0.9792   79

   1   rms: 0.2814E+00   max: 0.1464E+01   C at   79  2   RLX: 0.403
       a =  0.500      CL =  0.2248
      Cm = -0.0203     CD =  0.00693   =>   CDf =  0.00390    CDp =  0.00303

 Side 1  free  transition at x/c =  0.7502   63
 Side 2  free  transition at x/c =  0.9955   81

   2   rms: 0.1054E+00   max: -.4697E+00   T at   81  2
       a =  0.500      CL =  0.3047
      Cm = -0.0306     CD =  0.00692   =>   CDf =  0.00406    CDp =  0.00285

 Side 1  free  transition at x/c =  0.7222   62
 Side 2 forced transition at x/c =  1.0000   80

   3   rms: 0.6513E-01   max: -.4261E+00   D at   80  2
       a =  0.500      CL =  0.2669
      Cm = -0.0226     CD =  0.00673   =>   CDf =  0.00420    CDp =  0.00253

 Side 1  free  transition at x/c =  0.7336   63
 Side 2 forced transition at x/c =  1.0000   80

   4   rms: 0.9853E-02   max: 0.9939E-01   C at   63  1
       a =  0.500      CL =  0.2695
      Cm = -0.0231     CD =  0.00677   =>   CDf =  0.00410    CDp =  0.00267

 Side 1  free  transition at x/c =  0.7316   63
 Side 2 forced transition at x/c =  1.0000   80

   5   rms: 0.6266E-03   max: 0.8138E-02   D at   84  2
       a =  0.500      CL =  0.2696
      Cm = -0.0231     CD =  0.00678   =>   CDf =  0.00412    CDp =  0.00266

 Side 1  free  transition at x/c =  0.7314   63
 Side 2 forced transition at x/c =  1.0000   80

   6   rms: 0.3891E-05   max: 0.4356E-04   D at   84  2
       a =  0.500      CL =  0.2696
      Cm = -0.0231     CD =  0.00678   =>   CDf =  0.00412    CDp =  0.00266
 plradd ia,ip,cpol           10           0  7.85493106E-02

 Point added to stored polar  1
 Point written to save file  vr13_Re500k.base.pol                            
 Dump file unspecified or not available
 Calculating wake trajectory ...
 Calculating source influence matrix ...

 Solving BL system ...

 Side 1  free  transition at x/c =  0.7314   63
 Side 2 forced transition at x/c =  1.0000   80

   1   rms: 0.1047E+00   max: -.2450E+00   n at   78  2
       a =  1.000      CL =  0.3233
      Cm = -0.0226     CD =  0.00677   =>   CDf =  0.00412    CDp =  0.00265

 Side 1  free  transition at x/c =  0.6780   59
 Side 2 forced transition at x/c =  1.0000   80

   2   rms: 0.2134E-01   max: 0.2751E+00   D at   62  1
       a =  1.000      CL =  0.3232
      Cm = -0.0226     CD =  0.00679   =>   CDf =  0.00440    CDp =  0.00240

 Side 1  free  transition at x/c =  0.6877   60
 Side 2 forced transition at x/c =  1.0000   80

   3   rms: 0.7410E-02   max: 0.1242E+00   C at   60  1
       a =  1.000      CL =  0.3234
      Cm = -0.0226     CD =  0.00679   =>   CDf =  0.00431    CDp =  0.00248

 Side 1  free  transition at x/c =  0.6843   60
 Side 2 forced transition at x/c =  1.0000   80

   4   rms: 0.2792E-03   max: -.5697E-02   D at   62  1
       a =  1.000      CL =  0.3234
      Cm = -0.0226     CD =  0.00679   =>   CDf =  0.00434    CDp =  0.00245

 Side 1  free  transition at x/c =  0.6842   60
 Side 2 forced transition at x/c =  1.0000   80

   5   rms: 0.1248E-05   max: -.1860E-04   D at   62  1
       a =  1.000      CL =  0.3234
      Cm = -0.0226     CD =  0.00679   =>   CDf =  0.00434    CDp =  0.00245
 plradd ia,ip,cpol           11           0  7.85493106E-02

 Point added to stored polar  1
 Point written to save file  vr13_Re500k.base.pol                            
 Dump file unspecified or not available
 Calculating wake trajectory ...
 Calculating source influence matrix ...

 Solving BL system ...

 Side 1  free  transition at x/c =  0.6842   60
 Side 2 forced transition at x/c =  1.0000   80

   1   rms: 0.1107E+00   max: 0.1133E+01   C at   60  1   RLX: 0.836
       a =  1.500      CL =  0.3684
      Cm = -0.0222     CD =  0.00691   =>   CDf =  0.00435    CDp =  0.00256

 Side 1  free  transition at x/c =  0.6001   55
 Side 2 forced transition at x/c =  1.0000   79

   2   rms: 0.2612E-01   max: -.1653E+00   D at   62  1
       a =  1.500      CL =  0.3777
      Cm = -0.0223     CD =  0.00703   =>   CDf =  0.00472    CDp =  0.00232

 Side 1  free  transition at x/c =  0.5775   54
 Side 2 forced transition at x/c =  1.0000   79

   3   rms: 0.5708E-02   max: -.1026E+00   C at   54  1
       a =  1.500      CL =  0.3778
      Cm = -0.0224     CD =  0.00708   =>   CDf =  0.00481    CDp =  0.00226

 Side 1  free  transition at x/c =  0.5801   54
 Side 2 forced transition at x/c =  1.0000   79

   4   rms: 0.9838E-04   max: -.1656E-02   D at   57  1
       a =  1.500      CL =  0.3778
      Cm = -0.0224     CD =  0.00708   =>   CDf =  0.00479    CDp =  0.00229
 plradd ia,ip,cpol           12           0  6.72692880E-02

 Point added to stored polar  1
 Point written to save file  vr13_Re500k.base.pol                            
 Dump file unspecified or not available
 Calculating wake trajectory ...
 Calculating source influence matrix ...

 Solving BL system ...

 Side 1  free  transition at x/c =  0.5800   54
 Side 2 forced transition at x/c =  1.0000   79

   1   rms: 0.2446E+00   max: 0.4413E+01   C at   54  1   RLX: 0.340
       a =  2.000      CL =  0.3965
      Cm = -0.0225     CD =  0.00736   =>   CDf =  0.00480    CDp =  0.00256

 Side 1  free  transition at x/c =  0.5137   49
 Side 2 forced transition at x/c =  1.0000   79

   2   rms: 0.1397E+00   max: 0.2529E+01   C at   49  1   RLX: 0.593
       a =  2.000      CL =  0.4179
      Cm = -0.0226     CD =  0.00768   =>   CDf =  0.00511    CDp =  0.00257

 Side 1  free  transition at x/c =  0.4394   44
 Side 2 forced transition at x/c =  1.0000   79

   3   rms: 0.3396E-01   max: 0.4766E+00   C at   44  1
       a =  2.000      CL =  0.4329
      Cm = -0.0229     CD =  0.00795   =>   CDf =  0.00546    CDp =  0.00249

 Side 1  free  transition at x/c =  0.3947   42
 Side 2 forced transition at x/c =  1.0000   78

   4   rms: 0.1228E-01   max: -.2162E+00   C at   42  1
       a =  2.000      CL =  0.4329
      Cm = -0.0230     CD =  0.00806   =>   CDf =  0.00567    CDp =  0.00239

 Side 1  free  transition at x/c =  0.4000   43
 Side 2 forced transition at x/c =  1.0000   78

   5   rms: 0.1010E-02   max: -.1103E-01   C at   43  1
       a =  2.000      CL =  0.4329
      Cm = -0.0230     CD =  0.00805   =>   CDf =  0.00564    CDp =  0.00241

 Side 1  free  transition at x/c =  0.3999   43
 Side 2 forced transition at x/c =  1.0000   78

   6   rms: 0.1656E-04   max: -.3252E-03   C at   43  1
       a =  2.000      CL =  0.4329
      Cm = -0.0230     CD =  0.00805   =>   CDf =  0.00564    CDp =  0.00241
 plradd ia,ip,cpol           13           0  6.72692880E-02

 Point added to stored polar  1
 Point written to save file  vr13_Re500k.base.pol                            
 Dump file unspecified or not available
 Calculating wake trajectory ...
 Calculating source influence matrix ...

 Solving BL system ...

 Side 1  free  transition at x/c =  0.3999   43
 Side 2 forced transition at x/c =  1.0000   78

   1   rms: 0.2706E+00   max: 0.5210E+01   C at   43  1   RLX: 0.288
       a =  2.500      CL =  0.4485
      Cm = -0.0231     CD =  0.00837   =>   CDf =  0.00564    CDp =  0.00273

 Side 1  free  transition at x/c =  0.3577   40
 Side 2 forced transition at x/c =  1.0000   78

   2   rms: 0.1267E+00   max: 0.2270E+01   C at   40  1   RLX: 0.661
       a =  2.500      CL =  0.4734
      Cm = -0.0232     CD =  0.00869   =>   CDf =  0.00586    CDp =  0.00283

 Side 1  free  transition at x/c =  0.3179   37
 Side 2 forced transition at x/c =  1.0000   78

   3   rms: 0.2384E-01   max: 0.1883E+00   C at   37  1
       a =  2.500      CL =  0.4862
      Cm = -0.0230     CD =  0.00873   =>   CDf =  0.00608    CDp =  0.00265

 Side 1  free  transition at x/c =  0.3038   36
 Side 2 forced transition at x/c =  1.0000   78

   4   rms: 0.3663E-02   max: -.7250E-01   C at   36  1
       a =  2.500      CL =  0.4861
      Cm = -0.0231     CD =  0.00876   =>   CDf =  0.00615    CDp =  0.00261

 Side 1  free  transition at x/c =  0.3051   36
 Side 2 forced transition at x/c =  1.0000   78

   5   rms: 0.8204E-04   max: 0.1462E-02   C at   36  1
       a =  2.500      CL =  0.4861
      Cm = -0.0231     CD =  0.00876   =>   CDf =  0.00614    CDp =  0.00262
 plradd ia,ip,cpol           14           0  6.72692880E-02

 Point added to stored polar  1
 Point written to save file  vr13_Re500k.base.pol                            
 Dump file unspecified or not available
 Calculating wake trajectory ...
 Calculating source influence matrix ...

 Solving BL system ...

 Side 1  free  transition at x/c =  0.3050   36
 Side 2 forced transition at x/c =  1.0000   78

   1   rms: 0.1067E+00   max: 0.1478E+01   C at   36  1
       a =  3.000      CL =  0.5388
      Cm = -0.0227     CD =  0.00915   =>   CDf =  0.00611    CDp =  0.00304

 Side 1  free  transition at x/c =  0.2641   35
 Side 2 forced transition at x/c =  1.0000   77

   2   rms: 0.1864E-01   max: -.2733E+00   D at   35  1
       a =  3.000      CL =  0.5381
      Cm = -0.0226     CD =  0.00919   =>   CDf =  0.00639    CDp =  0.00280

 Side 1  free  transition at x/c =  0.2664   35
 Side 2 forced transition at x/c =  1.0000   77

   3   rms: 0.3503E-02   max: 0.5963E-01   C at   35  1
       a =  3.000      CL =  0.5381
      Cm = -0.0226     CD =  0.00921   =>   CDf =  0.00635    CDp =  0.00285

 Side 1  free  transition at x/c =  0.2650   35
 Side 2 forced transition at x/c =  1.0000   77

   4   rms: 0.5300E-04   max: -.9822E-03   D at   36  1
       a =  3.000      CL =  0.5381
      Cm = -0.0226     CD =  0.00921   =>   CDf =  0.00637    CDp =  0.00284
 plradd ia,ip,cpol           15           0  6.72692880E-02

 Point added to stored polar  1
 Point written to save file  vr13_Re500k.base.pol                            
 Dump file unspecified or not available
 Calculating wake trajectory ...
 Calculating source influence matrix ...

 Solving BL system ...

 Side 1  free  transition at x/c =  0.2650   35
 Side 2 forced transition at x/c =  1.0000   77

   1   rms: 0.9896E-01   max: 0.8459E+00   C at   35  1   RLX: 0.920
       a =  3.500      CL =  0.5851
      Cm = -0.0221     CD =  0.00969   =>   CDf =  0.00637    CDp =  0.00332

 Side 1  free  transition at x/c =  0.2413   33
 Side 2 forced transition at x/c =  1.0000   77

   2   rms: 0.1917E-01   max: 0.2410E+00   D at   34  1
       a =  3.500      CL =  0.5891
      Cm = -0.0219     CD =  0.00960   =>   CDf =  0.00652    CDp =  0.00308

 Side 1  free  transition at x/c =  0.2390   33
 Side 2 forced transition at x/c =  1.0000   77

   3   rms: 0.1091E-02   max: 0.1651E-01   C at   33  1
       a =  3.500      CL =  0.5891
      Cm = -0.0219     CD =  0.00959   =>   CDf =  0.00651    CDp =  0.00308

 Side 1  free  transition at x/c =  0.2385   33
 Side 2 forced transition at x/c =  1.0000   77

   4   rms: 0.7900E-05   max: -.9132E-04   D at   33  1
       a =  3.500      CL =  0.5891
      Cm = -0.0219     CD =  0.00959   =>   CDf =  0.00651    CDp =  0.00308
 plradd ia,ip,cpol           16           0  6.72692880E-02

 Point added to stored polar  1
 Point written to save file  vr13_Re500k.base.pol                            
 Dump file unspecified or not available
 Calculating wake trajectory ...
 Calculating source influence matrix ...

 Solving BL system ...

 Side 1  free  transition at x/c =  0.2385   33
 Side 2 forced transition at x/c =  1.0000   77

   1   rms: 0.8720E-01   max: 0.5038E+00   C at   33  1
       a =  4.000      CL =  0.6398
      Cm = -0.0212     CD =  0.00999   =>   CDf =  0.00645    CDp =  0.00355

 Side 1  free  transition at x/c =  0.2196   33
 Side 2 forced transition at x/c =  1.0000   76

   2   rms: 0.2613E-01   max: -.3367E+00   D at   33  1
       a =  4.000      CL =  0.6399
      Cm = -0.0211     CD =  0.00992   =>   CDf =  0.00660    CDp =  0.00332

 Side 1  free  transition at x/c =  0.2194   33
 Side 2 forced transition at x/c =  1.0000   76

   3   rms: 0.3652E-02   max: 0.3697E-01   C at   33  1
       a =  4.000      CL =  0.6396
      Cm = -0.0211     CD =  0.01000   =>   CDf =  0.00661    CDp =  0.00338

 Side 1  free  transition at x/c =  0.2183   33
 Side 2 forced transition at x/c =  1.0000   76

   4   rms: 0.6553E-04   max: -.1263E-02   D at   34  1
       a =  4.000      CL =  0.6396
      Cm = -0.0211     CD =  0.01000   =>   CDf =  0.00663    CDp =  0.00337
 plradd ia,ip,cpol           17           0  6.72692880E-02

 Point added to stored polar  1
 Point written to save file  vr13_Re500k.base.pol                            
 Dump file unspecified or not available
 Calculating wake trajectory ...
 Calculating source influence matrix ...

 Solving BL system ...

 Side 1  free  transition at x/c =  0.2183   33
 Side 2 forced transition at x/c =  1.0000   76

   1   rms: 0.8977E-01   max: -.5023E+00   D at   33  1   RLX: 0.996
       a =  4.500      CL =  0.6890
      Cm = -0.0202     CD =  0.01058   =>   CDf =  0.00663    CDp =  0.00395

 Side 1  free  transition at x/c =  0.2026   32
 Side 2 forced transition at x/c =  1.0000   76

   2   rms: 0.1902E-01   max: 0.2684E+00   D at   32  1
       a =  4.500      CL =  0.6895
      Cm = -0.0202     CD =  0.01043   =>   CDf =  0.00672    CDp =  0.00371

 Side 1  free  transition at x/c =  0.2021   32
 Side 2 forced transition at x/c =  1.0000   76

   3   rms: 0.2729E-02   max: -.4110E-01   D at   33  1
       a =  4.500      CL =  0.6895
      Cm = -0.0202     CD =  0.01044   =>   CDf =  0.00671    CDp =  0.00372

 Side 1  free  transition at x/c =  0.2014   32
 Side 2 forced transition at x/c =  1.0000   76

   4   rms: 0.1923E-03   max: -.2358E-02   D at   32  1
       a =  4.500      CL =  0.6894
      Cm = -0.0202     CD =  0.01044   =>   CDf =  0.00672    CDp =  0.00371

 Side 1  free  transition at x/c =  0.2013   31
 Side 2 forced transition at x/c =  1.0000   76

   5   rms: 0.1332E-03   max: -.1984E-02   C at   31  1
       a =  4.500      CL =  0.6894
      Cm = -0.0202     CD =  0.01044   =>   CDf =  0.00673    CDp =  0.00371

 Side 1  free  transition at x/c =  0.2013   31
 Side 2 forced transition at x/c =  1.0000   76

   6   rms: 0.1460E-05   max: 0.1107E-04   D at    4  2
       a =  4.500      CL =  0.6894
      Cm = -0.0202     CD =  0.01044   =>   CDf =  0.00673    CDp =  0.00371
 plradd ia,ip,cpol           18           0  2.91299336E-02

 Point added to stored polar  1
 Point written to save file  vr13_Re500k.base.pol                            
 Dump file unspecified or not available
 Calculating wake trajectory ...
 Calculating source influence matrix ...

 Solving BL system ...

 Side 1  free  transition at x/c =  0.2013   31
 Side 2 forced transition at x/c =  1.0000   76

   1   rms: 0.8049E-01   max: -.4652E+00   C at   31  1
       a =  5.000      CL =  0.7406
      Cm = -0.0193     CD =  0.01059   =>   CDf =  0.00663    CDp =  0.00396

 Side 1  free  transition at x/c =  0.1854   31
 Side 2 forced transition at x/c =  1.0000   75

   2   rms: 0.1185E-01   max: -.1026E+00   D at   31  1
       a =  5.000      CL =  0.7390
      Cm = -0.0192     CD =  0.01084   =>   CDf =  0.00679    CDp =  0.00405

 Side 1  free  transition at x/c =  0.1861   31
 Side 2 forced transition at x/c =  1.0000   75

   3   rms: 0.7964E-03   max: 0.6363E-02   D at    4  2
       a =  5.000      CL =  0.7390
      Cm = -0.0192     CD =  0.01085   =>   CDf =  0.00677    CDp =  0.00408

 Side 1  free  transition at x/c =  0.1860   31
 Side 2 forced transition at x/c =  1.0000   75

   4   rms: 0.1466E-05   max: 0.1174E-04   D at    9  2
       a =  5.000      CL =  0.7390
      Cm = -0.0192     CD =  0.01085   =>   CDf =  0.00677    CDp =  0.00408
 plradd ia,ip,cpol           19           0  2.91299336E-02

 Point added to stored polar  1
 Point written to save file  vr13_Re500k.base.pol                            
 Dump file unspecified or not available
 Calculating wake trajectory ...
 Calculating source influence matrix ...

 Solving BL system ...

 Side 1  free  transition at x/c =  0.1860   31
 Side 2 forced transition at x/c =  1.0000   75

   1   rms: 0.7881E-01   max: -.8653E-01   D at   71  2
       a =  5.500      CL =  0.7897
      Cm = -0.0182     CD =  0.01106   =>   CDf =  0.00666    CDp =  0.00441

 Side 1  free  transition at x/c =  0.1742   32
 Side 2 forced transition at x/c =  1.0000   74

   2   rms: 0.4863E-02   max: -.5641E-01   D at   32  1
       a =  5.500      CL =  0.7881
      Cm = -0.0181     CD =  0.01129   =>   CDf =  0.00680    CDp =  0.00449

 Side 1  free  transition at x/c =  0.1739   32
 Side 2 forced transition at x/c =  1.0000   74

   3   rms: 0.9566E-03   max: -.1003E-01   D at    4  1
       a =  5.500      CL =  0.7881
      Cm = -0.0181     CD =  0.01129   =>   CDf =  0.00680    CDp =  0.00450

 Side 1  free  transition at x/c =  0.1738   32
 Side 2 forced transition at x/c =  1.0000   74

   4   rms: 0.1598E-05   max: 0.1749E-04   D at    8  1
       a =  5.500      CL =  0.7881
      Cm = -0.0181     CD =  0.01129   =>   CDf =  0.00680    CDp =  0.00450
 plradd ia,ip,cpol           20           0  2.91299336E-02

 Point added to stored polar  1
 Point written to save file  vr13_Re500k.base.pol                            
 Dump file unspecified or not available
 Calculating wake trajectory ...
 Calculating source influence matrix ...

 Solving BL system ...

 Side 1  free  transition at x/c =  0.1738   32
 Side 2 forced transition at x/c =  1.0000   74

   1   rms: 0.8636E-01   max: 0.9248E-01   D at   88  2
       a =  6.000      CL =  0.8351
      Cm = -0.0168     CD =  0.01210   =>   CDf =  0.00680    CDp =  0.00531

 Side 1  free  transition at x/c =  0.1626   31
 Side 2 forced transition at x/c =  1.0000   74

   2   rms: 0.5080E-01   max: -.4725E+00   D at   31  1
       a =  6.000      CL =  0.8373
      Cm = -0.0170     CD =  0.01159   =>   CDf =  0.00678    CDp =  0.00480

 Side 1  free  transition at x/c =  0.1650   31
 Side 2 forced transition at x/c =  1.0000   74

   3   rms: 0.6718E-02   max: 0.7233E-01   C at   31  1
       a =  6.000      CL =  0.8371
      Cm = -0.0170     CD =  0.01172   =>   CDf =  0.00676    CDp =  0.00496

 Side 1  free  transition at x/c =  0.1635   31
 Side 2 forced transition at x/c =  1.0000   74

   4   rms: 0.3602E-03   max: -.6347E-02   D at   32  1
       a =  6.000      CL =  0.8371
      Cm = -0.0170     CD =  0.01172   =>   CDf =  0.00678    CDp =  0.00495

 Side 1  free  transition at x/c =  0.1634   31
 Side 2 forced transition at x/c =  1.0000   74

   5   rms: 0.1315E-05   max: -.2098E-04   D at   32  1
       a =  6.000      CL =  0.8371
      Cm = -0.0170     CD =  0.01172   =>   CDf =  0.00678    CDp =  0.00494
 plradd ia,ip,cpol           21           0  2.91299336E-02

 Point added to stored polar  1
 Point written to save file  vr13_Re500k.base.pol                            
 Dump file unspecified or not available
 Calculating wake trajectory ...
 Calculating source influence matrix ...

 Solving BL system ...

 Side 1  free  transition at x/c =  0.1634   31
 Side 2 forced transition at x/c =  1.0000   74

   1   rms: 0.8094E-01   max: -.3674E+00   D at   31  1
       a =  6.500      CL =  0.8852
      Cm = -0.0158     CD =  0.01226   =>   CDf =  0.00663    CDp =  0.00563

 Side 1  free  transition at x/c =  0.1545   31
 Side 2 forced transition at x/c =  1.0000   73

   2   rms: 0.2150E-01   max: -.1968E+00   D at   32  1
       a =  6.500      CL =  0.8852
      Cm = -0.0157     CD =  0.01220   =>   CDf =  0.00678    CDp =  0.00542

 Side 1  free  transition at x/c =  0.1538   31
 Side 2 forced transition at x/c =  1.0000   73

   3   rms: 0.1221E-02   max: -.1628E-01   D at   32  1
       a =  6.500      CL =  0.8851
      Cm = -0.0157     CD =  0.01224   =>   CDf =  0.00677    CDp =  0.00547

 Side 1  free  transition at x/c =  0.1536   31
 Side 2 forced transition at x/c =  1.0000   73

   4   rms: 0.1048E-04   max: -.1760E-03   D at   32  1
       a =  6.500      CL =  0.8851
      Cm = -0.0157     CD =  0.01224   =>   CDf =  0.00677    CDp =  0.00547
 plradd ia,ip,cpol           22           0  1.28387883E-02

 Point added to stored polar  1
 Point written to save file  vr13_Re500k.base.pol                            
 Dump file unspecified or not available
 Calculating wake trajectory ...
 Calculating source influence matrix ...

 Solving BL system ...

 Side 1  free  transition at x/c =  0.1536   31
 Side 2 forced transition at x/c =  1.0000   73

   1   rms: 0.7661E-01   max: -.8066E-01   D at   70  2
       a =  7.000      CL =  0.9339
      Cm = -0.0146     CD =  0.01264   =>   CDf =  0.00677    CDp =  0.00587

 Side 1  free  transition at x/c =  0.1451   31
 Side 2 forced transition at x/c =  1.0000   73

   2   rms: 0.2283E-02   max: -.2624E-01   D at   31  1
       a =  7.000      CL =  0.9320
      Cm = -0.0144     CD =  0.01286   =>   CDf =  0.00679    CDp =  0.00607

 Side 1  free  transition at x/c =  0.1448   31
 Side 2 forced transition at x/c =  1.0000   73

   3   rms: 0.7351E-04   max: -.9005E-03   D at   31  1
       a =  7.000      CL =  0.9320
      Cm = -0.0144     CD =  0.01286   =>   CDf =  0.00680    CDp =  0.00606
 plradd ia,ip,cpol           23           0  9.46893077E-03

 Point added to stored polar  1
 Point written to save file  vr13_Re500k.base.pol                            
 Dump file unspecified or not available
 Calculating wake trajectory ...
 Calculating source influence matrix ...

 Solving BL system ...

 Side 1  free  transition at x/c =  0.1448   31
 Side 2 forced transition at x/c =  1.0000   73

   1   rms: 0.8520E-01   max: 0.1093E+00   D at   87  2
       a =  7.500      CL =  0.9755
      Cm = -0.0125     CD =  0.01397   =>   CDf =  0.00661    CDp =  0.00735

 Side 1  free  transition at x/c =  0.1364   31
 Side 2 forced transition at x/c =  1.0000   72

   2   rms: 0.5147E-01   max: -.4567E+00   D at   31  1
       a =  7.500      CL =  0.9789
      Cm = -0.0129     CD =  0.01325   =>   CDf =  0.00671    CDp =  0.00654

 Side 1  free  transition at x/c =  0.1389   31
 Side 2 forced transition at x/c =  1.0000   72

   3   rms: 0.5404E-02   max: 0.5603E-01   D at   31  1
       a =  7.500      CL =  0.9799
      Cm = -0.0131     CD =  0.01333   =>   CDf =  0.00668    CDp =  0.00665

 Side 1  free  transition at x/c =  0.1380   31
 Side 2 forced transition at x/c =  1.0000   72

   4   rms: 0.1365E-03   max: -.2225E-02   D at   32  1
       a =  7.500      CL =  0.9798
      Cm = -0.0131     CD =  0.01333   =>   CDf =  0.00669    CDp =  0.00664

 Side 1  free  transition at x/c =  0.1380   31
 Side 2 forced transition at x/c =  1.0000   72

   5   rms: 0.9848E-06   max: -.3557E-05   D at   32  1
       a =  7.500      CL =  0.9798
      Cm = -0.0131     CD =  0.01333   =>   CDf =  0.00669    CDp =  0.00664
 plradd ia,ip,cpol           24           0  9.46893077E-03

 Point added to stored polar  1
 Point written to save file  vr13_Re500k.base.pol                            
 Dump file unspecified or not available
 Calculating wake trajectory ...
 Calculating source influence matrix ...

 Solving BL system ...

 Side 1  free  transition at x/c =  0.1380   31
 Side 2 forced transition at x/c =  1.0000   72

   1   rms: 0.7653E-01   max: 0.2888E+00   T at   31  1
       a =  8.000      CL =  1.0277
      Cm = -0.0118     CD =  0.01377   =>   CDf =  0.00669    CDp =  0.00709

 Side 1  free  transition at x/c =  0.1293   30
 Side 2 forced transition at x/c =  1.0000   72

   2   rms: 0.9018E-02   max: -.6142E-01   D at   30  1
       a =  8.000      CL =  1.0255
      Cm = -0.0116     CD =  0.01399   =>   CDf =  0.00670    CDp =  0.00729

 Side 1  free  transition at x/c =  0.1293   30
 Side 2 forced transition at x/c =  1.0000   72

   3   rms: 0.1184E-03   max: 0.1641E-02   D at   30  1
       a =  8.000      CL =  1.0255
      Cm = -0.0116     CD =  0.01400   =>   CDf =  0.00669    CDp =  0.00730

 Side 1  free  transition at x/c =  0.1293   30
 Side 2 forced transition at x/c =  1.0000   72

   4   rms: 0.9520E-06   max: 0.8921E-05   D at    4  2
       a =  8.000      CL =  1.0255
      Cm = -0.0116     CD =  0.01400   =>   CDf =  0.00669    CDp =  0.00730
 plradd ia,ip,cpol           25           0  6.83289580E-03

 Point added to stored polar  1
 Point written to save file  vr13_Re500k.base.pol                            
 Dump file unspecified or not available
 Calculating wake trajectory ...
 Calculating source influence matrix ...

 Solving BL system ...

 Side 1  free  transition at x/c =  0.1293   30
 Side 2 forced transition at x/c =  1.0000   72

   1   rms: 0.7646E-01   max: -.3740E+00   C at   30  1
       a =  8.500      CL =  1.0744
      Cm = -0.0105     CD =  0.01429   =>   CDf =  0.00647    CDp =  0.00781

 Side 1  free  transition at x/c =  0.1203   31
 Side 2 forced transition at x/c =  1.0000   71

   2   rms: 0.1602E-01   max: -.1787E+00   D at   31  1
       a =  8.500      CL =  1.0730
      Cm = -0.0103     CD =  0.01440   =>   CDf =  0.00659    CDp =  0.00781

 Side 1  free  transition at x/c =  0.1212   31
 Side 2 forced transition at x/c =  1.0000   71

   3   rms: 0.9302E-03   max: 0.3926E-02   D at    4  2
       a =  8.500      CL =  1.0729
      Cm = -0.0103     CD =  0.01442   =>   CDf =  0.00659    CDp =  0.00783

 Side 1  free  transition at x/c =  0.1211   31
 Side 2 forced transition at x/c =  1.0000   71

   4   rms: 0.2961E-05   max: -.1506E-04   D at   31  1
       a =  8.500      CL =  1.0729
      Cm = -0.0103     CD =  0.01442   =>   CDf =  0.00659    CDp =  0.00783
 plradd ia,ip,cpol           26           0  6.83289580E-03

 Point added to stored polar  1
 Point written to save file  vr13_Re500k.base.pol                            
 Dump file unspecified or not available
 Calculating wake trajectory ...
 Calculating source influence matrix ...

 Solving BL system ...

 Side 1  free  transition at x/c =  0.1211   31
 Side 2 forced transition at x/c =  1.0000   71

   1   rms: 0.7877E-01   max: -.3925E+00   D at   31  1
       a =  9.000      CL =  1.1182
      Cm = -0.0088     CD =  0.01508   =>   CDf =  0.00659    CDp =  0.00849

 Side 1  free  transition at x/c =  0.1131   30
 Side 2 forced transition at x/c =  1.0000   71

   2   rms: 0.2679E-01   max: -.2235E+00   D at   31  1
       a =  9.000      CL =  1.1186
      Cm = -0.0089     CD =  0.01495   =>   CDf =  0.00651    CDp =  0.00844

 Side 1  free  transition at x/c =  0.1126   30
 Side 2 forced transition at x/c =  1.0000   71

   3   rms: 0.1352E-02   max: -.2113E-01   D at   31  1
       a =  9.000      CL =  1.1185
      Cm = -0.0088     CD =  0.01502   =>   CDf =  0.00651    CDp =  0.00852

 Side 1  free  transition at x/c =  0.1123   30
 Side 2 forced transition at x/c =  1.0000   71

   4   rms: 0.2048E-04   max: -.3141E-03   D at   31  1
       a =  9.000      CL =  1.1185
      Cm = -0.0088     CD =  0.01502   =>   CDf =  0.00651    CDp =  0.00851
 plradd ia,ip,cpol           27           0  4.78254631E-03

 Point added to stored polar  1
 Point written to save file  vr13_Re500k.base.pol                            
 Dump file unspecified or not available
 Calculating wake trajectory ...
 Calculating source influence matrix ...

 Solving BL system ...

 Side 1  free  transition at x/c =  0.1123   30
 Side 2 forced transition at x/c =  1.0000   71

   1   rms: 0.7685E-01   max: 0.3099E+00   T at   30  1
       a =  9.500      CL =  1.1658
      Cm = -0.0076     CD =  0.01543   =>   CDf =  0.00626    CDp =  0.00917

 Side 1  free  transition at x/c =  0.1024   30
 Side 2 forced transition at x/c =  1.0000   70

   2   rms: 0.1440E-01   max: -.1091E+00   C at   30  1
       a =  9.500      CL =  1.1629
      Cm = -0.0073     CD =  0.01567   =>   CDf =  0.00647    CDp =  0.00920

 Side 1  free  transition at x/c =  0.1020   30
 Side 2 forced transition at x/c =  1.0000   70

   3   rms: 0.9512E-03   max: -.8523E-02   D at    4  1
       a =  9.500      CL =  1.1628
      Cm = -0.0073     CD =  0.01570   =>   CDf =  0.00646    CDp =  0.00923

 Side 1  free  transition at x/c =  0.1019   30
 Side 2 forced transition at x/c =  1.0000   70

   4   rms: 0.1793E-05   max: -.1816E-04   D at   31  1
       a =  9.500      CL =  1.1628
      Cm = -0.0073     CD =  0.01570   =>   CDf =  0.00646    CDp =  0.00923
 plradd ia,ip,cpol           28           0  4.78254631E-03

 Point added to stored polar  1
 Point written to save file  vr13_Re500k.base.pol                            
 Dump file unspecified or not available
 Calculating wake trajectory ...
 Calculating source influence matrix ...

 Solving BL system ...

 Side 1  free  transition at x/c =  0.1019   30
 Side 2 forced transition at x/c =  1.0000   70

   1   rms: 0.7813E-01   max: -.4273E+00   C at   30  1
       a = 10.000      CL =  1.2107
      Cm = -0.0061     CD =  0.01603   =>   CDf =  0.00646    CDp =  0.00957

 Side 1  free  transition at x/c =  0.0894   29
 Side 2 forced transition at x/c =  1.0000   70

   2   rms: 0.1201E-01   max: -.1357E+00   C at   29  1
       a = 10.000      CL =  1.2069
      Cm = -0.0057     CD =  0.01635   =>   CDf =  0.00642    CDp =  0.00993

 Side 1  free  transition at x/c =  0.0895   29
 Side 2 forced transition at x/c =  1.0000   70

   3   rms: 0.6110E-03   max: -.5232E-02   D at   30  1
       a = 10.000      CL =  1.2068
      Cm = -0.0057     CD =  0.01637   =>   CDf =  0.00641    CDp =  0.00996

 Side 1  free  transition at x/c =  0.0893   29
 Side 2 forced transition at x/c =  1.0000   70

   4   rms: 0.3411E-05   max: -.3331E-04   C at   29  1
       a = 10.000      CL =  1.2068
      Cm = -0.0057     CD =  0.01637   =>   CDf =  0.00641    CDp =  0.00996
 plradd ia,ip,cpol           29           0  3.20670102E-03

 Point added to stored polar  1
 Point written to save file  vr13_Re500k.base.pol                            
 Dump file unspecified or not available

.OPERva   c>  
 Solving BL system ...

 Side 1  free  transition at x/c =  0.0893   29
 Side 2 forced transition at x/c =  1.0000   70

   1   rms: 0.4378E-06   max: 0.4014E-05   C at   29  1
       a = 10.000      CL =  1.2068
      Cm = -0.0057     CD =  0.01637   =>   CDf =  0.00641    CDp =  0.00996
 plradd ia,ip,cpol           30         182  3.20670102E-03

 Point added to stored polar  1
 Point written to save file  vr13_Re500k.base.pol                            
 Dump file unspecified or not available
 Calculating wake trajectory ...
 Calculating source influence matrix ...

 Solving BL system ...

 Side 1  free  transition at x/c =  0.0893   29
 Side 2 forced transition at x/c =  1.0000   70

   1   rms: 0.3987E-01   max: -.2557E+00   C at   29  1
       a = 10.250      CL =  1.2304
      Cm = -0.0050     CD =  0.01657   =>   CDf =  0.00612    CDp =  0.01045

 Side 1  free  transition at x/c =  0.0819   30
 Side 2 forced transition at x/c =  1.0000   69

   2   rms: 0.9911E-02   max: -.1604E+00   T at    2  1
       a = 10.250      CL =  1.2286
      Cm = -0.0048     CD =  0.01671   =>   CDf =  0.00637    CDp =  0.01034

 Side 1  free  transition at x/c =  0.0822   30
 Side 2 forced transition at x/c =  1.0000   69

   3   rms: 0.1252E-02   max: -.1571E-01   D at    4  1
       a = 10.250      CL =  1.2286
      Cm = -0.0048     CD =  0.01671   =>   CDf =  0.00637    CDp =  0.01034

 Side 1  free  transition at x/c =  0.0821   30
 Side 2 forced transition at x/c =  1.0000   69

   4   rms: 0.2815E-05   max: 0.2619E-04   D at    6  1
       a = 10.250      CL =  1.2286
      Cm = -0.0048     CD =  0.01671   =>   CDf =  0.00637    CDp =  0.01034
 plradd ia,ip,cpol           31           0  3.20670102E-03

 Point added to stored polar  1
 Point written to save file  vr13_Re500k.base.pol                            
 Dump file unspecified or not available
 Calculating wake trajectory ...
 Calculating source influence matrix ...

 Solving BL system ...

 Side 1  free  transition at x/c =  0.0821   30
 Side 2 forced transition at x/c =  1.0000   69

   1   rms: 0.4284E-01   max: -.3115E+00   D at   30  1
       a = 10.500      CL =  1.2489
      Cm = -0.0039     CD =  0.01722   =>   CDf =  0.00637    CDp =  0.01085

 Side 1  free  transition at x/c =  0.0759   29
 Side 2 forced transition at x/c =  1.0000   69

   2   rms: 0.9670E-02   max: -.9283E-01   D at   30  1
       a = 10.500      CL =  1.2490
      Cm = -0.0038     CD =  0.01716   =>   CDf =  0.00634    CDp =  0.01082

 Side 1  free  transition at x/c =  0.0755   29
 Side 2 forced transition at x/c =  1.0000   69

   3   rms: 0.3352E-03   max: 0.4188E-02   C at   29  1
       a = 10.500      CL =  1.2489
      Cm = -0.0038     CD =  0.01719   =>   CDf =  0.00635    CDp =  0.01084

 Side 1  free  transition at x/c =  0.0754   29
 Side 2 forced transition at x/c =  1.0000   69

   4   rms: 0.1311E-05   max: -.1033E-04   D at   30  1
       a = 10.500      CL =  1.2489
      Cm = -0.0038     CD =  0.01719   =>   CDf =  0.00635    CDp =  0.01084
 plradd ia,ip,cpol           32           0  3.20670102E-03

 Point added to stored polar  1
 Point written to save file  vr13_Re500k.base.pol                            
 Dump file unspecified or not available
 Calculating wake trajectory ...
 Calculating source influence matrix ...

 Solving BL system ...

 Side 1  free  transition at x/c =  0.0754   29
 Side 2 forced transition at x/c =  1.0000   69

   1   rms: 0.3861E-01   max: -.1774E+00   D at   29  1
       a = 10.750      CL =  1.2699
      Cm = -0.0029     CD =  0.01762   =>   CDf =  0.00635    CDp =  0.01127

 Side 1  free  transition at x/c =  0.0678   29
 Side 2 forced transition at x/c =  1.0000   69

   2   rms: 0.2640E-02   max: 0.2433E-01   D at   29  1
       a = 10.750      CL =  1.2680
      Cm = -0.0027     CD =  0.01775   =>   CDf =  0.00639    CDp =  0.01136

 Side 1  free  transition at x/c =  0.0681   29
 Side 2 forced transition at x/c =  1.0000   69

   3   rms: 0.1033E-03   max: -.1744E-02   D at   29  1
       a = 10.750      CL =  1.2680
      Cm = -0.0027     CD =  0.01775   =>   CDf =  0.00638    CDp =  0.01137

 Side 1  free  transition at x/c =  0.0681   29
 Side 2 forced transition at x/c =  1.0000   69

   4   rms: 0.1070E-05   max: -.5153E-05   D at   29  1
       a = 10.750      CL =  1.2680
      Cm = -0.0027     CD =  0.01775   =>   CDf =  0.00638    CDp =  0.01137
 plradd ia,ip,cpol           33           0  5.05074713E-05

 Point added to stored polar  1
 Point written to save file  vr13_Re500k.base.pol                            
 Dump file unspecified or not available
 Calculating wake trajectory ...
 Calculating source influence matrix ...

 Solving BL system ...

 Side 1  free  transition at x/c =  0.0681   29
 Side 2 forced transition at x/c =  1.0000   69

   1   rms: 0.4513E-01   max: -.2840E+00   D at   29  1
       a = 11.000      CL =  1.2846
      Cm = -0.0013     CD =  0.01861   =>   CDf =  0.00638    CDp =  0.01223

 Side 1  free  transition at x/c =  0.0621   28
 Side 2 forced transition at x/c =  1.0000   69

   2   rms: 0.2400E-01   max: -.2793E+00   D at   28  1
       a = 11.000      CL =  1.2879
      Cm = -0.0016     CD =  0.01820   =>   CDf =  0.00630    CDp =  0.01190

 Side 1  free  transition at x/c =  0.0629   28
 Side 2 forced transition at x/c =  1.0000   69

   3   rms: 0.2284E-02   max: 0.3188E-01   C at   28  1
       a = 11.000      CL =  1.2871
      Cm = -0.0016     CD =  0.01830   =>   CDf =  0.00633    CDp =  0.01197

 Side 1  free  transition at x/c =  0.0626   28
 Side 2 forced transition at x/c =  1.0000   69

   4   rms: 0.2774E-04   max: -.2484E-03   D at   29  1
       a = 11.000      CL =  1.2871
      Cm = -0.0015     CD =  0.01830   =>   CDf =  0.00634    CDp =  0.01197
 plradd ia,ip,cpol           34           0  5.05074713E-05

 Point added to stored polar  1
 Point written to save file  vr13_Re500k.base.pol                            
 Dump file unspecified or not available
 Calculating wake trajectory ...
 Calculating source influence matrix ...

 Solving BL system ...

 Side 1  free  transition at x/c =  0.0626   28
 Side 2 forced transition at x/c =  1.0000   69

   1   rms: 0.4095E-01   max: -.2322E+00   D at   28  1
       a = 11.250      CL =  1.3055
      Cm = -0.0004     CD =  0.01896   =>   CDf =  0.00634    CDp =  0.01262

 Side 1  free  transition at x/c =  0.0569   28
 Side 2 forced transition at x/c =  1.0000   69

   2   rms: 0.4618E-02   max: -.3789E-01   D at   28  1
       a = 11.250      CL =  1.3023
      Cm =  0.0001     CD =  0.01918   =>   CDf =  0.00635    CDp =  0.01282

 Side 1  free  transition at x/c =  0.0562   27
 Side 2 forced transition at x/c =  1.0000   69

   3   rms: 0.3240E-02   max: -.3941E-01   C at   27  1
       a = 11.250      CL =  1.3029
      Cm = -0.0000     CD =  0.01912   =>   CDf =  0.00637    CDp =  0.01275

 Side 1  free  transition at x/c =  0.0564   27
 Side 2 forced transition at x/c =  1.0000   69

   4   rms: 0.3442E-04   max: 0.2638E-03   T at   27  1
       a = 11.250      CL =  1.3030
      Cm = -0.0000     CD =  0.01912   =>   CDf =  0.00637    CDp =  0.01275
 plradd ia,ip,cpol           35           0  5.05074713E-05

 Point added to stored polar  1
 Point written to save file  vr13_Re500k.base.pol                            
 Dump file unspecified or not available
 Calculating wake trajectory ...
 Calculating source influence matrix ...

 Solving BL system ...

 Side 1  free  transition at x/c =  0.0564   27
 Side 2 forced transition at x/c =  1.0000   69

   1   rms: 0.3856E-01   max: -.2449E+00   C at   27  1
       a = 11.500      CL =  1.3231
      Cm =  0.0010     CD =  0.01959   =>   CDf =  0.00637    CDp =  0.01322

 Side 1  free  transition at x/c =  0.0525   27
 Side 2 forced transition at x/c =  1.0000   69

   2   rms: 0.2599E-02   max: -.2824E-01   D at   27  1
       a = 11.500      CL =  1.3209
      Cm =  0.0012     CD =  0.01973   =>   CDf =  0.00628    CDp =  0.01345

 Side 1  free  transition at x/c =  0.0524   27
 Side 2 forced transition at x/c =  1.0000   69

   3   rms: 0.2353E-04   max: 0.1068E-03   T at   28  1
       a = 11.500      CL =  1.3209
      Cm =  0.0012     CD =  0.01973   =>   CDf =  0.00628    CDp =  0.01345
 plradd ia,ip,cpol           36           0  5.05074713E-05

 Point added to stored polar  1
 Point written to save file  vr13_Re500k.base.pol                            
 Dump file unspecified or not available
 Calculating wake trajectory ...
 Calculating source influence matrix ...

 Solving BL system ...

 Side 1  free  transition at x/c =  0.0524   27
 Side 2 forced transition at x/c =  1.0000   69

   1   rms: 0.4078E-01   max: -.2118E+00   D at   27  1
       a = 11.750      CL =  1.3371
      Cm =  0.0026     CD =  0.02053   =>   CDf =  0.00593    CDp =  0.01460

 Side 1  free  transition at x/c =  0.0478   28
 Side 2 forced transition at x/c =  1.0000   68

   2   rms: 0.5624E-02   max: -.4701E-01   T at    2  1
       a = 11.750      CL =  1.3335
      Cm =  0.0031     CD =  0.02075   =>   CDf =  0.00626    CDp =  0.01449

 Side 1  free  transition at x/c =  0.0474   28
 Side 2 forced transition at x/c =  1.0000   68

   3   rms: 0.9458E-03   max: -.1098E-01   D at    4  1
       a = 11.750      CL =  1.3334
      Cm =  0.0031     CD =  0.02076   =>   CDf =  0.00627    CDp =  0.01448

 Side 1  free  transition at x/c =  0.0474   28
 Side 2 forced transition at x/c =  1.0000   68

   4   rms: 0.2215E-05   max: -.7713E-05   T at   28  1
       a = 11.750      CL =  1.3334
      Cm =  0.0031     CD =  0.02076   =>   CDf =  0.00627    CDp =  0.01448
 plradd ia,ip,cpol           37           0  5.05074713E-05

 Point added to stored polar  1
 Point written to save file  vr13_Re500k.base.pol                            
 Dump file unspecified or not available
 Calculating wake trajectory ...
 Calculating source influence matrix ...

 Solving BL system ...

 Side 1  free  transition at x/c =  0.0474   28
 Side 2 forced transition at x/c =  1.0000   68

   1   rms: 0.5186E-01   max: 0.1545E+00   T at   28  1
       a = 12.000      CL =  1.3400
      Cm =  0.0058     CD =  0.02233   =>   CDf =  0.00627    CDp =  0.01606

 Side 1  free  transition at x/c =  0.0434   27
 Side 2 forced transition at x/c =  1.0000   68

   2   rms: 0.4175E-01   max: -.3953E+00   D at   27  1
       a = 12.000      CL =  1.3491
      Cm =  0.0047     CD =  0.02132   =>   CDf =  0.00611    CDp =  0.01521

 Side 1  free  transition at x/c =  0.0449   27
 Side 2 forced transition at x/c =  1.0000   68

   3   rms: 0.4411E-02   max: 0.4519E-01   D at   27  1
       a = 12.000      CL =  1.3497
      Cm =  0.0046     CD =  0.02144   =>   CDf =  0.00617    CDp =  0.01527

 Side 1  free  transition at x/c =  0.0443   27
 Side 2 forced transition at x/c =  1.0000   68

   4   rms: 0.1163E-03   max: -.4306E-03   D at   27  1
       a = 12.000      CL =  1.3496
      Cm =  0.0046     CD =  0.02144   =>   CDf =  0.00617    CDp =  0.01527

 Side 1  free  transition at x/c =  0.0443   27
 Side 2 forced transition at x/c =  1.0000   68

   5   rms: 0.1091E-05   max: 0.8890E-05   C at   68  2
       a = 12.000      CL =  1.3496
      Cm =  0.0046     CD =  0.02144   =>   CDf =  0.00617    CDp =  0.01527
 plradd ia,ip,cpol           38           0  5.05074713E-05

 Point added to stored polar  1
 Point written to save file  vr13_Re500k.base.pol                            
 Dump file unspecified or not available
 Calculating wake trajectory ...
 Calculating source influence matrix ...

 Solving BL system ...

 Side 1  free  transition at x/c =  0.0443   27
 Side 2 forced transition at x/c =  1.0000   68

   1   rms: 0.3723E-01   max: 0.1699E+00   T at   27  1
       a = 12.250      CL =  1.3669
      Cm =  0.0058     CD =  0.02208   =>   CDf =  0.00617    CDp =  0.01591

 Side 1  free  transition at x/c =  0.0407   27
 Side 2 forced transition at x/c =  1.0000   68

   2   rms: 0.4870E-02   max: -.4579E-01   D at   27  1
       a = 12.250      CL =  1.3648
      Cm =  0.0061     CD =  0.02216   =>   CDf =  0.00610    CDp =  0.01606

 Side 1  free  transition at x/c =  0.0410   27
 Side 2 forced transition at x/c =  1.0000   68

   3   rms: 0.7847E-04   max: -.4712E-03   D at   27  1
       a = 12.250      CL =  1.3648
      Cm =  0.0061     CD =  0.02216   =>   CDf =  0.00610    CDp =  0.01606
 plradd ia,ip,cpol           39           0  5.05074713E-05

 Point added to stored polar  1
 Point written to save file  vr13_Re500k.base.pol                            
 Dump file unspecified or not available
 Calculating wake trajectory ...
 Calculating source influence matrix ...

 Solving BL system ...

 Side 1  free  transition at x/c =  0.0410   27
 Side 2 forced transition at x/c =  1.0000   68

   1   rms: 0.3907E-01   max: -.2092E+00   D at   27  1
       a = 12.500      CL =  1.3785
      Cm =  0.0077     CD =  0.02306   =>   CDf =  0.00610    CDp =  0.01696

 Side 1  free  transition at x/c =  0.0378   27
 Side 2 forced transition at x/c =  1.0000   68

   2   rms: 0.6803E-02   max: -.2742E-01   D at   27  1
       a = 12.500      CL =  1.3728
      Cm =  0.0084     CD =  0.02331   =>   CDf =  0.00607    CDp =  0.01725

 Side 1  free  transition at x/c =  0.0377   27
 Side 2 forced transition at x/c =  1.0000   68

   3   rms: 0.5334E-03   max: -.5161E-02   C at   68  2
       a = 12.500      CL =  1.3724
      Cm =  0.0085     CD =  0.02330   =>   CDf =  0.00608    CDp =  0.01722

 Side 1  free  transition at x/c =  0.0377   27
 Side 2 forced transition at x/c =  1.0000   68

   4   rms: 0.4777E-05   max: 0.2961E-04   C at   68  2
       a = 12.500      CL =  1.3724
      Cm =  0.0085     CD =  0.02330   =>   CDf =  0.00608    CDp =  0.01722
 plradd ia,ip,cpol           40           0  5.05074713E-05

 Point added to stored polar  1
 Point written to save file  vr13_Re500k.base.pol                            
 Dump file unspecified or not available
 Calculating wake trajectory ...
 Calculating source influence matrix ...

 Solving BL system ...

 Side 1  free  transition at x/c =  0.0377   27
 Side 2 forced transition at x/c =  1.0000   68

   1   rms: 0.4746E-01   max: -.1814E+00   C at   68  2
       a = 12.750      CL =  1.3714
      Cm =  0.0121     CD =  0.02496   =>   CDf =  0.00608    CDp =  0.01888

 Side 1  free  transition at x/c =  0.0354   26
 Side 2 forced transition at x/c =  1.0000   68

   2   rms: 0.3144E-01   max: -.2787E+00   D at   26  1
       a = 12.750      CL =  1.3820
      Cm =  0.0108     CD =  0.02401   =>   CDf =  0.00592    CDp =  0.01809

 Side 1  free  transition at x/c =  0.0360   26
 Side 2 forced transition at x/c =  1.0000   68

   3   rms: 0.2335E-02   max: 0.2269E-01   D at   26  1
       a = 12.750      CL =  1.3831
      Cm =  0.0106     CD =  0.02409   =>   CDf =  0.00598    CDp =  0.01811

 Side 1  free  transition at x/c =  0.0358   26
 Side 2 forced transition at x/c =  1.0000   68

   4   rms: 0.7471E-04   max: 0.4072E-03   D at   89  1
       a = 12.750      CL =  1.3830
      Cm =  0.0106     CD =  0.02409   =>   CDf =  0.00598    CDp =  0.01811
 plradd ia,ip,cpol           41           0  5.05074713E-05

 Point added to stored polar  1
 Point written to save file  vr13_Re500k.base.pol                            
 Dump file unspecified or not available
 Calculating wake trajectory ...
 Calculating source influence matrix ...

 Solving BL system ...

 Side 1  free  transition at x/c =  0.0358   26
 Side 2 forced transition at x/c =  1.0000   68

   1   rms: 0.3428E-01   max: 0.1324E+00   T at   26  1
       a = 13.000      CL =  1.3969
      Cm =  0.0122     CD =  0.02478   =>   CDf =  0.00598    CDp =  0.01880

 Side 1  free  transition at x/c =  0.0339   26
 Side 2 forced transition at x/c =  1.0000   68

   2   rms: 0.2666E-02   max: 0.1641E-01   D at   88  1
       a = 13.000      CL =  1.3948
      Cm =  0.0124     CD =  0.02487   =>   CDf =  0.00589    CDp =  0.01898

 Side 1  free  transition at x/c =  0.0339   26
 Side 2 forced transition at x/c =  1.0000   68

   3   rms: 0.4839E-04   max: 0.6526E-03   D at   88  1
       a = 13.000      CL =  1.3948
      Cm =  0.0124     CD =  0.02486   =>   CDf =  0.00588    CDp =  0.01898
 plradd ia,ip,cpol           42           0  5.05074713E-05

 Point added to stored polar  1
 Point written to save file  vr13_Re500k.base.pol                            
 Dump file unspecified or not available
 Calculating wake trajectory ...
 Calculating source influence matrix ...

 Solving BL system ...

 Side 1  free  transition at x/c =  0.0339   26
 Side 2 forced transition at x/c =  1.0000   68

   1   rms: 0.3466E-01   max: 0.1146E+00   T at   26  1
       a = 13.250      CL =  1.4063
      Cm =  0.0141     CD =  0.02578   =>   CDf =  0.00588    CDp =  0.01990

 Side 1  free  transition at x/c =  0.0321   26
 Side 2 forced transition at x/c =  1.0000   68

   2   rms: 0.2967E-02   max: 0.2161E-01   D at   87  1
       a = 13.250      CL =  1.4041
      Cm =  0.0143     CD =  0.02586   =>   CDf =  0.00582    CDp =  0.02004

 Side 1  free  transition at x/c =  0.0322   26
 Side 2 forced transition at x/c =  1.0000   68

   3   rms: 0.5768E-04   max: 0.8549E-03   D at   86  1
       a = 13.250      CL =  1.4040
      Cm =  0.0143     CD =  0.02586   =>   CDf =  0.00582    CDp =  0.02004
 plradd ia,ip,cpol           43           0  5.05074713E-05

 Point added to stored polar  1
 Point written to save file  vr13_Re500k.base.pol                            
 Dump file unspecified or not available
 Calculating wake trajectory ...
 Calculating source influence matrix ...

 Solving BL system ...

 Side 1  free  transition at x/c =  0.0322   26
 Side 2 forced transition at x/c =  1.0000   68

   1   rms: 0.3632E-01   max: -.1264E+00   D at   26  1
       a = 13.500      CL =  1.4132
      Cm =  0.0160     CD =  0.02703   =>   CDf =  0.00538    CDp =  0.02165

 Side 1  free  transition at x/c =  0.0305   27
 Side 2 forced transition at x/c =  1.0000   67

   2   rms: 0.6954E-02   max: -.9162E-01   D at    2  1
       a = 13.500      CL =  1.4096
      Cm =  0.0162     CD =  0.02719   =>   CDf =  0.00575    CDp =  0.02144

 Side 1  free  transition at x/c =  0.0305   27
 Side 2 forced transition at x/c =  1.0000   67

   3   rms: 0.1008E-02   max: -.1247E-01   D at    4  1
       a = 13.500      CL =  1.4096
      Cm =  0.0162     CD =  0.02719   =>   CDf =  0.00575    CDp =  0.02144

 Side 1  free  transition at x/c =  0.0305   27
 Side 2 forced transition at x/c =  1.0000   67

   4   rms: 0.1065E-05   max: 0.8643E-05   D at    8  1
       a = 13.500      CL =  1.4096
      Cm =  0.0162     CD =  0.02719   =>   CDf =  0.00575    CDp =  0.02144
 plradd ia,ip,cpol           44           0  5.05074713E-05

 Point added to stored polar  1
 Point written to save file  vr13_Re500k.base.pol                            
 Dump file unspecified or not available
 Calculating wake trajectory ...
 Calculating source influence matrix ...

 Solving BL system ...

 Side 1  free  transition at x/c =  0.0305   27
 Side 2 forced transition at x/c =  1.0000   67

   1   rms: 0.4099E-01   max: 0.1173E+00   D at   80  1
       a = 13.750      CL =  1.4127
      Cm =  0.0182     CD =  0.02893   =>   CDf =  0.00575    CDp =  0.02318

 Side 1  free  transition at x/c =  0.0290   26
 Side 2 forced transition at x/c =  1.0000   67

   2   rms: 0.6714E-02   max: 0.4338E-01   D at   85  1
       a = 13.750      CL =  1.4086
      Cm =  0.0185     CD =  0.02907   =>   CDf =  0.00564    CDp =  0.02343

 Side 1  free  transition at x/c =  0.0290   26
 Side 2 forced transition at x/c =  1.0000   67

   3   rms: 0.2605E-03   max: 0.2206E-02   D at   84  1
       a = 13.750      CL =  1.4087
      Cm =  0.0184     CD =  0.02907   =>   CDf =  0.00565    CDp =  0.02341

 Side 1  free  transition at x/c =  0.0290   26
 Side 2 forced transition at x/c =  1.0000   67

   4   rms: 0.5371E-05   max: -.1855E-04   C at   26  1
       a = 13.750      CL =  1.4087
      Cm =  0.0184     CD =  0.02907   =>   CDf =  0.00565    CDp =  0.02341
 plradd ia,ip,cpol           45           0  5.05074713E-05

 Point added to stored polar  1
 Point written to save file  vr13_Re500k.base.pol                            
 Dump file unspecified or not available
 Calculating wake trajectory ...
 Calculating source influence matrix ...

 Solving BL system ...

 Side 1  free  transition at x/c =  0.0290   26
 Side 2 forced transition at x/c =  1.0000   67

   1   rms: 0.3396E-01   max: -.1509E+00   C at   26  1
       a = 14.000      CL =  1.4207
      Cm =  0.0195     CD =  0.03018   =>   CDf =  0.00565    CDp =  0.02452

 Side 1  free  transition at x/c =  0.0282   26
 Side 2 forced transition at x/c =  1.0000   67

   2   rms: 0.3531E-02   max: 0.2341E-01   D at   83  1
       a = 14.000      CL =  1.4182
      Cm =  0.0196     CD =  0.03028   =>   CDf =  0.00553    CDp =  0.02475

 Side 1  free  transition at x/c =  0.0282   26
 Side 2 forced transition at x/c =  1.0000   67

   3   rms: 0.1277E-03   max: 0.1489E-02   D at   82  1
       a = 14.000      CL =  1.4181
      Cm =  0.0196     CD =  0.03027   =>   CDf =  0.00552    CDp =  0.02475

 Side 1  free  transition at x/c =  0.0282   26
 Side 2 forced transition at x/c =  1.0000   67

   4   rms: 0.2718E-05   max: 0.1478E-04   D at   82  1
       a = 14.000      CL =  1.4181
      Cm =  0.0196     CD =  0.03027   =>   CDf =  0.00552    CDp =  0.02475
 plradd ia,ip,cpol           46           0  5.05074713E-05

 Point added to stored polar  1
 Point written to save file  vr13_Re500k.base.pol                            
 Dump file unspecified or not available
 Calculating wake trajectory ...
 Calculating source influence matrix ...

 Solving BL system ...

 Side 1  free  transition at x/c =  0.0282   26
 Side 2 forced transition at x/c =  1.0000   67

   1   rms: 0.3453E-01   max: 0.1027E+00   T at   26  1
       a = 14.250      CL =  1.4274
      Cm =  0.0206     CD =  0.03168   =>   CDf =  0.00553    CDp =  0.02615

 Side 1  free  transition at x/c =  0.0271   26
 Side 2 forced transition at x/c =  1.0000   67

   2   rms: 0.3421E-02   max: 0.2068E-01   D at   81  1
       a = 14.250      CL =  1.4251
      Cm =  0.0207     CD =  0.03171   =>   CDf =  0.00541    CDp =  0.02630

 Side 1  free  transition at x/c =  0.0272   26
 Side 2 forced transition at x/c =  1.0000   67

   3   rms: 0.1221E-03   max: -.6265E-03   D at   82  1
       a = 14.250      CL =  1.4252
      Cm =  0.0207     CD =  0.03170   =>   CDf =  0.00541    CDp =  0.02630

 Side 1  free  transition at x/c =  0.0272   26
 Side 2 forced transition at x/c =  1.0000   67

   4   rms: 0.2739E-05   max: -.9434E-05   D at   82  2
       a = 14.250      CL =  1.4252
      Cm =  0.0207     CD =  0.03170   =>   CDf =  0.00541    CDp =  0.02630
 plradd ia,ip,cpol           47           0  5.05074713E-05

 Point added to stored polar  1
 Point written to save file  vr13_Re500k.base.pol                            
 Dump file unspecified or not available
 Calculating wake trajectory ...
 Calculating source influence matrix ...

 Solving BL system ...

 Side 1  free  transition at x/c =  0.0272   26
 Side 2 forced transition at x/c =  1.0000   67

   1   rms: 0.3505E-01   max: 0.1007E+00   T at   26  1
       a = 14.500      CL =  1.4333
      Cm =  0.0216     CD =  0.03331   =>   CDf =  0.00541    CDp =  0.02790

 Side 1  free  transition at x/c =  0.0260   26
 Side 2 forced transition at x/c =  1.0000   67

   2   rms: 0.4026E-02   max: -.2779E-01   D at   26  1
       a = 14.500      CL =  1.4310
      Cm =  0.0217     CD =  0.03332   =>   CDf =  0.00530    CDp =  0.02802

 Side 1  free  transition at x/c =  0.0261   26
 Side 2 forced transition at x/c =  1.0000   67

   3   rms: 0.1687E-03   max: 0.9206E-03   D at   79  1
       a = 14.500      CL =  1.4311
      Cm =  0.0217     CD =  0.03332   =>   CDf =  0.00531    CDp =  0.02801

 Side 1  free  transition at x/c =  0.0261   26
 Side 2 forced transition at x/c =  1.0000   67

   4   rms: 0.4369E-05   max: -.1935E-04   D at   77  2
       a = 14.500      CL =  1.4311
      Cm =  0.0217     CD =  0.03332   =>   CDf =  0.00531    CDp =  0.02801
 plradd ia,ip,cpol           48           0  5.05074713E-05

 Point added to stored polar  1
 Point written to save file  vr13_Re500k.base.pol                            
 Dump file unspecified or not available
 Calculating wake trajectory ...
 Calculating source influence matrix ...

 Solving BL system ...

 Side 1  free  transition at x/c =  0.0261   26
 Side 2 forced transition at x/c =  1.0000   67

   1   rms: 0.3598E-01   max: 0.9927E-01   D at   75  1
       a = 14.750      CL =  1.4377
      Cm =  0.0223     CD =  0.03518   =>   CDf =  0.00531    CDp =  0.02987

 Side 1  free  transition at x/c =  0.0250   26
 Side 2 forced transition at x/c =  1.0000   67

   2   rms: 0.5061E-02   max: 0.3348E-01   D at   78  1
       a = 14.750      CL =  1.4341
      Cm =  0.0224     CD =  0.03529   =>   CDf =  0.00522    CDp =  0.03007

 Side 1  free  transition at x/c =  0.0251   26
 Side 2 forced transition at x/c =  1.0000   67

   3   rms: 0.9906E-04   max: 0.1578E-02   D at   77  1
       a = 14.750      CL =  1.4340
      Cm =  0.0224     CD =  0.03527   =>   CDf =  0.00522    CDp =  0.03006
 plradd ia,ip,cpol           49           0  5.05074713E-05

 Point added to stored polar  1
 Point written to save file  vr13_Re500k.base.pol                            
 Dump file unspecified or not available
 Calculating wake trajectory ...
 Calculating source influence matrix ...

 Solving BL system ...

 Side 1  free  transition at x/c =  0.0251   26
 Side 2 forced transition at x/c =  1.0000   67

   1   rms: 0.3811E-01   max: 0.1155E+00   D at   74  1
       a = 15.000      CL =  1.4378
      Cm =  0.0229     CD =  0.03756   =>   CDf =  0.00522    CDp =  0.03235

 Side 1  free  transition at x/c =  0.0240   26
 Side 2 forced transition at x/c =  1.0000   67

   2   rms: 0.6943E-02   max: 0.4283E-01   D at   76  1
       a = 15.000      CL =  1.4331
      Cm =  0.0230     CD =  0.03779   =>   CDf =  0.00514    CDp =  0.03264

 Side 1  free  transition at x/c =  0.0241   26
 Side 2 forced transition at x/c =  1.0000   67

   3   rms: 0.2678E-03   max: 0.2558E-02   D at   75  1
       a = 15.000      CL =  1.4329
      Cm =  0.0230     CD =  0.03775   =>   CDf =  0.00513    CDp =  0.03262

 Side 1  free  transition at x/c =  0.0241   26
 Side 2 forced transition at x/c =  1.0000   67

   4   rms: 0.5206E-05   max: 0.6220E-04   D at   78  2
       a = 15.000      CL =  1.4329
      Cm =  0.0230     CD =  0.03775   =>   CDf =  0.00513    CDp =  0.03261
 plradd ia,ip,cpol           50           0  5.05074713E-05

 Point added to stored polar  1
 Point written to save file  vr13_Re500k.base.pol                            
 Dump file unspecified or not available
 Calculating wake trajectory ...
 Calculating source influence matrix ...

 Solving BL system ...

 Side 1  free  transition at x/c =  0.0241   26
 Side 2 forced transition at x/c =  1.0000   67

   1   rms: 0.4320E-01   max: 0.1485E+00   D at   72  1
       a = 15.250      CL =  1.4314
      Cm =  0.0231     CD =  0.04089   =>   CDf =  0.00513    CDp =  0.03576

 Side 1  free  transition at x/c =  0.0231   26
 Side 2 forced transition at x/c =  1.0000   67

   2   rms: 0.9210E-02   max: 0.5972E-01   D at   74  1
       a = 15.250      CL =  1.4252
      Cm =  0.0232     CD =  0.04113   =>   CDf =  0.00503    CDp =  0.03611

 Side 1  free  transition at x/c =  0.0232   26
 Side 2 forced transition at x/c =  1.0000   67

   3   rms: 0.3945E-03   max: 0.7364E-02   D at   73  1
       a = 15.250      CL =  1.4250
      Cm =  0.0232     CD =  0.04107   =>   CDf =  0.00502    CDp =  0.03605

 Side 1  free  transition at x/c =  0.0233   26
 Side 2 forced transition at x/c =  1.0000   67

   4   rms: 0.6860E-05   max: 0.4319E-04   D at   79  2
       a = 15.250      CL =  1.4250
      Cm =  0.0232     CD =  0.04107   =>   CDf =  0.00502    CDp =  0.03605
 plradd ia,ip,cpol           51           0  5.05074713E-05

 Point added to stored polar  1
 Point written to save file  vr13_Re500k.base.pol                            
 Dump file unspecified or not available
 Calculating wake trajectory ...
 Calculating source influence matrix ...

 Solving BL system ...

 Side 1  free  transition at x/c =  0.0233   26
 Side 2 forced transition at x/c =  1.0000   67

   1   rms: 0.5008E-01   max: 0.1845E+00   D at   69  1
       a = 15.500      CL =  1.4178
      Cm =  0.0227     CD =  0.04531   =>   CDf =  0.00502    CDp =  0.04029

 Side 1  free  transition at x/c =  0.0225   25
 Side 2 forced transition at x/c =  1.0000   67

   2   rms: 0.1186E-01   max: 0.7577E-01   D at   71  1
       a = 15.500      CL =  1.4102
      Cm =  0.0227     CD =  0.04561   =>   CDf =  0.00488    CDp =  0.04073

 Side 1  free  transition at x/c =  0.0227   26
 Side 2 forced transition at x/c =  1.0000   67

   3   rms: 0.8190E-02   max: 0.6566E-01   D at   25  1
       a = 15.500      CL =  1.4121
      Cm =  0.0228     CD =  0.04528   =>   CDf =  0.00488    CDp =  0.04040

 Side 1  free  transition at x/c =  0.0226   26
 Side 2 forced transition at x/c =  1.0000   67

   4   rms: 0.7316E-03   max: 0.2276E-02   D at   79  2
       a = 15.500      CL =  1.4117
      Cm =  0.0228     CD =  0.04529   =>   CDf =  0.00487    CDp =  0.04041

 Side 1  free  transition at x/c =  0.0226   26
 Side 2 forced transition at x/c =  1.0000   67

   5   rms: 0.2515E-04   max: 0.1518E-03   D at   79  2
       a = 15.500      CL =  1.4116
      Cm =  0.0228     CD =  0.04528   =>   CDf =  0.00487    CDp =  0.04040
 plradd ia,ip,cpol           52           0  5.05074713E-05

 Point added to stored polar  1
 Point written to save file  vr13_Re500k.base.pol                            
 Dump file unspecified or not available
 Calculating wake trajectory ...
 Calculating source influence matrix ...

 Solving BL system ...

 Side 1  free  transition at x/c =  0.0226   26
 Side 2 forced transition at x/c =  1.0000   67

   1   rms: 0.5698E-01   max: 0.2175E+00   D at   67  1   RLX: 0.951
       a = 15.750      CL =  1.4002
      Cm =  0.0216     CD =  0.05045   =>   CDf =  0.00488    CDp =  0.04557

 Side 1  free  transition at x/c =  0.0221   25
 Side 2 forced transition at x/c =  1.0000   67

   2   rms: 0.1767E-01   max: -.1546E+00   D at   25  1
       a = 15.750      CL =  1.4067
      Cm =  0.0221     CD =  0.04859   =>   CDf =  0.00471    CDp =  0.04388

 Side 1  free  transition at x/c =  0.0223   25
 Side 2 forced transition at x/c =  1.0000   67

   3   rms: 0.5513E-02   max: -.1992E-01   D at   68  1
       a = 15.750      CL =  1.4102
      Cm =  0.0222     CD =  0.04829   =>   CDf =  0.00473    CDp =  0.04356

 Side 1  free  transition at x/c =  0.0222   25
 Side 2 forced transition at x/c =  1.0000   67

   4   rms: 0.5169E-03   max: -.2541E-02   D at   79  2
       a = 15.750      CL =  1.4106
      Cm =  0.0221     CD =  0.04834   =>   CDf =  0.00473    CDp =  0.04361

 Side 1  free  transition at x/c =  0.0222   25
 Side 2 forced transition at x/c =  1.0000   67

   5   rms: 0.3724E-04   max: -.1696E-03   D at   79  2
       a = 15.750      CL =  1.4106
      Cm =  0.0221     CD =  0.04834   =>   CDf =  0.00473    CDp =  0.04361
 plradd ia,ip,cpol           53           0  5.05074713E-05

 Point added to stored polar  1
 Point written to save file  vr13_Re500k.base.pol                            
 Dump file unspecified or not available
 Calculating wake trajectory ...
 Calculating source influence matrix ...

 Solving BL system ...

 Side 1  free  transition at x/c =  0.0222   25
 Side 2 forced transition at x/c =  1.0000   67

   1   rms: 0.3697E-01   max: 0.1259E+00   D at   66  1   RLX: 0.926
       a = 16.000      CL =  1.4138
      Cm =  0.0211     CD =  0.05149   =>   CDf =  0.00473    CDp =  0.04676

 Side 1  free  transition at x/c =  0.0217   25
 Side 2 forced transition at x/c =  1.0000   67

   2   rms: 0.1111E-01   max: 0.6273E-01   D at   67  1
       a = 16.000      CL =  1.4080
      Cm =  0.0209     CD =  0.05209   =>   CDf =  0.00460    CDp =  0.04749

 Side 1  free  transition at x/c =  0.0218   25
 Side 2 forced transition at x/c =  1.0000   67

   3   rms: 0.1783E-02   max: 0.8575E-02   D at   66  1
       a = 16.000      CL =  1.4067
      Cm =  0.0210     CD =  0.05203   =>   CDf =  0.00458    CDp =  0.04745

 Side 1  free  transition at x/c =  0.0218   25
 Side 2 forced transition at x/c =  1.0000   67

   4   rms: 0.2013E-03   max: 0.9396E-03   D at   80  2
       a = 16.000      CL =  1.4066
      Cm =  0.0210     CD =  0.05202   =>   CDf =  0.00458    CDp =  0.04744

 Side 1  free  transition at x/c =  0.0218   25
 Side 2 forced transition at x/c =  1.0000   67

   5   rms: 0.1899E-04   max: 0.9031E-04   D at   80  2
       a = 16.000      CL =  1.4065
      Cm =  0.0210     CD =  0.05201   =>   CDf =  0.00458    CDp =  0.04744
 plradd ia,ip,cpol           54           0  5.05074713E-05

 Point added to stored polar  1
 Point written to save file  vr13_Re500k.base.pol                            
 Dump file unspecified or not available

.OPERva   c>  
 Polar accumulation disabled

.OPERv   c>  
 XFOIL   c>  
 XFOIL   c>  