
 ===================================================
  XFOIL Version 6.99
  Copyright (C) 2000   Mark Drela, Harold Youngren

  This software comes with ABSOLUTELY NO WARRANTY,
    subject to the GNU General Public License.

  Caveat computor
 ===================================================

 File  xfoil.def  not found

   QUIT    Exit program

  .OPER    Direct operating point(s)
  .MDES    Complex mapping design routine
  .QDES    Surface speed design routine
  .GDES    Geometry design routine

   SAVE f  Write airfoil to labeled coordinate file
   PSAV f  Write airfoil to plain coordinate file
   ISAV f  Write airfoil to ISES coordinate file
   MSAV f  Write airfoil to MSES coordinate file
   REVE    Reverse written-airfoil node ordering

   LOAD f  Read buffer airfoil from coordinate file
   NACA i  Set NACA 4,5-digit airfoil and buffer airfoil
   INTE    Set buffer airfoil by interpolating two airfoils
   NORM    Buffer airfoil normalization toggle
   XYCM rr Change CM reference location, currently  0.25000 0.00000

   BEND    Display structural properties of current airfoil

   PCOP    Set current-airfoil panel nodes directly from buffer airfoil points
   PANE    Set current-airfoil panel nodes ( 160 ) based on curvature
  .PPAR    Show/change paneling

  .PLOP    Plotting options

   WDEF f  Write  current-settings file
   RDEF f  Reread current-settings file
   NAME s  Specify new airfoil name
   NINC    Increment name version number

   Z       Zoom    | (available in all menus)
   U       Unzoom  | 

 XFOIL   c>  
 Labeled airfoil file.  Name:   BOEING-VERTOL VR-1 AIRFOIL                     

 Number of input coordinate points:  49
 Counterclockwise ordering
 Max thickness =     0.109746  at x =   0.353
 Max camber    =     0.014045  at x =   0.514

  LE  x,y  =  -0.00019   0.00249  |   Chord =   1.00019
  TE  x,y  =   1.00000   0.00000  |

 Current airfoil nodes set from buffer airfoil nodes (  49 )

 WARNING: Poor input coordinate distribution
          Excessive panel angle   47.7  at i =  25
          Repaneling with PANE and/or PPAR suggested
           (doing GDES,CADD before repaneling _may_
            improve excessively coarse LE spacing

 XFOIL   c>  
 XFOIL   c>  
 Sharp trailing edge

 Paneling parameters used...
   Number of panel nodes       160
   Panel bunching parameter    1.000
   TE/LE panel density ratio   0.150
   Refined-area/LE panel density ratio    0.200
   Top    side refined area x/c limits  1.000 1.000
   Bottom side refined area x/c limits  1.000 1.000

 XFOIL   c>  
.OPERi   c>  
 Xtr/c     =  1.0000    top    side
 Xtr/c     =  1.0000    bottom side
 Ncrit     =    9.00   ( 0.070 % turb. level )
 Vacc      =  0.0100

 Klag  =  5.6000     Uxwt  =    1.00
 A     =  6.7000     B     =  0.7500       KCt = 0.01485
 CtiniK=  1.8000     CtiniX=  3.3000

..VPAR   c>  
..VPAR   c>  
.OPERi   c>  
 M  =    0.0000
 Re =    150000

.OPERv   c>  
.OPERv   c>  
.OPERv   c>  
 Polar  1 newly created for accumulation
 Airfoil archived with polar: BOEING-VERTOL VR-1 AIRFOIL                      

Enter  polar save filename  OR  <return> for no file   s>  
 New polar save file available

Enter  polar dump filename  OR  <return> for no file   s>  
 Polar dump file will NOT be written

 Polar accumulation enabled

.OPERva   c>   Calculating unit vorticity distributions ...
 Calculating wake trajectory ...
 Calculating source influence matrix ...

 Solving BL system ...

 Initializing BL ...
    side            1  ...
 MRCHUE: Inverse mode at  56     Hk =   3.800
 MRCHUE: Inverse mode at  57     Hk =   4.146
 MRCHUE: Inverse mode at  58     Hk =   4.486
 MRCHUE: Inverse mode at  59     Hk =   4.821
 MRCHUE: Inverse mode at  60     Hk =   5.149
 MRCHUE: Inverse mode at  61     Hk =   5.473
 MRCHUE: Inverse mode at  62     Hk =   5.793
 MRCHUE: Inverse mode at  63     Hk =   6.110
 MRCHUE: Inverse mode at  64     Hk =   6.426
 MRCHUE: Inverse mode at  65     Hk =   6.741
 MRCHUE: Inverse mode at  66     Hk =   7.052
 MRCHUE: Inverse mode at  67     Hk =   7.358
 MRCHUE: Inverse mode at  68     Hk =   7.663
 MRCHUE: Inverse mode at  69     Hk =   7.959
 MRCHUE: Inverse mode at  70     Hk =   8.241
 MRCHUE: Inverse mode at  71     Hk =   8.514
 MRCHUE: Inverse mode at  72     Hk =   8.779
 MRCHUE: Inverse mode at  73     Hk =   9.010
 MRCHUE: Inverse mode at  74     Hk =   9.194
 MRCHUE: Inverse mode at  75     Hk =   9.294
    side            2  ...
 MRCHUE: Inverse mode at  18     Hk =   3.847
 MRCHUE: Inverse mode at  19     Hk =   4.354
 MRCHUE: Convergence failed at  20  side 2    Res =  0.3379E+01
 MRCHUE: Inverse mode at  21     Hk =   4.894
 MRCHUE: Inverse mode at  22     Hk =   5.427
 MRCHUE: Inverse mode at  23     Hk =   5.968
 MRCHUE: Inverse mode at  24     Hk =   6.537
 MRCHUE: Inverse mode at  25     Hk =   7.156
 MRCHUE: Inverse mode at  26     Hk =   7.844
 MRCHUE: Inverse mode at  27     Hk =   8.610
 MRCHUE: Inverse mode at  28     Hk =   9.432
 MRCHUE: Inverse mode at  29     Hk =   9.148
 MRCHUE: Inverse mode at  30     Hk =   5.550
 MRCHUE: Inverse mode at  31     Hk =   3.652
 MRCHUE: Inverse mode at  32     Hk =   2.500
 MRCHUE: Inverse mode at  86     Hk =   2.500
 MRCHUE: Inverse mode at  87     Hk =   2.500

 MRCHDU: Convergence failed at  31  side 2    Res =  0.3524E+01
 MRCHDU: Convergence failed at  32  side 2    Res =  0.2749E+01
 MRCHDU: Convergence failed at  33  side 2    Res =  0.1558E+01
 MRCHDU: Convergence failed at  34  side 2    Res =  0.2167E+01
 MRCHDU: Convergence failed at  35  side 2    Res =  0.3164E+01
 MRCHDU: Convergence failed at  36  side 2    Res =  0.4358E+01
 MRCHDU: Convergence failed at  37  side 2    Res =  0.5587E+01
 MRCHDU: Convergence failed at  38  side 2    Res =  0.7007E+01
 MRCHDU: Convergence failed at  39  side 2    Res =  0.7515E+01
 MRCHDU: Convergence failed at  40  side 2    Res =  0.6287E+01
 MRCHDU: Convergence failed at  41  side 2    Res =  0.6130E+01
 MRCHDU: Convergence failed at  42  side 2    Res =  0.6133E+01
 MRCHDU: Convergence failed at  43  side 2    Res =  0.6128E+01
 MRCHDU: Convergence failed at  44  side 2    Res =  0.6131E+01
 MRCHDU: Convergence failed at  45  side 2    Res =  0.6256E+01
 MRCHDU: Convergence failed at  46  side 2    Res =  0.6349E+01
 MRCHDU: Convergence failed at  47  side 2    Res =  0.6257E+01
 MRCHDU: Convergence failed at  48  side 2    Res =  0.4571E+01
 MRCHDU: Convergence failed at  49  side 2    Res =  0.4469E+01
 MRCHDU: Convergence failed at  50  side 2    Res =  0.4382E+01
 MRCHDU: Convergence failed at  51  side 2    Res =  0.4306E+01
 MRCHDU: Convergence failed at  52  side 2    Res =  0.4238E+01
 MRCHDU: Convergence failed at  53  side 2    Res =  0.1153E+02
 MRCHDU: Convergence failed at  54  side 2    Res =  0.1273E+02
 MRCHDU: Convergence failed at  55  side 2    Res =  0.1423E+02
 MRCHDU: Convergence failed at  56  side 2    Res =  0.1586E+02
 MRCHDU: Convergence failed at  57  side 2    Res =  0.1779E+02
 MRCHDU: Convergence failed at  58  side 2    Res =  0.1975E+02
 MRCHDU: Convergence failed at  59  side 2    Res =  0.2324E+02
 MRCHDU: Convergence failed at  60  side 2    Res =  0.2920E+02
 MRCHDU: Convergence failed at  61  side 2    Res =  0.3582E+02
 MRCHDU: Convergence failed at  62  side 2    Res =  0.5647E+02
 MRCHDU: Convergence failed at  63  side 2    Res =  0.2295E+03
 MRCHDU: Convergence failed at  64  side 2    Res =  0.9911E+02
 MRCHDU: Convergence failed at  65  side 2    Res =  0.5809E+02
 MRCHDU: Convergence failed at  66  side 2    Res =  0.4127E+02
 MRCHDU: Convergence failed at  67  side 2    Res =  0.3428E+02
 MRCHDU: Convergence failed at  68  side 2    Res =  0.3291E+02
 MRCHDU: Convergence failed at  69  side 2    Res =  0.2947E+02
 MRCHDU: Convergence failed at  70  side 2    Res =  0.9393E+01
 MRCHDU: Convergence failed at  71  side 2    Res =  0.9753E+01
 MRCHDU: Convergence failed at  72  side 2    Res =  0.1269E+02
 MRCHDU: Convergence failed at  73  side 2    Res =  0.2564E+02
 MRCHDU: Convergence failed at  74  side 2    Res =  0.1984E+02
 MRCHDU: Convergence failed at  75  side 2    Res =  0.1791E+02
 MRCHDU: Convergence failed at  76  side 2    Res =  0.1765E+02
 MRCHDU: Convergence failed at  77  side 2    Res =  0.1761E+02
 MRCHDU: Convergence failed at  78  side 2    Res =  0.1478E+02
 MRCHDU: Convergence failed at  79  side 2    Res =  0.1912E+02
 MRCHDU: Convergence failed at  80  side 2    Res =  0.4229E+02
 MRCHDU: Convergence failed at  81  side 2    Res =  0.1573E+02
 MRCHDU: Convergence failed at  82  side 2    Res =  0.3447E+02
 MRCHDU: Convergence failed at  83  side 2    Res =  0.6269E+02
 MRCHDU: Convergence failed at  84  side 2    Res =  0.3308E+02
 MRCHDU: Convergence failed at  85  side 2    Res =  0.1469E+02
 MRCHDU: Convergence failed at  86  side 2    Res =  0.2883E+02
 MRCHDU: Convergence failed at  87  side 2    Res =  0.2711E+02
 MRCHDU: Convergence failed at  89  side 2    Res =  0.1364E-01
 Side 1 forced transition at x/c =  1.0000   75
 Side 2  free  transition at x/c =  0.0803   30

   1   rms: 0.9731E+00   max: 0.8397E+01   D at   89  2   RLX: 0.179
       a = -4.000      CL = -0.8926
      Cm =  0.1659     CD =  0.00519   =>   CDf =  0.00377    CDp =  0.00141

 MRCHDU: Convergence failed at  30  side 2    Res =  0.4962E+01
 Side 1 forced transition at x/c =  1.0000   75
 Side 2  free  transition at x/c =  0.0768   29

   2   rms: 0.7428E+00   max: 0.7403E+01   T at   29  2   RLX: 0.146
       a = -4.000      CL = -0.8273
      Cm =  0.1261     CD =  0.00817   =>   CDf =  0.01161    CDp = -0.00344

 MRCHDU: Convergence failed at  29  side 2    Res =  0.1003E+02
 Side 1 forced transition at x/c =  1.0000   75
 Side 2  free  transition at x/c =  0.0639   28
 idif Ue xi dudx           1  0.20415664      3.66508961E-03   55.703041    
 Uenew xinew           2  7.21005946E-02  1.29437447E-03

   3   rms: 0.5087E+00   max: 0.2658E+01   T at   28  2   RLX: 0.515
       a = -4.000      CL = -0.7905
      Cm =  0.0818     CD =  0.01465   =>   CDf =  0.01140    CDp =  0.00325

 Side 1  free  transition at x/c =  0.9536   70
 Side 2  free  transition at x/c =  0.0586   29

   4   rms: 0.2523E+00   max: -.5210E+00   D at   89  2   RLX: 0.592
       a = -4.000      CL = -0.5337
      Cm =  0.0194     CD =  0.02426   =>   CDf =  0.00957    CDp =  0.01469

 MRCHDU: Convergence failed at  28  side 2    Res =  0.4739E+01
 MRCHDU: Convergence failed at  29  side 2    Res =  0.2733E+02
 MRCHDU: Convergence failed at  30  side 2    Res =  0.9258E+01
 MRCHDU: Convergence failed at  31  side 2    Res =  0.2529E+02
 MRCHDU: Convergence failed at  32  side 2    Res =  0.1936E+02
 MRCHDU: Convergence failed at  33  side 2    Res =  0.3398E+02
 MRCHDU: Convergence failed at  34  side 2    Res =  0.3805E+02
 MRCHDU: Convergence failed at  35  side 2    Res =  0.7001E+02
 MRCHDU: Convergence failed at  36  side 2    Res =  0.3341E+02
 MRCHDU: Convergence failed at  37  side 2    Res =  0.5920E+02
 MRCHDU: Convergence failed at  38  side 2    Res =  0.7322E+02
 MRCHDU: Convergence failed at  39  side 2    Res =  0.9434E+02
 MRCHDU: Convergence failed at  40  side 2    Res =  0.3995E+02
 MRCHDU: Convergence failed at  41  side 2    Res =  0.6545E+02
 MRCHDU: Convergence failed at  42  side 2    Res =  0.7522E+02
 MRCHDU: Convergence failed at  43  side 2    Res =  0.8537E+02
 MRCHDU: Convergence failed at  44  side 2    Res =  0.1001E+03
 MRCHDU: Convergence failed at  45  side 2    Res =  0.1323E+03
 MRCHDU: Convergence failed at  46  side 2    Res =  0.2229E+03
 MRCHDU: Convergence failed at  47  side 2    Res =  0.3627E+04
 MRCHDU: Convergence failed at  48  side 2    Res =  0.2976E+03
 MRCHDU: Convergence failed at  49  side 2    Res =  0.3887E+02
 MRCHDU: Convergence failed at  50  side 2    Res =  0.5471E+02
 MRCHDU: Convergence failed at  51  side 2    Res =  0.4465E+02
 MRCHDU: Convergence failed at  52  side 2    Res =  0.4276E+02
 MRCHDU: Convergence failed at  53  side 2    Res =  0.4402E+02
 MRCHDU: Convergence failed at  54  side 2    Res =  0.4586E+02
 MRCHDU: Convergence failed at  55  side 2    Res =  0.4776E+02
 MRCHDU: Convergence failed at  56  side 2    Res =  0.4948E+02
 MRCHDU: Convergence failed at  57  side 2    Res =  0.5118E+02
 MRCHDU: Convergence failed at  58  side 2    Res =  0.5286E+02
 MRCHDU: Convergence failed at  59  side 2    Res =  0.5435E+02
 MRCHDU: Convergence failed at  60  side 2    Res =  0.5651E+02
 MRCHDU: Convergence failed at  61  side 2    Res =  0.5775E+02
 MRCHDU: Convergence failed at  62  side 2    Res =  0.5926E+02
 MRCHDU: Convergence failed at  63  side 2    Res =  0.1906E+03
 MRCHDU: Convergence failed at  64  side 2    Res =  0.2988E+03
 MRCHDU: Convergence failed at  65  side 2    Res =  0.6776E+02
 MRCHDU: Convergence failed at  66  side 2    Res =  0.7053E+02
 MRCHDU: Convergence failed at  67  side 2    Res =  0.7374E+02
 MRCHDU: Convergence failed at  68  side 2    Res =  0.7800E+02
 MRCHDU: Convergence failed at  69  side 2    Res =  0.8311E+02
 MRCHDU: Convergence failed at  70  side 2    Res =  0.9083E+02
 MRCHDU: Convergence failed at  71  side 2    Res =  0.3498E+02
 MRCHDU: Convergence failed at  72  side 2    Res =  0.1007E+03
 MRCHDU: Convergence failed at  73  side 2    Res =  0.9928E+02
 MRCHDU: Convergence failed at  74  side 2    Res =  0.9601E+02
 MRCHDU: Convergence failed at  75  side 2    Res =  0.1006E+03
 MRCHDU: Convergence failed at  76  side 2    Res =  0.9754E+02
 MRCHDU: Convergence failed at  77  side 2    Res =  0.1065E+03
 MRCHDU: Convergence failed at  78  side 2    Res =  0.1047E+04
 MRCHDU: Convergence failed at  79  side 2    Res =  0.1720E+03
 MRCHDU: Convergence failed at  80  side 2    Res =  0.1567E+05
 MRCHDU: Convergence failed at  81  side 2    Res =  0.5523E+02
 MRCHDU: Convergence failed at  82  side 2    Res =  0.6069E+02
 MRCHDU: Convergence failed at  83  side 2    Res =  0.6533E+02
 MRCHDU: Convergence failed at  84  side 2    Res =  0.7052E+02
 MRCHDU: Convergence failed at  85  side 2    Res =  0.7741E+02
 MRCHDU: Convergence failed at  86  side 2    Res =  0.1031E+03
 MRCHDU: Convergence failed at  87  side 2    Res =  0.1448E+03
 Side 1  free  transition at x/c =  0.9552   71
 Side 2  free  transition at x/c =  0.0574   27

   5   rms: 0.1085E+01   max: -.5115E+01   T at   71  1   RLX: 0.098
       a = -4.000      CL = -1.4769
      Cm =  0.3430     CD =  0.01059   =>   CDf =  0.00312    CDp =  0.00747

 MRCHDU: Convergence failed at  62  side 2    Res =  0.2475E+00
 MRCHDU: Convergence failed at  63  side 2    Res =  0.1847E+00
 MRCHDU: Convergence failed at  64  side 2    Res =  0.1124E+00
 MRCHDU: Convergence failed at  65  side 2    Res =  0.3179E-01
 MRCHDU: Convergence failed at  66  side 2    Res =  0.3198E-02
 Side 1  free  transition at x/c =  0.9730   73
 Side 2  free  transition at x/c =  0.0596   28

   6   rms: 0.5075E+00   max: -.1976E+01   T at   73  1   RLX: 0.253
       a = -4.000      CL = -0.8337
      Cm =  0.1819     CD =  0.03932   =>   CDf =  0.00411    CDp =  0.03521

 MRCHDU: Convergence failed at  65  side 2    Res =  0.1596E+00
 MRCHDU: Convergence failed at  66  side 2    Res =  0.9673E+00
 MRCHDU: Convergence failed at  67  side 2    Res =  0.3698E+00
 MRCHDU: Convergence failed at  68  side 2    Res =  0.3335E+00
 MRCHDU: Convergence failed at  69  side 2    Res =  0.2865E+00
 MRCHDU: Convergence failed at  70  side 2    Res =  0.2193E+00
 MRCHDU: Convergence failed at  71  side 2    Res =  0.8301E-01
 MRCHDU: Convergence failed at  72  side 2    Res =  0.1827E-02
 Side 1  free  transition at x/c =  0.9911   74
 Side 2  free  transition at x/c =  0.0590   28

   7   rms: 0.4054E+00   max: -.7047E+00   D at   88  2   RLX: 0.472
       a = -4.000      CL = -0.4710
      Cm =  0.0428     CD =  0.04186   =>   CDf =  0.00413    CDp =  0.03773

 MRCHDU: Convergence failed at  71  side 2    Res =  0.3058E+00
 MRCHDU: Convergence failed at  72  side 2    Res =  0.5521E+00
 MRCHDU: Convergence failed at  73  side 2    Res =  0.2471E+00
 MRCHDU: Convergence failed at  74  side 2    Res =  0.2361E+00
 MRCHDU: Convergence failed at  75  side 2    Res =  0.2240E+00
 MRCHDU: Convergence failed at  76  side 2    Res =  0.2118E+00
 MRCHDU: Convergence failed at  77  side 2    Res =  0.1997E+00
 MRCHDU: Convergence failed at  78  side 2    Res =  0.1873E+00
 MRCHDU: Convergence failed at  79  side 2    Res =  0.1750E+00
 MRCHDU: Convergence failed at  80  side 2    Res =  0.1625E+00
 MRCHDU: Convergence failed at  81  side 2    Res =  0.1498E+00
 MRCHDU: Convergence failed at  82  side 2    Res =  0.1370E+00
 MRCHDU: Convergence failed at  83  side 2    Res =  0.1241E+00
 MRCHDU: Convergence failed at  84  side 2    Res =  0.1106E+00
 MRCHDU: Convergence failed at  85  side 2    Res =  0.9681E-01
 Side 1 forced transition at x/c =  1.0000   75
 Side 2  free  transition at x/c =  0.0608   28

   8   rms: 0.1750E+01   max: -.1047E+02   D at   85  2   RLX: 0.048
       a = -4.000      CL = -0.2151
      Cm = -0.0650     CD =  0.04034   =>   CDf =  0.00395    CDp =  0.03639

 MRCHDU: Convergence failed at  85  side 2    Res =  0.5029E+00
 Side 1 forced transition at x/c =  1.0000   75
 Side 2  free  transition at x/c =  0.0642   28
 idif Ue xi dudx           1  0.15322798      2.73108482E-03   56.105171    
 Uenew xinew           2  2.02186033E-02  3.60369682E-04

   9   rms: 0.1305E+01   max: -.3177E+01   D at   61  2   RLX: 0.157
       a = -4.000      CL = -0.3060
      Cm = -0.0817     CD =  0.04677   =>   CDf =  0.00400    CDp =  0.04278

 Side 1  free  transition at x/c =  0.9936   73
 Side 2  free  transition at x/c =  0.0569   28

  10   rms: 0.2962E+01   max: -.1089E+02   D at   62  2   RLX: 0.046
       a = -4.000      CL = -0.3227
      Cm = -0.0970     CD =  0.04700   =>   CDf =  0.00390    CDp =  0.04310

 Side 1  free  transition at x/c =  0.9860   73
 Side 2  free  transition at x/c =  0.0542   28

  11   rms: 0.5282E+01   max: -.2000E+02   D at   62  2   RLX: 0.025
       a = -4.000      CL = -0.3866
      Cm = -0.0976     CD =  0.04325   =>   CDf =  0.00414    CDp =  0.03911

 Side 1  free  transition at x/c =  0.9793   72
 Side 2  free  transition at x/c =  0.0526   28
 idif Ue xi dudx           1  0.20320933      3.53503227E-03   57.484432    
 Uenew xinew           2  5.93716055E-02  1.03282928E-03

  12   rms: 0.1920E+01   max: -.7038E+01   D at   62  2   RLX: 0.071
       a = -4.000      CL = -0.4574
      Cm = -0.0894     CD =  0.03731   =>   CDf =  0.00449    CDp =  0.03283

 Side 1  free  transition at x/c =  0.9655   70
 Side 2  free  transition at x/c =  0.0514   29

  13   rms: 0.9705E+00   max: 0.3798E+01   T at   70  1   RLX: 0.152
       a = -4.000      CL = -0.5284
      Cm = -0.0728     CD =  0.03211   =>   CDf =  0.00500    CDp =  0.02712

 Side 1  free  transition at x/c =  0.9486   69
 Side 2  free  transition at x/c =  0.0509   29

  14   rms: 0.5008E+00   max: -.1535E+01   D at   80  2   RLX: 0.326
       a = -4.000      CL = -0.5426
      Cm = -0.0510     CD =  0.02821   =>   CDf =  0.00573    CDp =  0.02248

 Side 1  free  transition at x/c =  0.9378   68
 Side 2  free  transition at x/c =  0.0520   29

  15   rms: 0.4855E+00   max: -.1289E+01   D at   58  2   RLX: 0.388
       a = -4.000      CL = -0.4653
      Cm = -0.0443     CD =  0.02385   =>   CDf =  0.00688    CDp =  0.01697

 Side 1  free  transition at x/c =  0.9509   70
 Side 2  free  transition at x/c =  0.0538   28

  16   rms: 0.2432E+00   max: -.9165E+00   D at   87  2   RLX: 0.546
       a = -4.000      CL = -0.4277
      Cm = -0.0316     CD =  0.02283   =>   CDf =  0.00783    CDp =  0.01501

 Side 1  free  transition at x/c =  0.9526   70
 Side 2  free  transition at x/c =  0.0556   28

  17   rms: 0.1344E+00   max: -.8387E+00   D at   87  2   RLX: 0.596
       a = -4.000      CL = -0.5057
      Cm = -0.0051     CD =  0.02534   =>   CDf =  0.00845    CDp =  0.01690

 Side 1  free  transition at x/c =  0.9364   69
 Side 2  free  transition at x/c =  0.0555   28

  18   rms: 0.2442E+00   max: -.1436E+01   T at   69  1   RLX: 0.348
       a = -4.000      CL = -0.4292
      Cm = -0.0169     CD =  0.02254   =>   CDf =  0.00873    CDp =  0.01381

 Side 1  free  transition at x/c =  0.9551   71
 Side 2  free  transition at x/c =  0.0565   27

  19   rms: 0.1303E+00   max: -.7744E+00   T at   71  1   RLX: 0.646
       a = -4.000      CL = -0.3511
      Cm = -0.0295     CD =  0.01997   =>   CDf =  0.00884    CDp =  0.01113

 Side 1  free  transition at x/c =  0.9757   73
 Side 2  free  transition at x/c =  0.0592   28

  20   rms: 0.7752E-01   max: 0.8167E+00   D at   74  1
       a = -4.000      CL = -0.3562
      Cm = -0.0271     CD =  0.01969   =>   CDf =  0.00889    CDp =  0.01080

 Side 1  free  transition at x/c =  0.9673   72
 Side 2  free  transition at x/c =  0.0591   28

  21   rms: 0.2687E-01   max: 0.2059E+00   T at   72  1
       a = -4.000      CL = -0.3720
      Cm = -0.0241     CD =  0.02036   =>   CDf =  0.00892    CDp =  0.01144

 Side 1  free  transition at x/c =  0.9599   72
 Side 2  free  transition at x/c =  0.0583   28

  22   rms: 0.1176E-01   max: -.6899E-01   D at   75  1
       a = -4.000      CL = -0.3657
      Cm = -0.0253     CD =  0.02025   =>   CDf =  0.00896    CDp =  0.01129

 Side 1  free  transition at x/c =  0.9622   72
 Side 2  free  transition at x/c =  0.0586   28

  23   rms: 0.9390E-03   max: -.6396E-02   D at   74  1
       a = -4.000      CL = -0.3651
      Cm = -0.0254     CD =  0.02026   =>   CDf =  0.00894    CDp =  0.01131

 Side 1  free  transition at x/c =  0.9624   72
 Side 2  free  transition at x/c =  0.0586   28

  24   rms: 0.6466E-05   max: 0.3995E-04   D at   28  2
       a = -4.000      CL = -0.3651
      Cm = -0.0254     CD =  0.02026   =>   CDf =  0.00894    CDp =  0.01131
 plradd ia,ip,cpol            1           0  5.47315553E-03

 Point added to stored polar  1
 Point written to save file  vr1_Re150k.base.pol                             
 Dump file unspecified or not available
 Calculating wake trajectory ...
 Calculating source influence matrix ...

 Solving BL system ...

 Side 1  free  transition at x/c =  0.9624   72
 Side 2  free  transition at x/c =  0.0586   28

   1   rms: 0.1384E+00   max: -.5501E+00   T at   28  2   RLX: 0.909
       a = -3.500      CL = -0.3079
      Cm = -0.0274     CD =  0.01765   =>   CDf =  0.00892    CDp =  0.00872

 Side 1  free  transition at x/c =  0.9544   72
 Side 2  free  transition at x/c =  0.0633   27

   2   rms: 0.4033E-01   max: -.2137E+00   D at   29  2
       a = -3.500      CL = -0.2959
      Cm = -0.0286     CD =  0.01853   =>   CDf =  0.00882    CDp =  0.00971

 Side 1  free  transition at x/c =  0.9539   72
 Side 2  free  transition at x/c =  0.0641   27

   3   rms: 0.2247E-02   max: 0.1772E-01   T at   72  1
       a = -3.500      CL = -0.2973
      Cm = -0.0284     CD =  0.01864   =>   CDf =  0.00881    CDp =  0.00984

 Side 1  free  transition at x/c =  0.9533   72
 Side 2  free  transition at x/c =  0.0640   27

   4   rms: 0.1470E-03   max: -.1069E-02   T at   72  1
       a = -3.500      CL = -0.2971
      Cm = -0.0284     CD =  0.01864   =>   CDf =  0.00881    CDp =  0.00983

 Side 1  free  transition at x/c =  0.9534   72
 Side 2  free  transition at x/c =  0.0640   27

   5   rms: 0.3503E-05   max: -.3351E-04   T at   72  1
       a = -3.500      CL = -0.2971
      Cm = -0.0284     CD =  0.01864   =>   CDf =  0.00881    CDp =  0.00983
 plradd ia,ip,cpol            2           0  5.47315553E-03

 Point added to stored polar  1
 Point written to save file  vr1_Re150k.base.pol                             
 Dump file unspecified or not available
 Calculating wake trajectory ...
 Calculating source influence matrix ...

 Solving BL system ...

 Side 1  free  transition at x/c =  0.9534   72
 Side 2  free  transition at x/c =  0.0640   27

   1   rms: 0.8408E-01   max: 0.5928E+00   T at   72  1
       a = -3.000      CL = -0.2679
      Cm = -0.0236     CD =  0.01777   =>   CDf =  0.00881    CDp =  0.00897

 Side 1  free  transition at x/c =  0.9338   71
 Side 2  free  transition at x/c =  0.0688   28

   2   rms: 0.7001E-01   max: -.2943E+00   T at   71  1
       a = -3.000      CL = -0.2268
      Cm = -0.0316     CD =  0.01722   =>   CDf =  0.00888    CDp =  0.00834

 Side 1  free  transition at x/c =  0.9464   72
 Side 2  free  transition at x/c =  0.0758   28

   3   rms: 0.2799E-01   max: 0.1931E+00   D at   74  1
       a = -3.000      CL = -0.2346
      Cm = -0.0300     CD =  0.01754   =>   CDf =  0.00880    CDp =  0.00874

 Side 1  free  transition at x/c =  0.9420   72
 Side 2  free  transition at x/c =  0.0736   28

   4   rms: 0.1998E-02   max: -.1578E-01   D at   72  1
       a = -3.000      CL = -0.2339
      Cm = -0.0302     CD =  0.01755   =>   CDf =  0.00881    CDp =  0.00874

 Side 1  free  transition at x/c =  0.9422   72
 Side 2  free  transition at x/c =  0.0737   28

   5   rms: 0.2470E-04   max: 0.1556E-03   D at   28  2
       a = -3.000      CL = -0.2339
      Cm = -0.0302     CD =  0.01755   =>   CDf =  0.00882    CDp =  0.00873
 plradd ia,ip,cpol            3           0  5.47315553E-03

 Point added to stored polar  1
 Point written to save file  vr1_Re150k.base.pol                             
 Dump file unspecified or not available
 Calculating wake trajectory ...
 Calculating source influence matrix ...

 Solving BL system ...

 Side 1  free  transition at x/c =  0.9422   72
 Side 2  free  transition at x/c =  0.0737   28

   1   rms: 0.1303E+00   max: -.8020E+00   T at   28  2   RLX: 0.623
       a = -2.500      CL = -0.1856
      Cm = -0.0331     CD =  0.01689   =>   CDf =  0.00876    CDp =  0.00813

 Side 1  free  transition at x/c =  0.9384   72
 Side 2  free  transition at x/c =  0.0945   29

   2   rms: 0.7264E-01   max: 0.7852E+00   T at   72  1
       a = -2.500      CL = -0.2400
      Cm = -0.0183     CD =  0.01738   =>   CDf =  0.00876    CDp =  0.00862

 Side 1  free  transition at x/c =  0.9141   71
 Side 2  free  transition at x/c =  0.0913   28

   3   rms: 0.1413E+00   max: -.1998E+01   C at   28  2   RLX: 0.250
       a = -2.500      CL = -0.2239
      Cm = -0.0209     CD =  0.01935   =>   CDf =  0.00876    CDp =  0.01060

 Side 1  free  transition at x/c =  0.9189   71
 Side 2  free  transition at x/c =  0.1056   29

   4   rms: 0.1840E+00   max: -.1599E+01   T at   29  2   RLX: 0.313
       a = -2.500      CL = -0.1940
      Cm = -0.0263     CD =  0.01842   =>   CDf =  0.00870    CDp =  0.00972

 MRCHDU: Convergence failed at  31  side 2    Res =  0.9300E+00
 Side 1  free  transition at x/c =  0.9268   72
 Side 2  free  transition at x/c =  0.2332   38

   5   rms: 0.2534E+00   max: -.4530E+01   C at   38  2   RLX: 0.110
       a = -2.500      CL = -0.2096
      Cm = -0.0281     CD =  0.01666   =>   CDf =  0.00812    CDp =  0.00855

 Side 1  free  transition at x/c =  0.9271   72
 Side 2  free  transition at x/c =  0.2479   39

   6   rms: 0.2659E+00   max: -.4823E+01   C at   39  2   RLX: 0.104
       a = -2.500      CL = -0.2049
      Cm = -0.0281     CD =  0.01644   =>   CDf =  0.00804    CDp =  0.00840

 Side 1  free  transition at x/c =  0.9273   72
 Side 2  free  transition at x/c =  0.2569   39

   7   rms: 0.1292E+00   max: -.2265E+01   C at   39  2   RLX: 0.221
       a = -2.500      CL = -0.2001
      Cm = -0.0284     CD =  0.01625   =>   CDf =  0.00798    CDp =  0.00828

 Side 1  free  transition at x/c =  0.9277   72
 Side 2  free  transition at x/c =  0.2989   42

   8   rms: 0.3039E+00   max: -.5523E+01   C at   42  2   RLX: 0.091
       a = -2.500      CL = -0.2002
      Cm = -0.0283     CD =  0.01591   =>   CDf =  0.00763    CDp =  0.00828

 Side 1  free  transition at x/c =  0.9278   72
 Side 2  free  transition at x/c =  0.3105   43

   9   rms: 0.2201E+00   max: -.3991E+01   C at   43  2   RLX: 0.125
       a = -2.500      CL = -0.1988
      Cm = -0.0284     CD =  0.01578   =>   CDf =  0.00757    CDp =  0.00821

 Side 1  free  transition at x/c =  0.9280   72
 Side 2  free  transition at x/c =  0.3282   44

  10   rms: 0.1919E+00   max: -.3433E+01   C at   44  2   RLX: 0.146
       a = -2.500      CL = -0.1978
      Cm = -0.0285     CD =  0.01563   =>   CDf =  0.00747    CDp =  0.00816

 Side 1  free  transition at x/c =  0.9281   72
 Side 2  free  transition at x/c =  0.3475   45

  11   rms: 0.1716E+00   max: -.3014E+01   C at   45  2   RLX: 0.166
       a = -2.500      CL = -0.1969
      Cm = -0.0285     CD =  0.01548   =>   CDf =  0.00735    CDp =  0.00812

 Side 1  free  transition at x/c =  0.9283   72
 Side 2  free  transition at x/c =  0.3660   46

  12   rms: 0.1329E+00   max: -.2299E+01   C at   46  2   RLX: 0.217
       a = -2.500      CL = -0.1959
      Cm = -0.0286     CD =  0.01533   =>   CDf =  0.00725    CDp =  0.00808

 Side 1  free  transition at x/c =  0.9285   72
 Side 2  free  transition at x/c =  0.3863   47

  13   rms: 0.8083E-01   max: -.1377E+01   C at   47  2   RLX: 0.363
       a = -2.500      CL = -0.1943
      Cm = -0.0287     CD =  0.01516   =>   CDf =  0.00715    CDp =  0.00801

 Side 1  free  transition at x/c =  0.9287   72
 Side 2  free  transition at x/c =  0.4095   49

  14   rms: 0.2274E-01   max: -.3628E+00   C at   49  2
       a = -2.500      CL = -0.1910
      Cm = -0.0289     CD =  0.01494   =>   CDf =  0.00703    CDp =  0.00791

 Side 1  free  transition at x/c =  0.9293   72
 Side 2  free  transition at x/c =  0.4345   50

  15   rms: 0.1157E-02   max: 0.1452E-01   D at   49  2
       a = -2.500      CL = -0.1909
      Cm = -0.0289     CD =  0.01495   =>   CDf =  0.00694    CDp =  0.00801

 Side 1  free  transition at x/c =  0.9293   72
 Side 2  free  transition at x/c =  0.4338   50

  16   rms: 0.1179E-03   max: -.1979E-02   C at   50  2
       a = -2.500      CL = -0.1909
      Cm = -0.0289     CD =  0.01495   =>   CDf =  0.00694    CDp =  0.00801

 Side 1  free  transition at x/c =  0.9293   72
 Side 2  free  transition at x/c =  0.4339   50

  17   rms: 0.3655E-05   max: 0.5976E-04   C at   50  2
       a = -2.500      CL = -0.1909
      Cm = -0.0289     CD =  0.01495   =>   CDf =  0.00694    CDp =  0.00801
 plradd ia,ip,cpol            4           0  7.23411376E-03

 Point added to stored polar  1
 Point written to save file  vr1_Re150k.base.pol                             
 Dump file unspecified or not available
 Calculating wake trajectory ...
 Calculating source influence matrix ...

 Solving BL system ...

 Side 1  free  transition at x/c =  0.9293   72
 Side 2  free  transition at x/c =  0.4339   50

   1   rms: 0.6121E+00   max: -.1034E+02   C at   50  2   RLX: 0.048
       a = -2.000      CL = -0.1889
      Cm = -0.0288     CD =  0.01481   =>   CDf =  0.00694    CDp =  0.00788

 Side 1  free  transition at x/c =  0.9288   72
 Side 2  free  transition at x/c =  0.4703   52

   2   rms: 0.3041E+00   max: -.4625E+01   C at   52  2   RLX: 0.108
       a = -2.000      CL = -0.1831
      Cm = -0.0288     CD =  0.01466   =>   CDf =  0.00678    CDp =  0.00788

 Side 1  free  transition at x/c =  0.9279   72
 Side 2  free  transition at x/c =  0.5595   58

   3   rms: 0.4191E+00   max: -.6739E+01   C at   58  2   RLX: 0.074
       a = -2.000      CL = -0.1847
      Cm = -0.0273     CD =  0.01432   =>   CDf =  0.00642    CDp =  0.00791

 Side 1  free  transition at x/c =  0.9274   72
 Side 2  free  transition at x/c =  0.5746   59

   4   rms: 0.3140E+00   max: -.4915E+01   C at   59  2   RLX: 0.102
       a = -2.000      CL = -0.1792
      Cm = -0.0277     CD =  0.01427   =>   CDf =  0.00636    CDp =  0.00791

 Side 1  free  transition at x/c =  0.9268   72
 Side 2  free  transition at x/c =  0.5941   60

   5   rms: 0.2282E+00   max: -.3441E+01   C at   60  2   RLX: 0.145
       a = -2.000      CL = -0.1719
      Cm = -0.0281     CD =  0.01421   =>   CDf =  0.00627    CDp =  0.00793

 Side 1  free  transition at x/c =  0.9261   72
 Side 2  free  transition at x/c =  0.6213   61

   6   rms: 0.1069E+00   max: -.9994E+00   C at   61  2   RLX: 0.500
       a = -2.000      CL = -0.1499
      Cm = -0.0290     CD =  0.01410   =>   CDf =  0.00618    CDp =  0.00793

 MRCHDU: Convergence failed at  70  side 2    Res =  0.1314E+01
 MRCHDU: Convergence failed at  71  side 2    Res =  0.1414E+01
 MRCHDU: Convergence failed at  72  side 2    Res =  0.1700E+01
 MRCHDU: Convergence failed at  73  side 2    Res =  0.2021E+01
 MRCHDU: Convergence failed at  74  side 2    Res =  0.2377E+01
 MRCHDU: Convergence failed at  75  side 2    Res =  0.2647E+01
 MRCHDU: Convergence failed at  76  side 2    Res =  0.2974E+01
 MRCHDU: Convergence failed at  77  side 2    Res =  0.3268E+01
 MRCHDU: Convergence failed at  78  side 2    Res =  0.3512E+01
 MRCHDU: Convergence failed at  79  side 2    Res =  0.3690E+01
 MRCHDU: Convergence failed at  80  side 2    Res =  0.3801E+01
 MRCHDU: Convergence failed at  81  side 2    Res =  0.3882E+01
 MRCHDU: Convergence failed at  82  side 2    Res =  0.3931E+01
 MRCHDU: Convergence failed at  83  side 2    Res =  0.3964E+01
 MRCHDU: Convergence failed at  84  side 2    Res =  0.3912E+01
 MRCHDU: Convergence failed at  85  side 2    Res =  0.3610E+01
 Side 1  free  transition at x/c =  0.9240   71
 Side 2  free  transition at x/c =  0.7592   70

   7   rms: 0.2535E+00   max: 0.1695E+01   T at    2  2   RLX: 0.594
       a = -2.000      CL = -0.0878
      Cm = -0.0297     CD =  0.01226   =>   CDf =  0.00511    CDp =  0.00714

 MRCHDU: Convergence failed at  77  side 1    Res =  0.3668E+01
 MRCHDU: Convergence failed at  78  side 1    Res =  0.4503E+01
 Side 1  free  transition at x/c =  0.9473   74
 Side 2  free  transition at x/c =  0.8326   73

   8   rms: 0.1540E+00   max: 0.8227E+00   D at   78  1
       a = -2.000      CL = -0.0937
      Cm = -0.0344     CD =  0.01228   =>   CDf =  0.00558    CDp =  0.00669

 Side 1  free  transition at x/c =  0.9366   73
 Side 2  free  transition at x/c =  0.8337   73
 idif Ue xi dudx           1  0.18328622      2.45833397E-03   74.557091    
 Uenew xinew           2  3.14809345E-02  4.22239304E-04

   9   rms: 0.2947E+00   max: 0.1619E+01   T at   73  1   RLX: 0.461
       a = -2.000      CL = -0.1994
      Cm = -0.0151     CD =  0.01287   =>   CDf =  0.00543    CDp =  0.00744

 Side 1  free  transition at x/c =  0.9099   71
 Side 2  free  transition at x/c =  0.6884   65

  10   rms: 0.6804E-01   max: -.3586E+00   D at   71  1
       a = -2.000      CL = -0.1486
      Cm = -0.0253     CD =  0.01410   =>   CDf =  0.00584    CDp =  0.00826

 MRCHDU: Convergence failed at  73  side 2    Res =  0.1152E+01
 MRCHDU: Convergence failed at  74  side 2    Res =  0.1671E+01
 MRCHDU: Convergence failed at  75  side 2    Res =  0.2026E+01
 MRCHDU: Convergence failed at  76  side 2    Res =  0.2446E+01
 MRCHDU: Convergence failed at  77  side 2    Res =  0.2899E+01
 MRCHDU: Convergence failed at  78  side 2    Res =  0.3333E+01
 MRCHDU: Convergence failed at  79  side 2    Res =  0.3697E+01
 MRCHDU: Convergence failed at  80  side 2    Res =  0.3977E+01
 MRCHDU: Convergence failed at  81  side 2    Res =  0.4223E+01
 MRCHDU: Convergence failed at  82  side 2    Res =  0.4419E+01
 MRCHDU: Convergence failed at  83  side 2    Res =  0.4494E+01
 MRCHDU: Convergence failed at  84  side 2    Res =  0.3505E+01
 Side 1  free  transition at x/c =  0.9175   72
 Side 2  free  transition at x/c =  0.8185   72

  11   rms: 0.1210E+00   max: 0.5918E+00   T at   84  2
       a = -2.000      CL = -0.0969
      Cm = -0.0345     CD =  0.01366   =>   CDf =  0.00515    CDp =  0.00851

 Side 1  free  transition at x/c =  0.9275   73
 Side 2  free  transition at x/c =  0.8423   74

  12   rms: 0.5760E-01   max: -.4128E+00   D at   79  2
       a = -2.000      CL = -0.1302
      Cm = -0.0284     CD =  0.01383   =>   CDf =  0.00536    CDp =  0.00847

 Side 1  free  transition at x/c =  0.9227   72
 Side 2  free  transition at x/c =  0.8071   72
 idif Ue xi dudx           1  0.19227801      2.59459019E-03   74.107277    
 Uenew xinew           2  4.13885824E-02  5.58495522E-04

  13   rms: 0.4607E+00   max: 0.2437E+01   T at   72  1   RLX: 0.255
       a = -2.000      CL = -0.2077
      Cm = -0.0151     CD =  0.01414   =>   CDf =  0.00544    CDp =  0.00870

 Side 1  free  transition at x/c =  0.9027   70
 Side 2  free  transition at x/c =  0.6716   64

  14   rms: 0.1574E+00   max: -.9232E+00   C at   64  2   RLX: 0.542
       a = -2.000      CL = -0.1537
      Cm = -0.0243     CD =  0.01536   =>   CDf =  0.00583    CDp =  0.00953

 MRCHDU: Convergence failed at  72  side 2    Res =  0.4728E+01
 MRCHDU: Convergence failed at  73  side 2    Res =  0.1440E+01
 MRCHDU: Convergence failed at  74  side 2    Res =  0.1612E+01
 MRCHDU: Convergence failed at  75  side 2    Res =  0.1953E+01
 MRCHDU: Convergence failed at  76  side 2    Res =  0.2331E+01
 MRCHDU: Convergence failed at  77  side 2    Res =  0.2694E+01
 MRCHDU: Convergence failed at  78  side 2    Res =  0.3042E+01
 MRCHDU: Convergence failed at  79  side 2    Res =  0.3338E+01
 MRCHDU: Convergence failed at  80  side 2    Res =  0.3620E+01
 MRCHDU: Convergence failed at  81  side 2    Res =  0.3893E+01
 MRCHDU: Convergence failed at  82  side 2    Res =  0.4127E+01
 MRCHDU: Convergence failed at  83  side 2    Res =  0.4246E+01
 MRCHDU: Convergence failed at  84  side 2    Res =  0.3081E+01
 Side 1  free  transition at x/c =  0.9196   72
 Side 2  free  transition at x/c =  0.8157   72

  15   rms: 0.1253E+00   max: 0.5863E+00   T at   84  2
       a = -2.000      CL = -0.1038
      Cm = -0.0329     CD =  0.01355   =>   CDf =  0.00516    CDp =  0.00840

 Side 1  free  transition at x/c =  0.9257   73
 Side 2  free  transition at x/c =  0.8298   73

  16   rms: 0.3865E-01   max: -.2150E+00   D at   76  2
       a = -2.000      CL = -0.1295
      Cm = -0.0279     CD =  0.01396   =>   CDf =  0.00537    CDp =  0.00858

 Side 1  free  transition at x/c =  0.9232   72
 Side 2  free  transition at x/c =  0.7975   71
 idif Ue xi dudx           1  0.20718555      2.82537937E-03   73.330170    
 Uenew xinew           2  5.78783825E-02  7.89284706E-04

  17   rms: 0.2761E+00   max: 0.1644E+01   T at   72  1   RLX: 0.492
       a = -2.000      CL = -0.2234
      Cm = -0.0117     CD =  0.01447   =>   CDf =  0.00552    CDp =  0.00895

 Side 1  free  transition at x/c =  0.8985   70
 Side 2  free  transition at x/c =  0.6232   62

  18   rms: 0.1817E+00   max: -.1834E+01   C at   62  2   RLX: 0.273
       a = -2.000      CL = -0.2014
      Cm = -0.0155     CD =  0.01737   =>   CDf =  0.00612    CDp =  0.01124

 Side 1  free  transition at x/c =  0.9051   70
 Side 2  free  transition at x/c =  0.6714   64

  19   rms: 0.3343E+00   max: 0.2148E+01   C at   65  2   RLX: 0.278
       a = -2.000      CL = -0.1420
      Cm = -0.0268     CD =  0.01673   =>   CDf =  0.00590    CDp =  0.01083

 MRCHDU: Convergence failed at  71  side 2    Res =  0.1535E+01
 MRCHDU: Convergence failed at  72  side 2    Res =  0.2236E+01
 MRCHDU: Convergence failed at  73  side 2    Res =  0.2059E+01
 MRCHDU: Convergence failed at  74  side 2    Res =  0.2085E+01
 MRCHDU: Convergence failed at  75  side 2    Res =  0.1288E+02
 MRCHDU: Convergence failed at  76  side 2    Res =  0.1249E+02
 MRCHDU: Convergence failed at  77  side 2    Res =  0.1068E+02
 MRCHDU: Convergence failed at  78  side 2    Res =  0.8978E+01
 MRCHDU: Convergence failed at  79  side 2    Res =  0.7329E+01
 MRCHDU: Convergence failed at  80  side 2    Res =  0.6710E+01
 MRCHDU: Convergence failed at  81  side 2    Res =  0.6259E+01
 MRCHDU: Convergence failed at  82  side 2    Res =  0.5932E+01
 MRCHDU: Convergence failed at  83  side 2    Res =  0.5641E+01
 MRCHDU: Convergence failed at  84  side 2    Res =  0.3969E+01
 Side 1  free  transition at x/c =  0.9239   72
 Side 2  free  transition at x/c =  0.8582   75
 idif Ue xi dudx           1  0.21591620      3.01611423E-03   71.587540    
 Uenew xinew           2  7.01571926E-02  9.80019569E-04

  20   rms: 0.1357E+01   max: 0.7824E+01   T at   72  1   RLX: 0.101
       a = -2.000      CL = -0.2690
      Cm =  0.0112     CD =  0.01280   =>   CDf =  0.00529    CDp =  0.00750

 Side 1  free  transition at x/c =  0.8997   70
 Side 2  free  transition at x/c =  0.6119   61

  21   rms: 0.1540E+00   max: -.8974E+00   C at   61  2   RLX: 0.557
       a = -2.000      CL = -0.2036
      Cm = -0.0087     CD =  0.01481   =>   CDf =  0.00658    CDp =  0.00823

 Side 1  free  transition at x/c =  0.9115   71
 Side 2  free  transition at x/c =  0.7583   70

  22   rms: 0.9647E-01   max: -.1063E+01   C at   70  2   RLX: 0.471
       a = -2.000      CL = -0.1879
      Cm = -0.0130     CD =  0.01389   =>   CDf =  0.00581    CDp =  0.00808

 Side 1  free  transition at x/c =  0.9134   71
 Side 2  free  transition at x/c =  0.7630   70

  23   rms: 0.4790E-01   max: -.3464E+00   C at   70  2
       a = -2.000      CL = -0.1528
      Cm = -0.0236     CD =  0.01391   =>   CDf =  0.00560    CDp =  0.00831

 Side 1  free  transition at x/c =  0.9168   72
 Side 2  free  transition at x/c =  0.7756   70

  24   rms: 0.1205E-01   max: -.7743E-01   C at   70  2
       a = -2.000      CL = -0.1466
      Cm = -0.0249     CD =  0.01405   =>   CDf =  0.00553    CDp =  0.00852

 Side 1  free  transition at x/c =  0.9180   72
 Side 2  free  transition at x/c =  0.7809   70

  25   rms: 0.1130E-02   max: 0.8779E-02   C at   70  2
       a = -2.000      CL = -0.1461
      Cm = -0.0250     CD =  0.01406   =>   CDf =  0.00550    CDp =  0.00856

 Side 1  free  transition at x/c =  0.9182   72
 Side 2  free  transition at x/c =  0.7807   70

  26   rms: 0.2455E-04   max: -.1396E-03   T at   72  1
       a = -2.000      CL = -0.1460
      Cm = -0.0250     CD =  0.01406   =>   CDf =  0.00550    CDp =  0.00856
 plradd ia,ip,cpol            5           0  7.23411376E-03

 Point added to stored polar  1
 Point written to save file  vr1_Re150k.base.pol                             
 Dump file unspecified or not available
 Calculating wake trajectory ...
 Calculating source influence matrix ...

 Solving BL system ...

 Side 1  free  transition at x/c =  0.9182   72
 Side 2  free  transition at x/c =  0.7808   70

   1   rms: 0.1566E+00   max: -.1203E+01   C at   70  2   RLX: 0.416
       a = -1.500      CL = -0.1265
      Cm = -0.0231     CD =  0.01411   =>   CDf =  0.00550    CDp =  0.00861

 Side 1  free  transition at x/c =  0.9127   72
 Side 2  free  transition at x/c =  0.8235   72

   2   rms: 0.9109E-01   max: 0.9331E+00   C at   72  2   RLX: 0.812
       a = -1.500      CL = -0.1053
      Cm = -0.0230     CD =  0.01442   =>   CDf =  0.00551    CDp =  0.00891

 MRCHDU: Convergence failed at  75  side 2    Res =  0.6932E+01
 MRCHDU: Convergence failed at  76  side 2    Res =  0.1920E+01
 MRCHDU: Convergence failed at  77  side 2    Res =  0.1133E+01
 MRCHDU: Convergence failed at  78  side 2    Res =  0.1938E+01
 MRCHDU: Convergence failed at  79  side 2    Res =  0.2626E+01
 MRCHDU: Convergence failed at  80  side 2    Res =  0.3460E+01
 MRCHDU: Convergence failed at  81  side 2    Res =  0.4363E+01
 MRCHDU: Convergence failed at  82  side 2    Res =  0.5301E+01
 MRCHDU: Convergence failed at  83  side 2    Res =  0.7050E+01
 MRCHDU: Convergence failed at  84  side 2    Res =  0.2647E+01
 Side 1  free  transition at x/c =  0.9072   71
 Side 2 forced transition at x/c =  1.0000   84

   3   rms: 0.1004E+01   max: 0.6652E+01   T at   71  1   RLX: 0.119
       a = -1.500      CL = -0.2292
      Cm =  0.0113     CD =  0.01284   =>   CDf =  0.00558    CDp =  0.00725

 Side 1  free  transition at x/c =  0.8838   70
 Side 2  free  transition at x/c =  0.8564   74

   4   rms: 0.9548E+00   max: 0.1332E+02   C at   74  2   RLX: 0.113
       a = -1.500      CL = -0.2213
      Cm =  0.0095     CD =  0.01688   =>   CDf =  0.00556    CDp =  0.01133

 Side 1  free  transition at x/c =  0.8859   70
 Side 2  free  transition at x/c =  0.9390   79

   5   rms: 0.2520E+00   max: 0.1135E+01   D at   84  2   RLX: 0.478
       a = -1.500      CL = -0.1422
      Cm = -0.0068     CD =  0.01521   =>   CDf =  0.00542    CDp =  0.00979

 MRCHDU: Convergence failed at  84  side 2    Res =  0.5062E+01
 Side 1  free  transition at x/c =  0.9065   71
 Side 2  free  transition at x/c =  0.9789   82

   6   rms: 0.7639E+00   max: 0.7416E+01   C at   82  2   RLX: 0.127
       a = -1.500      CL = -0.0756
      Cm = -0.0191     CD =  0.01242   =>   CDf =  0.00535    CDp =  0.00707

 Side 1  free  transition at x/c =  0.9296   73
 Side 2  free  transition at x/c =  0.9718   82

   7   rms: 0.1883E+00   max: 0.1469E+01   C at   82  2
       a = -1.500      CL = -0.1184
      Cm = -0.0143     CD =  0.01395   =>   CDf =  0.00545    CDp =  0.00850

 MRCHDU: Convergence failed at  78  side 1    Res =  0.9138E+00
 MRCHDU: Convergence failed at  83  side 2    Res =  0.2277E+01
 MRCHDU: Convergence failed at  84  side 2    Res =  0.4964E+01
 Side 1  free  transition at x/c =  0.9177   72
 Side 2  free  transition at x/c =  0.8949   77

   8   rms: 0.1262E+00   max: 0.7418E+00   D at   81  2
       a = -1.500      CL = -0.0628
      Cm = -0.0281     CD =  0.01377   =>   CDf =  0.00539    CDp =  0.00838

 Side 1  free  transition at x/c =  0.9126   72
 Side 2  free  transition at x/c =  0.9046   77

   9   rms: 0.1045E-01   max: -.8508E-01   D at   89  2
       a = -1.500      CL = -0.0635
      Cm = -0.0276     CD =  0.01454   =>   CDf =  0.00540    CDp =  0.00914

 Side 1  free  transition at x/c =  0.9117   72
 Side 2  free  transition at x/c =  0.8950   77

  10   rms: 0.6249E-02   max: -.4502E-01   D at   78  2
       a = -1.500      CL = -0.0666
      Cm = -0.0271     CD =  0.01452   =>   CDf =  0.00539    CDp =  0.00913

 Side 1  free  transition at x/c =  0.9113   72
 Side 2  free  transition at x/c =  0.8966   77

  11   rms: 0.3986E-03   max: 0.2336E-02   C at   77  2
       a = -1.500      CL = -0.0663
      Cm = -0.0271     CD =  0.01452   =>   CDf =  0.00539    CDp =  0.00913

 Side 1  free  transition at x/c =  0.9114   72
 Side 2  free  transition at x/c =  0.8965   77

  12   rms: 0.8036E-05   max: -.9423E-04   D at    4  2
       a = -1.500      CL = -0.0663
      Cm = -0.0271     CD =  0.01452   =>   CDf =  0.00539    CDp =  0.00913
 plradd ia,ip,cpol            6           0  7.23411376E-03

 Point added to stored polar  1
 Point written to save file  vr1_Re150k.base.pol                             
 Dump file unspecified or not available
 Calculating wake trajectory ...
 Calculating source influence matrix ...

 Solving BL system ...

 Side 1  free  transition at x/c =  0.9114   72
 Side 2  free  transition at x/c =  0.8965   77

   1   rms: 0.1642E+00   max: 0.6859E+00   D at   82  2   RLX: 0.916
       a = -1.000      CL =  0.0417
      Cm = -0.0358     CD =  0.01514   =>   CDf =  0.00540    CDp =  0.00973

 Side 1  free  transition at x/c =  0.9103   74
 Side 2  free  transition at x/c =  0.9581   79

   2   rms: 0.6779E-01   max: -.8821E+00   D at    2  1   RLX: 0.567
       a = -1.000      CL =  0.0565
      Cm = -0.0382     CD =  0.01497   =>   CDf =  0.00555    CDp =  0.00941

 Side 1  free  transition at x/c =  0.9113   74
 Side 2  free  transition at x/c =  0.9568   79

   3   rms: 0.2273E-01   max: 0.1868E+00   D at   80  2
       a = -1.000      CL =  0.0709
      Cm = -0.0407     CD =  0.01546   =>   CDf =  0.00557    CDp =  0.00990

 Side 1  free  transition at x/c =  0.9122   74
 Side 2  free  transition at x/c =  0.9545   78

   4   rms: 0.1637E-01   max: 0.1013E+00   D at   81  2
       a = -1.000      CL =  0.0856
      Cm = -0.0436     CD =  0.01548   =>   CDf =  0.00558    CDp =  0.00990

 MRCHDU: Convergence failed at  74  side 1    Res =  0.1602E-04
 Side 1  free  transition at x/c =  0.9140   74
 Side 2  free  transition at x/c =  0.9491   78

   5   rms: 0.5856E-02   max: -.3965E-01   D at   81  2
       a = -1.000      CL =  0.0819
      Cm = -0.0428     CD =  0.01548   =>   CDf =  0.00558    CDp =  0.00990

 Side 1  free  transition at x/c =  0.9136   74
 Side 2  free  transition at x/c =  0.9507   78

   6   rms: 0.3680E-03   max: -.2644E-02   D at   81  2
       a = -1.000      CL =  0.0817
      Cm = -0.0428     CD =  0.01548   =>   CDf =  0.00558    CDp =  0.00990

 Side 1  free  transition at x/c =  0.9136   74
 Side 2  free  transition at x/c =  0.9508   78

   7   rms: 0.1813E-05   max: -.1370E-04   T at   78  2
       a = -1.000      CL =  0.0817
      Cm = -0.0428     CD =  0.01548   =>   CDf =  0.00558    CDp =  0.00990
 plradd ia,ip,cpol            7           0  9.29158367E-03

 Point added to stored polar  1
 Point written to save file  vr1_Re150k.base.pol                             
 Dump file unspecified or not available
 Calculating wake trajectory ...
 Calculating source influence matrix ...

 Solving BL system ...

 Side 1  free  transition at x/c =  0.9136   74
 Side 2  free  transition at x/c =  0.9508   78

   1   rms: 0.1447E+00   max: -.4446E+00   T at   78  2
       a = -0.500      CL =  0.2103
      Cm = -0.0565     CD =  0.01567   =>   CDf =  0.00559    CDp =  0.01008

 Side 1  free  transition at x/c =  0.9121   75
 Side 2  free  transition at x/c =  0.9552   77

   2   rms: 0.2567E+00   max: -.2513E+01   T at   77  2   RLX: 0.199
       a = -0.500      CL =  0.1734
      Cm = -0.0504     CD =  0.01815   =>   CDf =  0.00572    CDp =  0.01243

 Side 1  free  transition at x/c =  0.9077   75
 Side 2  free  transition at x/c =  0.9744   79

   3   rms: 0.3460E-01   max: 0.3637E+00   D at   81  2
       a = -0.500      CL =  0.1955
      Cm = -0.0543     CD =  0.01531   =>   CDf =  0.00572    CDp =  0.00959

 Side 1  free  transition at x/c =  0.9097   75
 Side 2  free  transition at x/c =  0.9693   78

   4   rms: 0.7740E-02   max: 0.5692E-01   T at   78  2
       a = -0.500      CL =  0.2018
      Cm = -0.0556     CD =  0.01531   =>   CDf =  0.00573    CDp =  0.00958

 Side 1  free  transition at x/c =  0.9104   75
 Side 2  free  transition at x/c =  0.9666   78

   5   rms: 0.1318E-02   max: -.9293E-02   D at   81  2
       a = -0.500      CL =  0.2008
      Cm = -0.0554     CD =  0.01532   =>   CDf =  0.00573    CDp =  0.00959

 Side 1  free  transition at x/c =  0.9103   75
 Side 2  free  transition at x/c =  0.9670   78

   6   rms: 0.2430E-04   max: -.1840E-03   D at   81  2
       a = -0.500      CL =  0.2008
      Cm = -0.0554     CD =  0.01532   =>   CDf =  0.00573    CDp =  0.00959
 plradd ia,ip,cpol            8           0  0.37034386    

 Point added to stored polar  1
 Point written to save file  vr1_Re150k.base.pol                             
 Dump file unspecified or not available
 Calculating wake trajectory ...
 Calculating source influence matrix ...

 Solving BL system ...

 Side 1  free  transition at x/c =  0.9103   75
 Side 2  free  transition at x/c =  0.9670   78

   1   rms: 0.1206E+00   max: -.3270E+00   T at   78  2
       a =  0.000      CL =  0.3068
      Cm = -0.0655     CD =  0.01503   =>   CDf =  0.00573    CDp =  0.00930

 Side 1  free  transition at x/c =  0.9058   75
 Side 2  free  transition at x/c =  0.9862   79

   2   rms: 0.2539E-01   max: 0.1723E+00   D at   79  2
       a =  0.000      CL =  0.3037
      Cm = -0.0654     CD =  0.01505   =>   CDf =  0.00579    CDp =  0.00926

 Side 1  free  transition at x/c =  0.9015   75
 Side 2  free  transition at x/c =  0.9846   79

   3   rms: 0.4967E-02   max: -.2986E-01   D at   77  1
       a =  0.000      CL =  0.3060
      Cm = -0.0657     CD =  0.01503   =>   CDf =  0.00577    CDp =  0.00926

 Side 1  free  transition at x/c =  0.9026   75
 Side 2  free  transition at x/c =  0.9839   79

   4   rms: 0.3300E-03   max: -.1900E-02   D at   86  2
       a =  0.000      CL =  0.3061
      Cm = -0.0657     CD =  0.01503   =>   CDf =  0.00577    CDp =  0.00926

 Side 1  free  transition at x/c =  0.9027   75
 Side 2  free  transition at x/c =  0.9839   79

   5   rms: 0.1615E-05   max: -.1080E-04   D at   79  2
       a =  0.000      CL =  0.3061
      Cm = -0.0657     CD =  0.01503   =>   CDf =  0.00577    CDp =  0.00926
 plradd ia,ip,cpol            9           0  2.75956430E-02

 Point added to stored polar  1
 Point written to save file  vr1_Re150k.base.pol                             
 Dump file unspecified or not available
 Calculating wake trajectory ...
 Calculating source influence matrix ...

 Solving BL system ...

 Side 1  free  transition at x/c =  0.9027   75
 Side 2  free  transition at x/c =  0.9839   79

   1   rms: 0.1289E+00   max: -.3567E+00   T at   79  2
       a =  0.500      CL =  0.4235
      Cm = -0.0788     CD =  0.01440   =>   CDf =  0.00577    CDp =  0.00863

 Side 1  free  transition at x/c =  0.8929   76
 Side 2  free  transition at x/c =  0.9948   79

   2   rms: 0.2717E-01   max: -.1779E+00   D at   79  2
       a =  0.500      CL =  0.4176
      Cm = -0.0774     CD =  0.01429   =>   CDf =  0.00574    CDp =  0.00855

 Side 1  free  transition at x/c =  0.8944   76
 Side 2  free  transition at x/c =  0.9983   79

   3   rms: 0.9344E-03   max: -.1618E-01   D at   79  2
       a =  0.500      CL =  0.4176
      Cm = -0.0774     CD =  0.01437   =>   CDf =  0.00575    CDp =  0.00862

 Side 1  free  transition at x/c =  0.8944   76
 Side 2  free  transition at x/c =  0.9984   79

   4   rms: 0.9149E-05   max: 0.5608E-04   T at   79  2
       a =  0.500      CL =  0.4176
      Cm = -0.0774     CD =  0.01437   =>   CDf =  0.00575    CDp =  0.00862
 plradd ia,ip,cpol           10           0  1.57911312E-02

 Point added to stored polar  1
 Point written to save file  vr1_Re150k.base.pol                             
 Dump file unspecified or not available
 Calculating wake trajectory ...
 Calculating source influence matrix ...

 Solving BL system ...

 Side 1  free  transition at x/c =  0.8944   76
 Side 2  free  transition at x/c =  0.9984   79

   1   rms: 0.1298E+00   max: -.4122E+00   T at   79  2
       a =  1.000      CL =  0.5328
      Cm = -0.0896     CD =  0.01343   =>   CDf =  0.00574    CDp =  0.00769

 Side 1  free  transition at x/c =  0.8672   75
 Side 2 forced transition at x/c =  1.0000   78

   2   rms: 0.6879E-01   max: -.4006E+00   D at   78  2
       a =  1.000      CL =  0.4729
      Cm = -0.0773     CD =  0.01406   =>   CDf =  0.00567    CDp =  0.00839

 Side 1  free  transition at x/c =  0.8720   75
 Side 2 forced transition at x/c =  1.0000   78

   3   rms: 0.4880E-02   max: 0.3643E-01   D at   81  2
       a =  1.000      CL =  0.4732
      Cm = -0.0772     CD =  0.01384   =>   CDf =  0.00576    CDp =  0.00808

 Side 1  free  transition at x/c =  0.8730   75
 Side 2 forced transition at x/c =  1.0000   78

   4   rms: 0.1676E-03   max: -.1024E-02   D at   84  2
       a =  1.000      CL =  0.4733
      Cm = -0.0772     CD =  0.01384   =>   CDf =  0.00576    CDp =  0.00808

 Side 1  free  transition at x/c =  0.8731   75
 Side 2 forced transition at x/c =  1.0000   78

   5   rms: 0.3144E-05   max: -.2066E-04   D at    4  1
       a =  1.000      CL =  0.4733
      Cm = -0.0772     CD =  0.01384   =>   CDf =  0.00576    CDp =  0.00808
 plradd ia,ip,cpol           11           0  1.28276441E-02

 Point added to stored polar  1
 Point written to save file  vr1_Re150k.base.pol                             
 Dump file unspecified or not available
 Calculating wake trajectory ...
 Calculating source influence matrix ...

 Solving BL system ...

 Side 1  free  transition at x/c =  0.8731   75
 Side 2 forced transition at x/c =  1.0000   78

   1   rms: 0.9981E-01   max: 0.8842E+00   T at   75  1   RLX: 0.904
       a =  1.500      CL =  0.4530
      Cm = -0.0659     CD =  0.01504   =>   CDf =  0.00577    CDp =  0.00928

 Side 1  free  transition at x/c =  0.8340   73
 Side 2 forced transition at x/c =  1.0000   78

   2   rms: 0.1133E+00   max: -.6195E+00   D at   78  1   RLX: 0.807
       a =  1.500      CL =  0.4975
      Cm = -0.0694     CD =  0.01376   =>   CDf =  0.00577    CDp =  0.00799

 Side 1  free  transition at x/c =  0.8517   74
 Side 2 forced transition at x/c =  1.0000   78

   3   rms: 0.2452E-01   max: 0.2437E+00   D at   75  1
       a =  1.500      CL =  0.5070
      Cm = -0.0723     CD =  0.01351   =>   CDf =  0.00578    CDp =  0.00773

 Side 1  free  transition at x/c =  0.8438   74
 Side 2 forced transition at x/c =  1.0000   78

   4   rms: 0.4225E-02   max: -.3046E-01   D at   74  1
       a =  1.500      CL =  0.5093
      Cm = -0.0727     CD =  0.01345   =>   CDf =  0.00578    CDp =  0.00767

 Side 1  free  transition at x/c =  0.8444   74
 Side 2 forced transition at x/c =  1.0000   78

   5   rms: 0.3818E-04   max: 0.4359E-03   D at   76  1
       a =  1.500      CL =  0.5093
      Cm = -0.0727     CD =  0.01345   =>   CDf =  0.00577    CDp =  0.00768
 plradd ia,ip,cpol           12           0  1.28276441E-02

 Point added to stored polar  1
 Point written to save file  vr1_Re150k.base.pol                             
 Dump file unspecified or not available
 Calculating wake trajectory ...
 Calculating source influence matrix ...

 Solving BL system ...

 Side 1  free  transition at x/c =  0.8443   74
 Side 2 forced transition at x/c =  1.0000   78

   1   rms: 0.9541E-01   max: -.1058E+00   D at   82  2
       a =  2.000      CL =  0.5601
      Cm = -0.0701     CD =  0.01270   =>   CDf =  0.00577    CDp =  0.00693

 Side 1  free  transition at x/c =  0.8071   73
 Side 2 forced transition at x/c =  1.0000   77

   2   rms: 0.3994E-01   max: -.3978E+00   D at   74  1
       a =  2.000      CL =  0.5504
      Cm = -0.0682     CD =  0.01285   =>   CDf =  0.00574    CDp =  0.00710

 Side 1  free  transition at x/c =  0.8122   73
 Side 2 forced transition at x/c =  1.0000   77

   3   rms: 0.6964E-02   max: 0.5585E-01   D at   75  1
       a =  2.000      CL =  0.5460
      Cm = -0.0676     CD =  0.01290   =>   CDf =  0.00580    CDp =  0.00710

 Side 1  free  transition at x/c =  0.8115   73
 Side 2 forced transition at x/c =  1.0000   77

   4   rms: 0.1782E-03   max: 0.1432E-02   D at   75  1
       a =  2.000      CL =  0.5459
      Cm = -0.0676     CD =  0.01289   =>   CDf =  0.00581    CDp =  0.00708

 Side 1  free  transition at x/c =  0.8115   73
 Side 2 forced transition at x/c =  1.0000   77

   5   rms: 0.1315E-05   max: 0.6473E-05   D at   84  1
       a =  2.000      CL =  0.5459
      Cm = -0.0676     CD =  0.01289   =>   CDf =  0.00581    CDp =  0.00708
 plradd ia,ip,cpol           13           0  1.28276441E-02

 Point added to stored polar  1
 Point written to save file  vr1_Re150k.base.pol                             
 Dump file unspecified or not available
 Calculating wake trajectory ...
 Calculating source influence matrix ...

 Solving BL system ...

 Side 1  free  transition at x/c =  0.8115   73
 Side 2 forced transition at x/c =  1.0000   77

   1   rms: 0.1092E+00   max: 0.5884E+00   T at   73  1
       a =  2.500      CL =  0.5923
      Cm = -0.0631     CD =  0.01182   =>   CDf =  0.00580    CDp =  0.00601

 MRCHDU: Convergence failed at  75  side 1    Res =  0.1636E+01
 MRCHDU: Convergence failed at  76  side 1    Res =  0.1702E+02
 MRCHDU: Convergence failed at  77  side 1    Res =  0.4383E+01
 MRCHDU: Convergence failed at  78  side 1    Res =  0.3215E+01
 MRCHDU: Convergence failed at  79  side 1    Res =  0.3437E+01
 MRCHDU: Convergence failed at  80  side 1    Res =  0.4442E+01
 MRCHDU: Convergence failed at  81  side 1    Res =  0.6239E+01
 MRCHDU: Convergence failed at  82  side 1    Res =  0.1039E+02
 MRCHDU: Convergence failed at  83  side 1    Res =  0.2159E+02
 MRCHDU: Convergence failed at  84  side 1    Res =  0.9009E+02
 MRCHDU: Convergence failed at  85  side 1    Res =  0.1285E+02
 MRCHDU: Convergence failed at  86  side 1    Res =  0.4627E+01
 Side 1  free  transition at x/c =  0.7774   72
 Side 2 forced transition at x/c =  1.0000   76
 idif Ue xi dudx           1  0.27651414      3.52060795E-03   78.541588    
 Uenew xinew           2  0.12131493      1.54459476E-03

   2   rms: 0.2065E+00   max: 0.8457E+00   D at   81  2
       a =  2.500      CL =  0.4679
      Cm = -0.0416     CD =  0.01205   =>   CDf =  0.00563    CDp =  0.00642

 Side 1  free  transition at x/c =  0.7901   71
 Side 2 forced transition at x/c =  1.0000   77

   3   rms: 0.1200E+00   max: -.5627E+00   C at   71  1   RLX: 0.889
       a =  2.500      CL =  0.5643
      Cm = -0.0607     CD =  0.01261   =>   CDf =  0.00608    CDp =  0.00653

 Side 1  free  transition at x/c =  0.7643   70
 Side 2 forced transition at x/c =  1.0000   77

   4   rms: 0.4749E-01   max: -.3907E+00   D at   73  1
       a =  2.500      CL =  0.5832
      Cm = -0.0623     CD =  0.01215   =>   CDf =  0.00600    CDp =  0.00615

 Side 1  free  transition at x/c =  0.7754   71
 Side 2 forced transition at x/c =  1.0000   77

   5   rms: 0.5747E-02   max: 0.5748E-01   D at   72  1
       a =  2.500      CL =  0.5845
      Cm = -0.0625     CD =  0.01226   =>   CDf =  0.00591    CDp =  0.00635

 Side 1  free  transition at x/c =  0.7735   70
 Side 2 forced transition at x/c =  1.0000   77

   6   rms: 0.2075E-02   max: 0.1934E-01   D at   72  1
       a =  2.500      CL =  0.5834
      Cm = -0.0624     CD =  0.01229   =>   CDf =  0.00590    CDp =  0.00639

 Side 1  free  transition at x/c =  0.7730   70
 Side 2 forced transition at x/c =  1.0000   77

   7   rms: 0.2429E-04   max: -.2018E-03   D at   71  1
       a =  2.500      CL =  0.5834
      Cm = -0.0624     CD =  0.01229   =>   CDf =  0.00590    CDp =  0.00639
 plradd ia,ip,cpol           14           0  1.28276441E-02

 Point added to stored polar  1
 Point written to save file  vr1_Re150k.base.pol                             
 Dump file unspecified or not available
 Calculating wake trajectory ...
 Calculating source influence matrix ...

 Solving BL system ...

 Side 1  free  transition at x/c =  0.7730   70
 Side 2 forced transition at x/c =  1.0000   77

   1   rms: 0.8447E-01   max: 0.6008E+00   T at   70  1
       a =  3.000      CL =  0.5984
      Cm = -0.0550     CD =  0.01256   =>   CDf =  0.00589    CDp =  0.00667

 Side 1  free  transition at x/c =  0.7222   68
 Side 2 forced transition at x/c =  1.0000   76

   2   rms: 0.6111E-01   max: -.5198E+00   D at   70  1   RLX: 0.962
       a =  3.000      CL =  0.6227
      Cm = -0.0576     CD =  0.01194   =>   CDf =  0.00602    CDp =  0.00591

 Side 1  free  transition at x/c =  0.7377   69
 Side 2 forced transition at x/c =  1.0000   76

   3   rms: 0.2316E-01   max: 0.2300E+00   C at   69  1
       a =  3.000      CL =  0.6221
      Cm = -0.0578     CD =  0.01185   =>   CDf =  0.00580    CDp =  0.00605

 Side 1  free  transition at x/c =  0.7320   69
 Side 2 forced transition at x/c =  1.0000   76

   4   rms: 0.4870E-02   max: 0.3203E-01   D at   70  1
       a =  3.000      CL =  0.6189
      Cm = -0.0574     CD =  0.01199   =>   CDf =  0.00587    CDp =  0.00612

 Side 1  free  transition at x/c =  0.7310   69
 Side 2 forced transition at x/c =  1.0000   76

   5   rms: 0.1005E-03   max: -.9417E-03   D at   74  1
       a =  3.000      CL =  0.6188
      Cm = -0.0573     CD =  0.01199   =>   CDf =  0.00589    CDp =  0.00609

 Side 1  free  transition at x/c =  0.7310   69
 Side 2 forced transition at x/c =  1.0000   76

   6   rms: 0.4778E-06   max: -.2888E-05   D at   69  1
       a =  3.000      CL =  0.6188
      Cm = -0.0573     CD =  0.01199   =>   CDf =  0.00589    CDp =  0.00609
 plradd ia,ip,cpol           15           0  1.02677140E-02

 Point added to stored polar  1
 Point written to save file  vr1_Re150k.base.pol                             
 Dump file unspecified or not available
 Calculating wake trajectory ...
 Calculating source influence matrix ...

 Solving BL system ...

 Side 1  free  transition at x/c =  0.7310   69
 Side 2 forced transition at x/c =  1.0000   76

   1   rms: 0.9487E-01   max: 0.4988E+00   T at   69  1
       a =  3.500      CL =  0.6575
      Cm = -0.0527     CD =  0.01162   =>   CDf =  0.00588    CDp =  0.00574

 Side 1  free  transition at x/c =  0.6680   66
 Side 2 forced transition at x/c =  1.0000   75

   2   rms: 0.3031E-01   max: 0.4220E+00   D at   69  1
       a =  3.500      CL =  0.6508
      Cm = -0.0516     CD =  0.01200   =>   CDf =  0.00602    CDp =  0.00598

 Side 1  free  transition at x/c =  0.6721   66
 Side 2 forced transition at x/c =  1.0000   75

   3   rms: 0.5840E-02   max: 0.6921E-01   D at   70  1
       a =  3.500      CL =  0.6539
      Cm = -0.0521     CD =  0.01175   =>   CDf =  0.00599    CDp =  0.00576

 Side 1  free  transition at x/c =  0.6702   66
 Side 2 forced transition at x/c =  1.0000   75

   4   rms: 0.1240E-03   max: -.1666E-02   D at   70  1
       a =  3.500      CL =  0.6539
      Cm = -0.0521     CD =  0.01175   =>   CDf =  0.00597    CDp =  0.00578

 Side 1  free  transition at x/c =  0.6702   66
 Side 2 forced transition at x/c =  1.0000   75

   5   rms: 0.1039E-05   max: -.7380E-05   D at    4  1
       a =  3.500      CL =  0.6539
      Cm = -0.0521     CD =  0.01175   =>   CDf =  0.00597    CDp =  0.00578
 plradd ia,ip,cpol           16           0  1.02677140E-02

 Point added to stored polar  1
 Point written to save file  vr1_Re150k.base.pol                             
 Dump file unspecified or not available
 Calculating wake trajectory ...
 Calculating source influence matrix ...

 Solving BL system ...

 Side 1  free  transition at x/c =  0.6702   66
 Side 2 forced transition at x/c =  1.0000   75

   1   rms: 0.9395E-01   max: 0.4537E+00   T at   66  1
       a =  4.000      CL =  0.6821
      Cm = -0.0458     CD =  0.01170   =>   CDf =  0.00597    CDp =  0.00573

 Side 1  free  transition at x/c =  0.5278   57
 Side 2 forced transition at x/c =  1.0000   75

   2   rms: 0.4181E-01   max: -.3072E+00   D at   59  1
       a =  4.000      CL =  0.6777
      Cm = -0.0444     CD =  0.01191   =>   CDf =  0.00653    CDp =  0.00538

 Side 1  free  transition at x/c =  0.4642   53
 Side 2 forced transition at x/c =  1.0000   75

   3   rms: 0.8873E-02   max: -.1079E+00   C at   53  1
       a =  4.000      CL =  0.6731
      Cm = -0.0435     CD =  0.01226   =>   CDf =  0.00685    CDp =  0.00542

 Side 1  free  transition at x/c =  0.4683   54
 Side 2 forced transition at x/c =  1.0000   75

   4   rms: 0.1038E-02   max: 0.1704E-01   C at   54  1
       a =  4.000      CL =  0.6731
      Cm = -0.0435     CD =  0.01227   =>   CDf =  0.00681    CDp =  0.00545

 Side 1  free  transition at x/c =  0.4675   54
 Side 2 forced transition at x/c =  1.0000   75

   5   rms: 0.8592E-05   max: -.1428E-03   C at   54  1
       a =  4.000      CL =  0.6731
      Cm = -0.0435     CD =  0.01227   =>   CDf =  0.00682    CDp =  0.00545
 plradd ia,ip,cpol           17           0  1.02677140E-02

 Point added to stored polar  1
 Point written to save file  vr1_Re150k.base.pol                             
 Dump file unspecified or not available
 Calculating wake trajectory ...
 Calculating source influence matrix ...

 Solving BL system ...

 Side 1  free  transition at x/c =  0.4675   54
 Side 2 forced transition at x/c =  1.0000   75

   1   rms: 0.4383E+00   max: 0.7265E+01   C at   54  1   RLX: 0.206
       a =  4.500      CL =  0.6681
      Cm = -0.0403     CD =  0.01287   =>   CDf =  0.00682    CDp =  0.00605

 Side 1  free  transition at x/c =  0.3559   47
 Side 2 forced transition at x/c =  1.0000   75

   2   rms: 0.3985E+00   max: 0.6930E+01   C at   47  1   RLX: 0.216
       a =  4.500      CL =  0.6617
      Cm = -0.0376     CD =  0.01382   =>   CDf =  0.00749    CDp =  0.00633

 Side 1  free  transition at x/c =  0.2759   42
 Side 2 forced transition at x/c =  1.0000   75

   3   rms: 0.3123E+00   max: 0.5648E+01   C at   42  1   RLX: 0.266
       a =  4.500      CL =  0.6570
      Cm = -0.0354     CD =  0.01454   =>   CDf =  0.00796    CDp =  0.00658

 Side 1  free  transition at x/c =  0.2223   38
 Side 2 forced transition at x/c =  1.0000   75

   4   rms: 0.1787E+00   max: 0.3318E+01   C at   38  1   RLX: 0.452
       a =  4.500      CL =  0.6566
      Cm = -0.0336     CD =  0.01514   =>   CDf =  0.00831    CDp =  0.00682

 Side 1  free  transition at x/c =  0.1819   36
 Side 2 forced transition at x/c =  1.0000   75

   5   rms: 0.4525E-01   max: 0.5381E+00   C at   36  1
       a =  4.500      CL =  0.6603
      Cm = -0.0318     CD =  0.01577   =>   CDf =  0.00863    CDp =  0.00713

 Side 1  free  transition at x/c =  0.1602   34
 Side 2 forced transition at x/c =  1.0000   75

   6   rms: 0.1171E-01   max: 0.1843E+00   D at   35  1
       a =  4.500      CL =  0.6619
      Cm = -0.0320     CD =  0.01563   =>   CDf =  0.00884    CDp =  0.00679

 Side 1  free  transition at x/c =  0.1604   34
 Side 2 forced transition at x/c =  1.0000   75

   7   rms: 0.2117E-02   max: 0.3426E-01   C at   34  1
       a =  4.500      CL =  0.6620
      Cm = -0.0321     CD =  0.01562   =>   CDf =  0.00880    CDp =  0.00682

 Side 1  free  transition at x/c =  0.1595   34
 Side 2 forced transition at x/c =  1.0000   75

   8   rms: 0.4763E-04   max: -.6781E-03   C at   34  1
       a =  4.500      CL =  0.6620
      Cm = -0.0321     CD =  0.01562   =>   CDf =  0.00881    CDp =  0.00681
 plradd ia,ip,cpol           18           0  1.02677140E-02

 Point added to stored polar  1
 Point written to save file  vr1_Re150k.base.pol                             
 Dump file unspecified or not available
 Calculating wake trajectory ...
 Calculating source influence matrix ...

 Solving BL system ...

 Side 1  free  transition at x/c =  0.1595   34
 Side 2 forced transition at x/c =  1.0000   75

   1   rms: 0.1259E+00   max: 0.1387E+01   C at   34  1   RLX: 0.845
       a =  5.000      CL =  0.6812
      Cm = -0.0269     CD =  0.01707   =>   CDf =  0.00878    CDp =  0.00829

 Side 1  free  transition at x/c =  0.1239   33
 Side 2 forced transition at x/c =  1.0000   74

   2   rms: 0.3493E-01   max: -.4426E+00   D at   33  1
       a =  5.000      CL =  0.6817
      Cm = -0.0257     CD =  0.01736   =>   CDf =  0.00916    CDp =  0.00820

 Side 1  free  transition at x/c =  0.1199   33
 Side 2 forced transition at x/c =  1.0000   74

   3   rms: 0.3793E-02   max: 0.4628E-01   D at   34  1
       a =  5.000      CL =  0.6827
      Cm = -0.0259     CD =  0.01740   =>   CDf =  0.00915    CDp =  0.00825

 Side 1  free  transition at x/c =  0.1196   33
 Side 2 forced transition at x/c =  1.0000   74

   4   rms: 0.1331E-03   max: 0.9953E-03   T at   33  1
       a =  5.000      CL =  0.6827
      Cm = -0.0259     CD =  0.01740   =>   CDf =  0.00916    CDp =  0.00824

 Side 1  free  transition at x/c =  0.1196   33
 Side 2 forced transition at x/c =  1.0000   74

   5   rms: 0.3629E-05   max: -.2037E-04   T at   33  1
       a =  5.000      CL =  0.6827
      Cm = -0.0259     CD =  0.01740   =>   CDf =  0.00916    CDp =  0.00824
 plradd ia,ip,cpol           19           0  8.06687586E-03

 Point added to stored polar  1
 Point written to save file  vr1_Re150k.base.pol                             
 Dump file unspecified or not available
 Calculating wake trajectory ...
 Calculating source influence matrix ...

 Solving BL system ...

 Side 1  free  transition at x/c =  0.1196   33
 Side 2 forced transition at x/c =  1.0000   74

   1   rms: 0.1196E+00   max: 0.8020E+00   T at   33  1
       a =  5.500      CL =  0.6948
      Cm = -0.0186     CD =  0.02019   =>   CDf =  0.00916    CDp =  0.01103

 MRCHDU: Convergence failed at  33  side 1    Res =  0.9991E+01
 MRCHDU: Convergence failed at  34  side 1    Res =  0.5807E+01
 Side 1  free  transition at x/c =  0.1034   31
 Side 2 forced transition at x/c =  1.0000   74

   2   rms: 0.7269E-01   max: -.7177E+00   D at   34  1   RLX: 0.697
       a =  5.500      CL =  0.7086
      Cm = -0.0199     CD =  0.01985   =>   CDf =  0.00928    CDp =  0.01057

 Side 1  free  transition at x/c =  0.1016   31
 Side 2 forced transition at x/c =  1.0000   74

   3   rms: 0.2322E-01   max: -.3410E+00   D at   32  1
       a =  5.500      CL =  0.7097
      Cm = -0.0208     CD =  0.01912   =>   CDf =  0.00936    CDp =  0.00976

 Side 1  free  transition at x/c =  0.1009   31
 Side 2 forced transition at x/c =  1.0000   74

   4   rms: 0.4720E-02   max: 0.3973E-01   D at   32  1
       a =  5.500      CL =  0.7112
      Cm = -0.0210     CD =  0.01917   =>   CDf =  0.00930    CDp =  0.00987

 Side 1  free  transition at x/c =  0.1002   31
 Side 2 forced transition at x/c =  1.0000   74

   5   rms: 0.9837E-04   max: -.5567E-03   T at   31  1
       a =  5.500      CL =  0.7112
      Cm = -0.0210     CD =  0.01916   =>   CDf =  0.00930    CDp =  0.00987
 plradd ia,ip,cpol           20           0  8.06687586E-03

 Point added to stored polar  1
 Point written to save file  vr1_Re150k.base.pol                             
 Dump file unspecified or not available
 Calculating wake trajectory ...
 Calculating source influence matrix ...

 Solving BL system ...

 Side 1  free  transition at x/c =  0.1002   31
 Side 2 forced transition at x/c =  1.0000   74

   1   rms: 0.8724E-01   max: 0.6711E+00   T at   31  1
       a =  6.000      CL =  0.7487
      Cm = -0.0174     CD =  0.02058   =>   CDf =  0.00924    CDp =  0.01134

 Side 1  free  transition at x/c =  0.0867   31
 Side 2 forced transition at x/c =  1.0000   73

   2   rms: 0.4466E-01   max: -.2654E+00   D at   31  1
       a =  6.000      CL =  0.7449
      Cm = -0.0173     CD =  0.02100   =>   CDf =  0.00952    CDp =  0.01148

 Side 1  free  transition at x/c =  0.0873   31
 Side 2 forced transition at x/c =  1.0000   73

   3   rms: 0.5044E-02   max: 0.3588E-01   D at   32  1
       a =  6.000      CL =  0.7486
      Cm = -0.0178     CD =  0.02106   =>   CDf =  0.00941    CDp =  0.01165

 Side 1  free  transition at x/c =  0.0868   31
 Side 2 forced transition at x/c =  1.0000   73

   4   rms: 0.1081E-03   max: -.4718E-03   T at   31  1
       a =  6.000      CL =  0.7485
      Cm = -0.0178     CD =  0.02105   =>   CDf =  0.00941    CDp =  0.01165

 Side 1  free  transition at x/c =  0.0868   31
 Side 2 forced transition at x/c =  1.0000   73

   5   rms: 0.1200E-05   max: 0.8952E-05   D at    4  1
       a =  6.000      CL =  0.7485
      Cm = -0.0178     CD =  0.02105   =>   CDf =  0.00941    CDp =  0.01165
 plradd ia,ip,cpol           21           0  8.06687586E-03

 Point added to stored polar  1
 Point written to save file  vr1_Re150k.base.pol                             
 Dump file unspecified or not available
 Calculating wake trajectory ...
 Calculating source influence matrix ...

 Solving BL system ...

 Side 1  free  transition at x/c =  0.0868   31
 Side 2 forced transition at x/c =  1.0000   73

   1   rms: 0.8435E-01   max: 0.5789E+00   T at   31  1
       a =  6.500      CL =  0.7919
      Cm = -0.0153     CD =  0.02250   =>   CDf =  0.00941    CDp =  0.01309

 Side 1  free  transition at x/c =  0.0785   31
 Side 2 forced transition at x/c =  1.0000   73

   2   rms: 0.2005E-01   max: -.1597E+00   D at   32  1
       a =  6.500      CL =  0.7927
      Cm = -0.0158     CD =  0.02297   =>   CDf =  0.00950    CDp =  0.01347

 Side 1  free  transition at x/c =  0.0786   31
 Side 2 forced transition at x/c =  1.0000   73

   3   rms: 0.1365E-02   max: 0.8459E-02   T at   31  1
       a =  6.500      CL =  0.7936
      Cm = -0.0160     CD =  0.02301   =>   CDf =  0.00947    CDp =  0.01354

 Side 1  free  transition at x/c =  0.0785   31
 Side 2 forced transition at x/c =  1.0000   73

   4   rms: 0.4676E-04   max: -.2250E-03   T at   31  1
       a =  6.500      CL =  0.7935
      Cm = -0.0160     CD =  0.02301   =>   CDf =  0.00947    CDp =  0.01353
 plradd ia,ip,cpol           22           0  8.06687586E-03

 Point added to stored polar  1
 Point written to save file  vr1_Re150k.base.pol                             
 Dump file unspecified or not available
 Calculating wake trajectory ...
 Calculating source influence matrix ...

 Solving BL system ...

 Side 1  free  transition at x/c =  0.0785   31
 Side 2 forced transition at x/c =  1.0000   73

   1   rms: 0.1080E+00   max: 0.6383E+00   T at   31  1
       a =  7.000      CL =  0.8482
      Cm = -0.0162     CD =  0.02618   =>   CDf =  0.00938    CDp =  0.01680

 MRCHDU: Convergence failed at  32  side 1    Res =  0.1215E+02
 MRCHDU: Convergence failed at  33  side 1    Res =  0.4831E+02
 MRCHDU: Convergence failed at  34  side 1    Res =  0.2891E+02
 MRCHDU: Convergence failed at  35  side 1    Res =  0.4482E+02
 MRCHDU: Convergence failed at  36  side 1    Res =  0.2983E+02
 MRCHDU: Convergence failed at  37  side 1    Res =  0.2868E+02
 MRCHDU: Convergence failed at  38  side 1    Res =  0.3391E+02
 MRCHDU: Convergence failed at  39  side 1    Res =  0.3894E+02
 MRCHDU: Convergence failed at  40  side 1    Res =  0.4461E+02
 MRCHDU: Convergence failed at  41  side 1    Res =  0.5007E+02
 MRCHDU: Convergence failed at  42  side 1    Res =  0.5395E+02
 MRCHDU: Convergence failed at  43  side 1    Res =  0.5623E+02
 MRCHDU: Convergence failed at  44  side 1    Res =  0.5727E+02
 MRCHDU: Convergence failed at  45  side 1    Res =  0.5703E+02
 MRCHDU: Convergence failed at  46  side 1    Res =  0.5640E+02
 MRCHDU: Convergence failed at  47  side 1    Res =  0.5544E+02
 MRCHDU: Convergence failed at  48  side 1    Res =  0.5532E+02
 MRCHDU: Convergence failed at  49  side 1    Res =  0.5428E+02
 MRCHDU: Convergence failed at  50  side 1    Res =  0.5291E+02
 MRCHDU: Convergence failed at  51  side 1    Res =  0.5101E+02
 MRCHDU: Convergence failed at  52  side 1    Res =  0.4895E+02
 MRCHDU: Convergence failed at  53  side 1    Res =  0.4637E+02
 MRCHDU: Convergence failed at  54  side 1    Res =  0.4406E+02
 MRCHDU: Convergence failed at  55  side 1    Res =  0.4307E+02
 MRCHDU: Convergence failed at  56  side 1    Res =  0.5569E+02
 MRCHDU: Convergence failed at  57  side 1    Res =  0.6485E+02
 MRCHDU: Convergence failed at  58  side 1    Res =  0.3903E+02
 MRCHDU: Convergence failed at  59  side 1    Res =  0.4369E+02
 MRCHDU: Convergence failed at  60  side 1    Res =  0.5840E+02
 MRCHDU: Convergence failed at  61  side 1    Res =  0.1132E+03
 MRCHDU: Convergence failed at  62  side 1    Res =  0.5646E+02
 MRCHDU: Convergence failed at  63  side 1    Res =  0.7820E+02
 MRCHDU: Convergence failed at  64  side 1    Res =  0.4346E+02
 MRCHDU: Convergence failed at  65  side 1    Res =  0.6309E+03
 MRCHDU: Convergence failed at  66  side 1    Res =  0.5520E+02
 MRCHDU: Convergence failed at  67  side 1    Res =  0.4212E+02
 MRCHDU: Convergence failed at  68  side 1    Res =  0.4981E+02
 MRCHDU: Convergence failed at  69  side 1    Res =  0.4044E+02
 MRCHDU: Convergence failed at  70  side 1    Res =  0.3564E+03
 MRCHDU: Convergence failed at  71  side 1    Res =  0.9698E+04
 MRCHDU: Convergence failed at  72  side 1    Res =  0.5754E+02
 MRCHDU: Convergence failed at  73  side 1    Res =  0.9613E+02
 MRCHDU: Convergence failed at  74  side 1    Res =  0.9201E+02
 MRCHDU: Convergence failed at  75  side 1    Res =  0.1274E+03
 MRCHDU: Convergence failed at  76  side 1    Res =  0.2096E+03
 MRCHDU: Convergence failed at  77  side 1    Res =  0.3434E+03
 MRCHDU: Convergence failed at  78  side 1    Res =  0.1809E+03
 MRCHDU: Convergence failed at  79  side 1    Res =  0.1132E+03
 MRCHDU: Convergence failed at  80  side 1    Res =  0.4984E+03
 MRCHDU: Convergence failed at  81  side 1    Res =  0.2503E+03
 MRCHDU: Convergence failed at  82  side 1    Res =  0.5162E+02
 MRCHDU: Convergence failed at  83  side 1    Res =  0.6431E+02
 MRCHDU: Convergence failed at  84  side 1    Res =  0.5572E+02
 MRCHDU: Convergence failed at  85  side 1    Res =  0.5474E+02
 MRCHDU: Convergence failed at  86  side 1    Res =  0.3812E+02
 MRCHDU: Convergence failed at  87  side 1    Res =  0.4245E+02
[...]
 MRCHDU: Convergence failed at  77  side 1    Res =  0.2963E+01
 MRCHDU: Convergence failed at  78  side 1    Res =  0.2967E+01
 MRCHDU: Convergence failed at  79  side 1    Res =  0.3008E+01
 MRCHDU: Convergence failed at  80  side 1    Res =  0.3058E+01
 MRCHDU: Convergence failed at  81  side 1    Res =  0.3163E+01
 MRCHDU: Convergence failed at  82  side 1    Res =  0.3282E+01
 MRCHDU: Convergence failed at  83  side 1    Res =  0.3440E+01
 MRCHDU: Convergence failed at  84  side 1    Res =  0.3651E+01
 MRCHDU: Convergence failed at  85  side 1    Res =  0.3854E+01
 MRCHDU: Convergence failed at  86  side 1    Res =  0.4168E+01
 MRCHDU: Convergence failed at  87  side 1    Res =  0.4437E+01
 MRCHDU: Convergence failed at  88  side 1    Res =  0.4784E+01
 MRCHDU: Convergence failed at  89  side 1    Res =  0.5111E+01
 MRCHDU: Convergence failed at  90  side 1    Res =  0.5463E+01
 MRCHDU: Convergence failed at  91  side 1    Res =  0.5899E+01
 MRCHDU: Convergence failed at  92  side 1    Res =  0.6517E+01
 Side 1  free  transition at x/c =  0.0947   35
 Side 2 forced transition at x/c =  1.0000   70
 idif Ue xi dudx           1  8.69429037E-02  2.94816494E-03   29.490515    
 Uenew xinew           2  5.90611249E-04  2.00271606E-05

 128   rms: 0.3599E+00   max: 0.1419E+01   D at   81  2   RLX: 0.861
       a = 11.000      CL =  0.9542
      Cm = -0.0382     CD =  0.09327   =>   CDf =  0.00438    CDp =  0.08889

 Side 1  free  transition at x/c =  0.0976   34
 Side 2 forced transition at x/c =  1.0000   71

 129   rms: 0.1288E+01   max: -.2252E+02   T at    2  2   RLX: 0.022
       a = 11.000      CL =  0.9406
      Cm = -0.0413     CD =  0.08857   =>   CDf =  0.00434    CDp =  0.08423

 Side 1  free  transition at x/c =  0.0982   34
 Side 2 forced transition at x/c =  1.0000   71

 130   rms: 0.2001E+00   max: -.3014E+01   T at   34  1   RLX: 0.166
       a = 11.000      CL =  0.9037
      Cm = -0.0307     CD =  0.08914   =>   CDf =  0.00435    CDp =  0.08479

 Side 1  free  transition at x/c =  0.0985   34
 Side 2 forced transition at x/c =  1.0000   71

 131   rms: 0.1528E+00   max: -.1082E+01   T at   34  1   RLX: 0.462
       a = 11.000      CL =  0.8205
      Cm = -0.0130     CD =  0.09295   =>   CDf =  0.00440    CDp =  0.08855

 Side 1  free  transition at x/c =  0.0982   34
 Side 2 forced transition at x/c =  1.0000   71

 132   rms: 0.8053E-01   max: -.6646E+00   D at   34  1   RLX: 0.752
       a = 11.000      CL =  0.7480
      Cm =  0.0008     CD =  0.09791   =>   CDf =  0.00453    CDp =  0.09338

 Side 1  free  transition at x/c =  0.1330   36
 Side 2 forced transition at x/c =  1.0000   71

 133   rms: 0.1207E+00   max: 0.5107E+00   T at   36  1
       a = 11.000      CL =  0.8076
      Cm =  0.0165     CD =  0.08522   =>   CDf =  0.00455    CDp =  0.08067

 MRCHDU: Convergence failed at  51  side 1    Res =  0.4199E+01
 MRCHDU: Convergence failed at  52  side 1    Res =  0.2711E+01
 MRCHDU: Convergence failed at  53  side 1    Res =  0.2252E+01
 MRCHDU: Convergence failed at  54  side 1    Res =  0.2114E+01
 MRCHDU: Convergence failed at  55  side 1    Res =  0.2114E+01
 MRCHDU: Convergence failed at  56  side 1    Res =  0.2198E+01
 MRCHDU: Convergence failed at  57  side 1    Res =  0.2346E+01
 MRCHDU: Convergence failed at  58  side 1    Res =  0.2581E+01
 MRCHDU: Convergence failed at  59  side 1    Res =  0.2915E+01
 MRCHDU: Convergence failed at  60  side 1    Res =  0.3416E+01
 MRCHDU: Convergence failed at  61  side 1    Res =  0.4253E+01
 MRCHDU: Convergence failed at  62  side 1    Res =  0.5530E+01
 MRCHDU: Convergence failed at  63  side 1    Res =  0.8145E+01
 MRCHDU: Convergence failed at  64  side 1    Res =  0.1614E+02
 MRCHDU: Convergence failed at  65  side 1    Res =  0.1540E+03
 MRCHDU: Convergence failed at  66  side 1    Res =  0.1549E+02
 MRCHDU: Convergence failed at  67  side 1    Res =  0.8278E+01
 MRCHDU: Convergence failed at  68  side 1    Res =  0.5624E+01
 MRCHDU: Convergence failed at  69  side 1    Res =  0.4312E+01
 MRCHDU: Convergence failed at  70  side 1    Res =  0.3643E+01
 MRCHDU: Convergence failed at  71  side 1    Res =  0.3128E+01
 MRCHDU: Convergence failed at  72  side 1    Res =  0.2706E+01
 MRCHDU: Convergence failed at  73  side 1    Res =  0.2383E+01
 MRCHDU: Convergence failed at  74  side 1    Res =  0.2048E+01
 MRCHDU: Convergence failed at  75  side 1    Res =  0.2176E+01
 MRCHDU: Convergence failed at  76  side 1    Res =  0.2338E+01
 MRCHDU: Convergence failed at  77  side 1    Res =  0.2554E+01
 MRCHDU: Convergence failed at  78  side 1    Res =  0.2768E+01
 MRCHDU: Convergence failed at  79  side 1    Res =  0.3022E+01
 MRCHDU: Convergence failed at  80  side 1    Res =  0.3327E+01
 MRCHDU: Convergence failed at  81  side 1    Res =  0.3734E+01
 MRCHDU: Convergence failed at  82  side 1    Res =  0.4237E+01
 MRCHDU: Convergence failed at  83  side 1    Res =  0.4821E+01
 MRCHDU: Convergence failed at  84  side 1    Res =  0.5559E+01
 MRCHDU: Convergence failed at  85  side 1    Res =  0.6559E+01
 MRCHDU: Convergence failed at  86  side 1    Res =  0.7576E+01
 MRCHDU: Convergence failed at  87  side 1    Res =  0.8958E+01
 MRCHDU: Convergence failed at  88  side 1    Res =  0.1143E+02
 MRCHDU: Convergence failed at  89  side 1    Res =  0.1631E+02
 MRCHDU: Convergence failed at  90  side 1    Res =  0.2610E+02
 MRCHDU: Convergence failed at  91  side 1    Res =  0.9230E+02
 Side 1  free  transition at x/c =  0.1117   35
 Side 2 forced transition at x/c =  1.0000   71

 134   rms: 0.3058E+00   max: 0.1333E+01   T at   35  1   RLX: 0.901
       a = 11.000      CL =  0.9664
      Cm = -0.0212     CD =  0.08462   =>   CDf =  0.00456    CDp =  0.08006

 MRCHDU: Convergence failed at  89  side 1    Res =  0.1613E+01
 MRCHDU: Convergence failed at  90  side 1    Res =  0.1679E+01
 MRCHDU: Convergence failed at  91  side 1    Res =  0.1954E+01
 MRCHDU: Convergence failed at  92  side 1    Res =  0.2071E+01
 Side 1  free  transition at x/c =  0.0951   35
 Side 2 forced transition at x/c =  1.0000   70
 idif Ue xi dudx           1  0.12313120      3.73125076E-03   32.999981    
 Uenew xinew           2  2.65027136E-02  8.03112984E-04

 135   rms: 0.3883E+00   max: -.1938E+01   T at   35  1   RLX: 0.258
       a = 11.000      CL =  0.9548
      Cm = -0.0488     CD =  0.08697   =>   CDf =  0.00439    CDp =  0.08258

 Side 1  free  transition at x/c =  0.0963   34
 Side 2 forced transition at x/c =  1.0000   71
 idif Ue xi dudx           1  0.14374034      3.61597538E-03   39.751472    
 Uenew xinew           2  3.98670584E-02  1.00290775E-03

 136   rms: 0.2548E+00   max: 0.7397E+00   D at   84  1   RLX: 0.680
       a = 11.000      CL =  0.7480
      Cm = -0.0247     CD =  0.10642   =>   CDf =  0.00452    CDp =  0.10190

 Side 1  free  transition at x/c =  0.0979   33
 Side 2 forced transition at x/c =  1.0000   72

 137   rms: 0.7131E-01   max: -.7041E+00   D at   33  1   RLX: 0.710
       a = 11.000      CL =  0.7086
      Cm = -0.0054     CD =  0.10302   =>   CDf =  0.00469    CDp =  0.09833

 Side 1  free  transition at x/c =  0.1339   36
 Side 2 forced transition at x/c =  1.0000   72

 138   rms: 0.3034E+00   max: 0.1730E+01   T at   36  1   RLX: 0.842
       a = 11.000      CL =  0.7815
      Cm =  0.0271     CD =  0.08738   =>   CDf =  0.00451    CDp =  0.08287

 Side 1  free  transition at x/c =  0.1254   36
 Side 2 forced transition at x/c =  1.0000   71

 139   rms: 0.1323E+01   max: 0.6308E+01   T at   36  1   RLX: 0.238
       a = 11.000      CL =  0.8959
      Cm =  0.0103     CD =  0.05942   =>   CDf =  0.00658    CDp =  0.05283

 MRCHDU: Convergence failed at  91  side 1    Res =  0.1739E+01
 MRCHDU: Convergence failed at  92  side 1    Res =  0.1718E+01
 Side 1  free  transition at x/c =  0.1057   36
 Side 2 forced transition at x/c =  1.0000   70
 idif Ue xi dudx           1  0.14522819      4.34088707E-03   33.455879    
 Uenew xinew           2  4.72647697E-02  1.41274929E-03

 140   rms: 0.3899E+00   max: 0.1581E+01   D at   72  2   RLX: 0.754
       a = 11.000      CL =  0.8212
      Cm = -0.0103     CD =  0.09921   =>   CDf =  0.00471    CDp =  0.09450

 Side 1  free  transition at x/c =  0.1089   35
 Side 2 forced transition at x/c =  1.0000   71
 idif Ue xi dudx           1  0.14979924      3.74972820E-03   39.949360    
 Uenew xinew           2  4.54088636E-02  1.13666058E-03

 141   rms: 0.2067E+00   max: 0.8742E+00   D at   73  2   RLX: 0.799
       a = 11.000      CL =  0.7129
      Cm = -0.0113     CD =  0.11239   =>   CDf =  0.00466    CDp =  0.10774

 Side 1  free  transition at x/c =  0.1120   34
 Side 2 forced transition at x/c =  1.0000   72

 142   rms: 0.6022E-01   max: -.5471E+00   D at   34  1   RLX: 0.914
       a = 11.000      CL =  0.7020
      Cm = -0.0011     CD =  0.10204   =>   CDf =  0.00466    CDp =  0.09738

 Side 1  free  transition at x/c =  0.1173   34
 Side 2 forced transition at x/c =  1.0000   72

 143   rms: 0.3958E+00   max: -.5268E+00   D at   89  2   RLX: 0.613
       a = 11.000      CL =  0.8049
      Cm =  0.0208     CD =  0.08862   =>   CDf =  0.00454    CDp =  0.08408

 Side 1  free  transition at x/c =  0.1159   35
 Side 2 forced transition at x/c =  1.0000   71

 144   rms: 0.1029E+01   max: 0.3150E+01   D at   91  1   RLX: 0.476
       a = 11.000      CL =  1.0289
      Cm = -0.0082     CD =  0.07876   =>   CDf =  0.00635    CDp =  0.07241

 MRCHDU: Convergence failed at  43  side 1    Res =  0.1147E+02
 MRCHDU: Convergence failed at  44  side 1    Res =  0.2606E+01
 MRCHDU: Convergence failed at  45  side 1    Res =  0.2120E+01
 MRCHDU: Convergence failed at  46  side 1    Res =  0.2083E+01
 MRCHDU: Convergence failed at  47  side 1    Res =  0.2149E+01
 MRCHDU: Convergence failed at  48  side 1    Res =  0.2260E+01
 MRCHDU: Convergence failed at  49  side 1    Res =  0.2394E+01
 MRCHDU: Convergence failed at  50  side 1    Res =  0.2543E+01
 MRCHDU: Convergence failed at  51  side 1    Res =  0.2703E+01
 MRCHDU: Convergence failed at  52  side 1    Res =  0.2871E+01
 MRCHDU: Convergence failed at  53  side 1    Res =  0.3041E+01
 MRCHDU: Convergence failed at  54  side 1    Res =  0.3217E+01
 MRCHDU: Convergence failed at  55  side 1    Res =  0.3395E+01
 MRCHDU: Convergence failed at  56  side 1    Res =  0.3575E+01
 MRCHDU: Convergence failed at  57  side 1    Res =  0.3753E+01
 MRCHDU: Convergence failed at  58  side 1    Res =  0.3936E+01
 MRCHDU: Convergence failed at  59  side 1    Res =  0.4117E+01
 MRCHDU: Convergence failed at  60  side 1    Res =  0.4304E+01
 MRCHDU: Convergence failed at  61  side 1    Res =  0.4492E+01
 MRCHDU: Convergence failed at  62  side 1    Res =  0.4677E+01
 MRCHDU: Convergence failed at  63  side 1    Res =  0.4868E+01
 MRCHDU: Convergence failed at  64  side 1    Res =  0.5056E+01
 MRCHDU: Convergence failed at  65  side 1    Res =  0.5254E+01
 MRCHDU: Convergence failed at  66  side 1    Res =  0.5452E+01
 MRCHDU: Convergence failed at  67  side 1    Res =  0.5658E+01
 MRCHDU: Convergence failed at  68  side 1    Res =  0.5862E+01
 MRCHDU: Convergence failed at  69  side 1    Res =  0.6069E+01
 MRCHDU: Convergence failed at  70  side 1    Res =  0.6271E+01
 MRCHDU: Convergence failed at  71  side 1    Res =  0.6680E+01
 MRCHDU: Convergence failed at  72  side 1    Res =  0.6897E+01
 MRCHDU: Convergence failed at  73  side 1    Res =  0.7117E+01
 MRCHDU: Convergence failed at  74  side 1    Res =  0.7338E+01
 MRCHDU: Convergence failed at  75  side 1    Res =  0.7567E+01
 MRCHDU: Convergence failed at  76  side 1    Res =  0.7960E+01
 MRCHDU: Convergence failed at  77  side 1    Res =  0.8183E+01
 MRCHDU: Convergence failed at  78  side 1    Res =  0.8420E+01
 MRCHDU: Convergence failed at  79  side 1    Res =  0.8735E+01
 MRCHDU: Convergence failed at  80  side 1    Res =  0.1049E+02
 MRCHDU: Convergence failed at  81  side 1    Res =  0.1191E+02
 MRCHDU: Convergence failed at  82  side 1    Res =  0.1245E+02
 MRCHDU: Convergence failed at  83  side 1    Res =  0.9868E+01
 MRCHDU: Convergence failed at  84  side 1    Res =  0.1015E+02
 MRCHDU: Convergence failed at  85  side 1    Res =  0.1045E+02
 MRCHDU: Convergence failed at  86  side 1    Res =  0.1079E+02
 MRCHDU: Convergence failed at  87  side 1    Res =  0.1114E+02
 MRCHDU: Convergence failed at  88  side 1    Res =  0.1149E+02
 MRCHDU: Convergence failed at  89  side 1    Res =  0.1193E+02
 MRCHDU: Convergence failed at  90  side 1    Res =  0.1243E+02
 MRCHDU: Convergence failed at  91  side 1    Res =  0.1287E+02
 MRCHDU: Convergence failed at  92  side 1    Res =  0.1325E+02
 MRCHDU: Convergence failed at  93  side 1    Res =  0.1338E+02
 Side 1  free  transition at x/c =  0.0906   36
 Side 2 forced transition at x/c =  1.0000   69
 idif Ue xi dudx           1  9.12816823E-02  3.67116928E-03   24.864471    
 Uenew xinew           2  8.98115057E-03  3.61204147E-04

 145   rms: 0.5906E+00   max: 0.2102E+01   D at   71  2   RLX: 0.524
       a = 11.000      CL =  1.4041
      Cm = -0.1843     CD =  0.05049   =>   CDf =  0.00412    CDp =  0.04637

 Side 1  free  transition at x/c =  0.0918   35
 Side 2 forced transition at x/c =  1.0000   70

 146   rms: 0.6130E+00   max: 0.3773E+01   D at    2  2   RLX: 0.258
       a = 11.000      CL =  1.3608
      Cm = -0.1379     CD =  0.05107   =>   CDf =  0.00734    CDp =  0.04372

 Side 1  free  transition at x/c =  0.0893   35
 Side 2 forced transition at x/c =  1.0000   69

 147   rms: 0.6889E+00   max: -.3436E+01   T at   36  1   RLX: 0.146
       a = 11.000      CL =  1.3051
      Cm = -0.1161     CD =  0.07827   =>   CDf =  0.00550    CDp =  0.07277

 Side 1  free  transition at x/c =  0.0881   35
 Side 2 forced transition at x/c =  1.0000   69

 148   rms: 0.7990E+00   max: 0.9691E+01   T at   36  1   RLX: 0.109
       a = 11.000      CL =  1.2667
      Cm = -0.1029     CD =  0.08222   =>   CDf =  0.00448    CDp =  0.07774

 Side 1  free  transition at x/c =  0.0851   35
 Side 2 forced transition at x/c =  1.0000   69
 idif Ue xi dudx           1  8.21758434E-02  3.44169140E-03   23.876587    
 Uenew xinew           2  3.14517366E-03  1.31726265E-04

 149   rms: 0.3470E+00   max: 0.1314E+01   D at   93  1   RLX: 0.825
       a = 11.000      CL =  1.0464
      Cm = -0.0199     CD =  0.08954   =>   CDf =  0.00534    CDp =  0.08420

 Side 1  free  transition at x/c =  0.0976   35
 Side 2 forced transition at x/c =  1.0000   70

 150   rms: 0.5035E+00   max: 0.3334E+01   T at    2  2   RLX: 0.318
       a = 11.000      CL =  1.0414
      Cm = -0.0143     CD =  0.06167   =>   CDf =  0.00646    CDp =  0.05521

 Side 1  free  transition at x/c =  0.0958   36
 Side 2 forced transition at x/c =  1.0000   69
 idif Ue xi dudx           1  9.23230350E-02  3.84461880E-03   24.013573    
 Uenew xinew           2  1.28389448E-02  5.34653664E-04

 151   rms: 0.2752E+00   max: -.8951E+00   T at   36  1   RLX: 0.559
       a = 11.000      CL =  0.9622
      Cm =  0.0040     CD =  0.07696   =>   CDf =  0.00536    CDp =  0.07160

 MRCHDU: Convergence failed at  72  side 1    Res =  0.8395E+00
 MRCHDU: Convergence failed at  73  side 1    Res =  0.9191E+00
 MRCHDU: Convergence failed at  74  side 1    Res =  0.1006E+01
 MRCHDU: Convergence failed at  75  side 1    Res =  0.1097E+01
 MRCHDU: Convergence failed at  76  side 1    Res =  0.1206E+01
 MRCHDU: Convergence failed at  77  side 1    Res =  0.1563E+01
 MRCHDU: Convergence failed at  78  side 1    Res =  0.1714E+01
 MRCHDU: Convergence failed at  79  side 1    Res =  0.1878E+01
 MRCHDU: Convergence failed at  80  side 1    Res =  0.2105E+01
 MRCHDU: Convergence failed at  81  side 1    Res =  0.2400E+01
 MRCHDU: Convergence failed at  82  side 1    Res =  0.2782E+01
 MRCHDU: Convergence failed at  83  side 1    Res =  0.3379E+01
 MRCHDU: Convergence failed at  84  side 1    Res =  0.4074E+01
 MRCHDU: Convergence failed at  85  side 1    Res =  0.5232E+01
 MRCHDU: Convergence failed at  86  side 1    Res =  0.7358E+01
 MRCHDU: Convergence failed at  87  side 1    Res =  0.1114E+02
 MRCHDU: Convergence failed at  88  side 1    Res =  0.2321E+02
 MRCHDU: Convergence failed at  89  side 1    Res =  0.4846E+02
 MRCHDU: Convergence failed at  90  side 1    Res =  0.1814E+02
 MRCHDU: Convergence failed at  91  side 1    Res =  0.1161E+02
 MRCHDU: Convergence failed at  92  side 1    Res =  0.8682E+01
 Side 1  free  transition at x/c =  0.1018   35
 Side 2 forced transition at x/c =  1.0000   70

 152   rms: 0.3051E+00   max: -.1132E+01   D at    2  2   RLX: 0.442
       a = 11.000      CL =  0.9872
      Cm = -0.0405     CD =  0.08229   =>   CDf =  0.00440    CDp =  0.07789

 Side 1  free  transition at x/c =  0.1002   35
 Side 2 forced transition at x/c =  1.0000   70

 153   rms: 0.6986E+00   max: -.3188E+01   T at   35  1   RLX: 0.157
       a = 11.000      CL =  1.0139
      Cm = -0.0241     CD =  0.07166   =>   CDf =  0.00423    CDp =  0.06743

 MRCHDU: Convergence failed at  59  side 1    Res =  0.3264E+01
 MRCHDU: Convergence failed at  60  side 1    Res =  0.4251E+01
 MRCHDU: Convergence failed at  61  side 1    Res =  0.4939E+01
 MRCHDU: Convergence failed at  62  side 1    Res =  0.4939E+01
 MRCHDU: Convergence failed at  63  side 1    Res =  0.4495E+01
 MRCHDU: Convergence failed at  64  side 1    Res =  0.3833E+01
 MRCHDU: Convergence failed at  65  side 1    Res =  0.3183E+01
 MRCHDU: Convergence failed at  66  side 1    Res =  0.2764E+01
 MRCHDU: Convergence failed at  67  side 1    Res =  0.2299E+01
 MRCHDU: Convergence failed at  68  side 1    Res =  0.2075E+01
 MRCHDU: Convergence failed at  69  side 1    Res =  0.1841E+01
 MRCHDU: Convergence failed at  70  side 1    Res =  0.1722E+01
 MRCHDU: Convergence failed at  71  side 1    Res =  0.1607E+01
 MRCHDU: Convergence failed at  72  side 1    Res =  0.1624E+01
 MRCHDU: Convergence failed at  73  side 1    Res =  0.1636E+01
 MRCHDU: Convergence failed at  74  side 1    Res =  0.1642E+01
 MRCHDU: Convergence failed at  75  side 1    Res =  0.1648E+01
 MRCHDU: Convergence failed at  76  side 1    Res =  0.1655E+01
 MRCHDU: Convergence failed at  77  side 1    Res =  0.1656E+01
 MRCHDU: Convergence failed at  78  side 1    Res =  0.1656E+01
 MRCHDU: Convergence failed at  79  side 1    Res =  0.1660E+01
 MRCHDU: Convergence failed at  80  side 1    Res =  0.1550E+01
 MRCHDU: Convergence failed at  81  side 1    Res =  0.1590E+01
 MRCHDU: Convergence failed at  82  side 1    Res =  0.1631E+01
 MRCHDU: Convergence failed at  83  side 1    Res =  0.1676E+01
 MRCHDU: Convergence failed at  84  side 1    Res =  0.1711E+01
 MRCHDU: Convergence failed at  85  side 1    Res =  0.1763E+01
 MRCHDU: Convergence failed at  86  side 1    Res =  0.2001E+01
 MRCHDU: Convergence failed at  87  side 1    Res =  0.2327E+01
 MRCHDU: Convergence failed at  88  side 1    Res =  0.3903E+01
 MRCHDU: Convergence failed at  89  side 1    Res =  0.5704E+01
 MRCHDU: Convergence failed at  90  side 1    Res =  0.8328E+01
 MRCHDU: Convergence failed at  91  side 1    Res =  0.1199E+02
 MRCHDU: Convergence failed at  92  side 1    Res =  0.2210E+02
 Side 1  free  transition at x/c =  0.1035   36
 Side 2 forced transition at x/c =  1.0000   70

 154   rms: 0.2278E+00   max: 0.4114E+00   D at   71  2   RLX: 0.793
       a = 11.000      CL =  0.9601
      Cm = -0.0298     CD =  0.08985   =>   CDf =  0.00439    CDp =  0.08546

 Side 1  free  transition at x/c =  0.1039   36
 Side 2 forced transition at x/c =  1.0000   70

 155   rms: 0.9940E+00   max: -.2002E+01   D at   61  1   RLX: 0.250
       a = 11.000      CL =  1.0837
      Cm = -0.0033     CD =  0.07962   =>   CDf =  0.00412    CDp =  0.07550
 VISCAL:  Convergence failed

 Sequence halted since previous  4 points did not converge
 Last-converged  alpha =  10.000    CL =   0.99434

.OPERva   c>  
 Polar accumulation disabled

.OPERv   c>  
 XFOIL   c>  
 XFOIL   c>  