
 ===================================================
  XFOIL Version 6.99
  Copyright (C) 2000   Mark Drela, Harold Youngren

  This software comes with ABSOLUTELY NO WARRANTY,
    subject to the GNU General Public License.

  Caveat computor
 ===================================================

 File  xfoil.def  not found

   QUIT    Exit program

  .OPER    Direct operating point(s)
  .MDES    Complex mapping design routine
  .QDES    Surface speed design routine
  .GDES    Geometry design routine

   SAVE f  Write airfoil to labeled coordinate file
   PSAV f  Write airfoil to plain coordinate file
   ISAV f  Write airfoil to ISES coordinate file
   MSAV f  Write airfoil to MSES coordinate file
   REVE    Reverse written-airfoil node ordering

   LOAD f  Read buffer airfoil from coordinate file
   NACA i  Set NACA 4,5-digit airfoil and buffer airfoil
   INTE    Set buffer airfoil by interpolating two airfoils
   NORM    Buffer airfoil normalization toggle
   XYCM rr Change CM reference location, currently  0.25000 0.00000

   BEND    Display structural properties of current airfoil

   PCOP    Set current-airfoil panel nodes directly from buffer airfoil points
   PANE    Set current-airfoil panel nodes ( 160 ) based on curvature
  .PPAR    Show/change paneling

  .PLOP    Plotting options

   WDEF f  Write  current-settings file
   RDEF f  Reread current-settings file
   NAME s  Specify new airfoil name
   NINC    Increment name version number

   Z       Zoom    | (available in all menus)
   U       Unzoom  | 

 XFOIL   c>  
 Labeled airfoil file.  Name:   BOEING-VERTOL VR-5 AIRFOIL                     

 Number of input coordinate points:  55
 Counterclockwise ordering
 Max thickness =     0.120003  at x =   0.350
 Max camber    =     0.031952  at x =   0.350

  LE  x,y  =  -0.00053   0.00316  |   Chord =   1.00054
  TE  x,y  =   1.00000   0.00000  |

 Current airfoil nodes set from buffer airfoil nodes (  55 )

 WARNING: Poor input coordinate distribution
          Excessive panel angle   51.9  at i =  28
          Repaneling with PANE and/or PPAR suggested
           (doing GDES,CADD before repaneling _may_
            improve excessively coarse LE spacing

 XFOIL   c>  
 XFOIL   c>  
 Blunt trailing edge.  Gap =  0.00080

 Paneling parameters used...
   Number of panel nodes       160
   Panel bunching parameter    1.000
   TE/LE panel density ratio   0.150
   Refined-area/LE panel density ratio    0.200
   Top    side refined area x/c limits  1.000 1.000
   Bottom side refined area x/c limits  1.000 1.000

 XFOIL   c>  
.OPERi   c>  
 Xtr/c     =  1.0000    top    side
 Xtr/c     =  1.0000    bottom side
 Ncrit     =    9.00   ( 0.070 % turb. level )
 Vacc      =  0.0100

 Klag  =  5.6000     Uxwt  =    1.00
 A     =  6.7000     B     =  0.7500       KCt = 0.01485
 CtiniK=  1.8000     CtiniX=  3.3000

..VPAR   c>  
..VPAR   c>  
.OPERi   c>  
 M  =    0.0000
 Re =    400000

.OPERv   c>  
.OPERv   c>  
.OPERv   c>  
 Polar  1 newly created for accumulation
 Airfoil archived with polar: BOEING-VERTOL VR-5 AIRFOIL                      

Enter  polar save filename  OR  <return> for no file   s>  
 New polar save file available

Enter  polar dump filename  OR  <return> for no file   s>  
 Polar dump file will NOT be written

 Polar accumulation enabled

.OPERva   c>   Calculating unit vorticity distributions ...
 Calculating wake trajectory ...
 Calculating source influence matrix ...

 Solving BL system ...

 Initializing BL ...
    side            1  ...
 MRCHUE: Inverse mode at  42     Hk =   3.931
 MRCHUE: Inverse mode at  43     Hk =   4.636
 MRCHUE: Inverse mode at  44     Hk =   5.326
 MRCHUE: Inverse mode at  45     Hk =   5.996
 MRCHUE: Inverse mode at  46     Hk =   6.645
 MRCHUE: Inverse mode at  47     Hk =   7.276
 MRCHUE: Inverse mode at  48     Hk =   7.896
 MRCHUE: Inverse mode at  49     Hk =   8.512
 MRCHUE: Inverse mode at  50     Hk =   9.129
 MRCHUE: Inverse mode at  51     Hk =   9.747
 MRCHUE: Inverse mode at  52     Hk =   6.817
 MRCHUE: Inverse mode at  53     Hk =   5.172
 MRCHUE: Inverse mode at  54     Hk =   4.034
 MRCHUE: Inverse mode at  55     Hk =   3.167
    side            2  ...
 MRCHUE: Inverse mode at  15     Hk =   3.935
 MRCHUE: Inverse mode at  16     Hk =   4.819
 MRCHUE: Inverse mode at  17     Hk =   5.674
 MRCHUE: Inverse mode at  18     Hk =   6.549
 MRCHUE: Inverse mode at  19     Hk =   7.500
 MRCHUE: Inverse mode at  20     Hk =   8.593
 MRCHUE: Inverse mode at  21     Hk =   9.902
 MRCHUE: Inverse mode at  22     Hk =   4.820
 MRCHUE: Inverse mode at  23     Hk =   2.500
 MRCHUE: Inverse mode at  24     Hk =   2.500

 Side 1  free  transition at x/c =  0.6421   52
 Side 2  free  transition at x/c =  0.0342   22

   1   rms: 0.1908E+00   max: -.1692E+01   T at   52  1   RLX: 0.296
       a = -4.000      CL = -0.1919
      Cm = -0.0443     CD =  0.01596   =>   CDf =  0.00739    CDp =  0.00856

 Side 1  free  transition at x/c =  0.6503   52
 Side 2  free  transition at x/c =  0.0335   22

   2   rms: 0.1602E+00   max: -.1573E+01   T at   52  1   RLX: 0.318
       a = -4.000      CL = -0.1807
      Cm = -0.0438     CD =  0.01723   =>   CDf =  0.00738    CDp =  0.00985

 Side 1  free  transition at x/c =  0.6682   53
 Side 2  free  transition at x/c =  0.0330   22

   3   rms: 0.1105E+00   max: -.8958E+00   T at   53  1   RLX: 0.558
       a = -4.000      CL = -0.1602
      Cm = -0.0449     CD =  0.01576   =>   CDf =  0.00743    CDp =  0.00833

 MRCHDU: Convergence failed at  55  side 1    Res =  0.2211E+01
 MRCHDU: Convergence failed at  56  side 1    Res =  0.2351E+01
 MRCHDU: Convergence failed at  57  side 1    Res =  0.3207E+01
 MRCHDU: Convergence failed at  58  side 1    Res =  0.5187E+01
 MRCHDU: Convergence failed at  59  side 1    Res =  0.7639E+01
 MRCHDU: Convergence failed at  60  side 1    Res =  0.1207E+02
 MRCHDU: Convergence failed at  61  side 1    Res =  0.1695E+02
 MRCHDU: Convergence failed at  62  side 1    Res =  0.2168E+02
 MRCHDU: Convergence failed at  63  side 1    Res =  0.2416E+02
 MRCHDU: Convergence failed at  64  side 1    Res =  0.2304E+02
 MRCHDU: Convergence failed at  65  side 1    Res =  0.2202E+02
 MRCHDU: Convergence failed at  66  side 1    Res =  0.2046E+02
 MRCHDU: Convergence failed at  67  side 1    Res =  0.1921E+02
 MRCHDU: Convergence failed at  68  side 1    Res =  0.1812E+02
 MRCHDU: Convergence failed at  69  side 1    Res =  0.1700E+02
 MRCHDU: Convergence failed at  70  side 1    Res =  0.1609E+02
 MRCHDU: Convergence failed at  71  side 1    Res =  0.1505E+02
 MRCHDU: Convergence failed at  72  side 1    Res =  0.1389E+02
 MRCHDU: Convergence failed at  73  side 1    Res =  0.1309E+02
 MRCHDU: Convergence failed at  74  side 1    Res =  0.1277E+02
 MRCHDU: Convergence failed at  75  side 1    Res =  0.1297E+02
 MRCHDU: Convergence failed at  76  side 1    Res =  0.1215E+02
 Side 1  free  transition at x/c =  0.6919   55
 Side 2  free  transition at x/c =  0.0329   22

   4   rms: 0.2206E+00   max: 0.1187E+01   T at   76  1
       a = -4.000      CL = -0.1382
      Cm = -0.0495     CD =  0.01503   =>   CDf =  0.00621    CDp =  0.00882

 Side 1  free  transition at x/c =  0.7023   55
 Side 2  free  transition at x/c =  0.0332   22

   5   rms: 0.3449E-01   max: -.2596E+00   D at   56  1
       a = -4.000      CL = -0.1439
      Cm = -0.0457     CD =  0.01574   =>   CDf =  0.00731    CDp =  0.00843

 Side 1  free  transition at x/c =  0.7179   56
 Side 2  free  transition at x/c =  0.0330   22

   6   rms: 0.1259E-01   max: -.2017E+00   C at   56  1
       a = -4.000      CL = -0.1430
      Cm = -0.0460     CD =  0.01562   =>   CDf =  0.00719    CDp =  0.00842

 Side 1  free  transition at x/c =  0.7158   56
 Side 2  free  transition at x/c =  0.0331   22

   7   rms: 0.1212E-02   max: 0.1330E-01   C at   56  1
       a = -4.000      CL = -0.1430
      Cm = -0.0460     CD =  0.01562   =>   CDf =  0.00712    CDp =  0.00850

 Side 1  free  transition at x/c =  0.7155   56
 Side 2  free  transition at x/c =  0.0331   22

   8   rms: 0.9412E-05   max: -.1266E-03   D at   58  1
       a = -4.000      CL = -0.1430
      Cm = -0.0460     CD =  0.01562   =>   CDf =  0.00713    CDp =  0.00849
 plradd ia,ip,cpol            1           0  3.03279492E-03

 Point added to stored polar  1
 Point written to save file  vr5_Re400k.base.pol                             
 Dump file unspecified or not available
 Calculating wake trajectory ...
 Calculating source influence matrix ...

 Solving BL system ...

 Side 1  free  transition at x/c =  0.7155   56
 Side 2  free  transition at x/c =  0.0331   22

   1   rms: 0.1135E+00   max: -.7874E+00   T at   22  2   RLX: 0.635
       a = -3.500      CL = -0.1081
      Cm = -0.0462     CD =  0.01448   =>   CDf =  0.00718    CDp =  0.00730

 Side 1  free  transition at x/c =  0.7060   57
 Side 2  free  transition at x/c =  0.0360   21

   2   rms: 0.8199E-01   max: -.3276E+00   D at   24  2
       a = -3.500      CL = -0.0874
      Cm = -0.0459     CD =  0.01429   =>   CDf =  0.00712    CDp =  0.00717

 Side 1  free  transition at x/c =  0.7033   56
 Side 2  free  transition at x/c =  0.0381   21

   3   rms: 0.6297E-02   max: -.4703E-01   D at   24  2
       a = -3.500      CL = -0.0875
      Cm = -0.0459     CD =  0.01439   =>   CDf =  0.00731    CDp =  0.00708

 Side 1  free  transition at x/c =  0.7029   56
 Side 2  free  transition at x/c =  0.0378   21

   4   rms: 0.1371E-03   max: -.1241E-02   D at   24  2
       a = -3.500      CL = -0.0875
      Cm = -0.0459     CD =  0.01439   =>   CDf =  0.00731    CDp =  0.00708

 Side 1  free  transition at x/c =  0.7029   56
 Side 2  free  transition at x/c =  0.0378   21

   5   rms: 0.1004E-05   max: 0.4919E-05   T at   56  1
       a = -3.500      CL = -0.0875
      Cm = -0.0459     CD =  0.01439   =>   CDf =  0.00731    CDp =  0.00708
 plradd ia,ip,cpol            2           0  3.03279492E-03

 Point added to stored polar  1
 Point written to save file  vr5_Re400k.base.pol                             
 Dump file unspecified or not available
 Calculating wake trajectory ...
 Calculating source influence matrix ...

 Solving BL system ...

 Side 1  free  transition at x/c =  0.7029   56
 Side 2  free  transition at x/c =  0.0378   21

   1   rms: 0.9959E-01   max: -.6991E+00   T at   21  2   RLX: 0.715
       a = -3.000      CL = -0.0465
      Cm = -0.0460     CD =  0.01366   =>   CDf =  0.00732    CDp =  0.00634

 Side 1  free  transition at x/c =  0.6917   56
 Side 2  free  transition at x/c =  0.0429   22

   2   rms: 0.4309E-01   max: 0.4609E+00   D at   22  2
       a = -3.000      CL = -0.0325
      Cm = -0.0458     CD =  0.01297   =>   CDf =  0.00751    CDp =  0.00546

 Side 1  free  transition at x/c =  0.6904   57
 Side 2  free  transition at x/c =  0.0437   21

   3   rms: 0.1120E-01   max: 0.9046E-01   D at   21  2
       a = -3.000      CL = -0.0326
      Cm = -0.0459     CD =  0.01301   =>   CDf =  0.00745    CDp =  0.00556

 Side 1  free  transition at x/c =  0.6903   57
 Side 2  free  transition at x/c =  0.0436   21

   4   rms: 0.5707E-03   max: 0.6444E-02   D at    4  1
       a = -3.000      CL = -0.0326
      Cm = -0.0459     CD =  0.01301   =>   CDf =  0.00744    CDp =  0.00556

 Side 1  free  transition at x/c =  0.6903   57
 Side 2  free  transition at x/c =  0.0436   21

   5   rms: 0.1734E-05   max: -.1338E-04   D at   58  1
       a = -3.000      CL = -0.0326
      Cm = -0.0459     CD =  0.01301   =>   CDf =  0.00744    CDp =  0.00556
 plradd ia,ip,cpol            3           0  3.03279492E-03

 Point added to stored polar  1
 Point written to save file  vr5_Re400k.base.pol                             
 Dump file unspecified or not available
 Calculating wake trajectory ...
 Calculating source influence matrix ...

 Solving BL system ...

 Side 1  free  transition at x/c =  0.6903   57
 Side 2  free  transition at x/c =  0.0436   21

   1   rms: 0.9829E-01   max: -.7897E+00   T at   21  2   RLX: 0.633
       a = -2.500      CL =  0.0022
      Cm = -0.0459     CD =  0.01265   =>   CDf =  0.00745    CDp =  0.00521

 Side 1  free  transition at x/c =  0.6848   56
 Side 2  free  transition at x/c =  0.0477   21

   2   rms: 0.7524E-01   max: -.3314E+00   D at   23  2
       a = -2.500      CL =  0.0244
      Cm = -0.0461     CD =  0.01235   =>   CDf =  0.00746    CDp =  0.00490

 Side 1  free  transition at x/c =  0.6779   56
 Side 2  free  transition at x/c =  0.0494   21

   3   rms: 0.4453E-02   max: -.4620E-01   D at   56  1
       a = -2.500      CL =  0.0238
      Cm = -0.0461     CD =  0.01237   =>   CDf =  0.00753    CDp =  0.00484

 Side 1  free  transition at x/c =  0.6789   56
 Side 2  free  transition at x/c =  0.0492   21

   4   rms: 0.1100E-03   max: -.1742E-02   D at   58  1
       a = -2.500      CL =  0.0238
      Cm = -0.0461     CD =  0.01237   =>   CDf =  0.00751    CDp =  0.00486

 Side 1  free  transition at x/c =  0.6788   56
 Side 2  free  transition at x/c =  0.0492   21

   5   rms: 0.7370E-06   max: -.6364E-05   D at   56  1
       a = -2.500      CL =  0.0238
      Cm = -0.0461     CD =  0.01237   =>   CDf =  0.00752    CDp =  0.00486
 plradd ia,ip,cpol            4           0  3.03279492E-03

 Point added to stored polar  1
 Point written to save file  vr5_Re400k.base.pol                             
 Dump file unspecified or not available
 Calculating wake trajectory ...
 Calculating source influence matrix ...

 Solving BL system ...

 Side 1  free  transition at x/c =  0.6788   56
 Side 2  free  transition at x/c =  0.0492   21

   1   rms: 0.9177E-01   max: -.5405E+00   T at   21  2   RLX: 0.925
       a = -2.000      CL =  0.0761
      Cm = -0.0462     CD =  0.01189   =>   CDf =  0.00754    CDp =  0.00436

 Side 1  free  transition at x/c =  0.6695   56
 Side 2  free  transition at x/c =  0.0532   21

   2   rms: 0.3520E-01   max: -.4033E+00   D at   20  2
       a = -2.000      CL =  0.0797
      Cm = -0.0462     CD =  0.01159   =>   CDf =  0.00764    CDp =  0.00395

 Side 1  free  transition at x/c =  0.6686   56
 Side 2  free  transition at x/c =  0.0530   21

   3   rms: 0.4652E-02   max: 0.7962E-01   D at   21  2
       a = -2.000      CL =  0.0794
      Cm = -0.0462     CD =  0.01144   =>   CDf =  0.00764    CDp =  0.00380

 Side 1  free  transition at x/c =  0.6686   56
 Side 2  free  transition at x/c =  0.0531   21

   4   rms: 0.6073E-03   max: 0.7255E-02   D at   21  2
       a = -2.000      CL =  0.0794
      Cm = -0.0462     CD =  0.01144   =>   CDf =  0.00763    CDp =  0.00381

 Side 1  free  transition at x/c =  0.6686   56
 Side 2  free  transition at x/c =  0.0531   21

   5   rms: 0.2063E-05   max: 0.1839E-04   D at   21  2
       a = -2.000      CL =  0.0794
      Cm = -0.0462     CD =  0.01144   =>   CDf =  0.00763    CDp =  0.00381
 plradd ia,ip,cpol            5           0  4.74572647E-03

 Point added to stored polar  1
 Point written to save file  vr5_Re400k.base.pol                             
 Dump file unspecified or not available
 Calculating wake trajectory ...
 Calculating source influence matrix ...

 Solving BL system ...

 Side 1  free  transition at x/c =  0.6686   56
 Side 2  free  transition at x/c =  0.0531   21

   1   rms: 0.1136E+00   max: -.4284E+00   T at   21  2
       a = -1.500      CL =  0.1358
      Cm = -0.0466     CD =  0.01058   =>   CDf =  0.00763    CDp =  0.00294

 Side 1  free  transition at x/c =  0.6573   56
 Side 2  free  transition at x/c =  0.0610   21

   2   rms: 0.1448E-01   max: -.1615E+00   D at   56  1
       a = -1.500      CL =  0.1362
      Cm = -0.0465     CD =  0.01093   =>   CDf =  0.00774    CDp =  0.00319

 Side 1  free  transition at x/c =  0.6589   57
 Side 2  free  transition at x/c =  0.0598   20

   3   rms: 0.1917E-02   max: -.2949E-01   D at    2  1
       a = -1.500      CL =  0.1362
      Cm = -0.0465     CD =  0.01093   =>   CDf =  0.00770    CDp =  0.00323

 Side 1  free  transition at x/c =  0.6588   57
 Side 2  free  transition at x/c =  0.0597   20

   4   rms: 0.3303E-03   max: 0.3879E-02   D at    4  1
       a = -1.500      CL =  0.1362
      Cm = -0.0465     CD =  0.01093   =>   CDf =  0.00771    CDp =  0.00323

 Side 1  free  transition at x/c =  0.6588   57
 Side 2  free  transition at x/c =  0.0597   20

   5   rms: 0.8803E-06   max: 0.8963E-05   D at   57  1
       a = -1.500      CL =  0.1362
      Cm = -0.0465     CD =  0.01093   =>   CDf =  0.00771    CDp =  0.00323
 plradd ia,ip,cpol            6           0  4.74572647E-03

 Point added to stored polar  1
 Point written to save file  vr5_Re400k.base.pol                             
 Dump file unspecified or not available
 Calculating wake trajectory ...
 Calculating source influence matrix ...

 Solving BL system ...

 Side 1  free  transition at x/c =  0.6588   57
 Side 2  free  transition at x/c =  0.0597   20

   1   rms: 0.9858E-01   max: -.5134E+00   T at   20  2   RLX: 0.974
       a = -1.000      CL =  0.1915
      Cm = -0.0468     CD =  0.01068   =>   CDf =  0.00771    CDp =  0.00297

 Side 1  free  transition at x/c =  0.6508   56
 Side 2  free  transition at x/c =  0.0707   21

   2   rms: 0.2810E-01   max: -.2714E+00   C at   21  2
       a = -1.000      CL =  0.1938
      Cm = -0.0470     CD =  0.01048   =>   CDf =  0.00775    CDp =  0.00273

 Side 1  free  transition at x/c =  0.6487   56
 Side 2  free  transition at x/c =  0.0768   22

   3   rms: 0.2330E-01   max: -.2755E+00   D at   21  2
       a = -1.000      CL =  0.1938
      Cm = -0.0470     CD =  0.01044   =>   CDf =  0.00772    CDp =  0.00271

 Side 1  free  transition at x/c =  0.6489   56
 Side 2  free  transition at x/c =  0.0896   22

   4   rms: 0.1527E-01   max: -.2980E+00   C at   22  2
       a = -1.000      CL =  0.1937
      Cm = -0.0470     CD =  0.01044   =>   CDf =  0.00766    CDp =  0.00278

 Side 1  free  transition at x/c =  0.6489   56
 Side 2  free  transition at x/c =  0.0834   22

   5   rms: 0.1248E-02   max: 0.1355E-01   C at   22  2
       a = -1.000      CL =  0.1938
      Cm = -0.0470     CD =  0.01047   =>   CDf =  0.00767    CDp =  0.00280

 Side 1  free  transition at x/c =  0.6489   56
 Side 2  free  transition at x/c =  0.0831   22

   6   rms: 0.7385E-05   max: 0.1286E-03   C at   22  2
       a = -1.000      CL =  0.1938
      Cm = -0.0470     CD =  0.01047   =>   CDf =  0.00767    CDp =  0.00280
 plradd ia,ip,cpol            7           0  1.18999416E-02

 Point added to stored polar  1
 Point written to save file  vr5_Re400k.base.pol                             
 Dump file unspecified or not available
 Calculating wake trajectory ...
 Calculating source influence matrix ...

 Solving BL system ...

 Side 1  free  transition at x/c =  0.6489   56
 Side 2  free  transition at x/c =  0.0831   22

   1   rms: 0.2628E+00   max: -.4670E+01   C at   22  2   RLX: 0.107
       a = -0.500      CL =  0.1998
      Cm = -0.0471     CD =  0.01038   =>   CDf =  0.00767    CDp =  0.00270

 Side 1  free  transition at x/c =  0.6478   56
 Side 2  free  transition at x/c =  0.0944   23

   2   rms: 0.4061E+00   max: -.7028E+01   C at   23  2   RLX: 0.071
       a = -0.500      CL =  0.2039
      Cm = -0.0470     CD =  0.01030   =>   CDf =  0.00764    CDp =  0.00266

 Side 1  free  transition at x/c =  0.6472   56
 Side 2  free  transition at x/c =  0.1066   24

   3   rms: 0.4079E+00   max: -.6501E+01   C at   24  2   RLX: 0.077
       a = -0.500      CL =  0.2081
      Cm = -0.0470     CD =  0.01023   =>   CDf =  0.00760    CDp =  0.00262

 Side 1  free  transition at x/c =  0.6466   56
 Side 2  free  transition at x/c =  0.1302   25

   4   rms: 0.6665E+00   max: -.1501E+02   C at   25  2   RLX: 0.033
       a = -0.500      CL =  0.2097
      Cm = -0.0470     CD =  0.01018   =>   CDf =  0.00751    CDp =  0.00267

 Side 1  free  transition at x/c =  0.6464   56
 Side 2  free  transition at x/c =  0.1357   25

   5   rms: 0.3008E+00   max: -.6479E+01   C at   25  2   RLX: 0.077
       a = -0.500      CL =  0.2134
      Cm = -0.0470     CD =  0.01016   =>   CDf =  0.00750    CDp =  0.00266

 Side 1  free  transition at x/c =  0.6459   56
 Side 2  free  transition at x/c =  0.1521   26

   6   rms: 0.3247E+00   max: -.7155E+01   C at   26  2   RLX: 0.070
       a = -0.500      CL =  0.2166
      Cm = -0.0469     CD =  0.01010   =>   CDf =  0.00746    CDp =  0.00265

 Side 1  free  transition at x/c =  0.6455   56
 Side 2  free  transition at x/c =  0.1668   27

   7   rms: 0.6024E+00   max: -.1338E+02   C at   27  2   RLX: 0.037
       a = -0.500      CL =  0.2184
      Cm = -0.0469     CD =  0.01004   =>   CDf =  0.00741    CDp =  0.00263

 Side 1  free  transition at x/c =  0.6453   56
 Side 2  free  transition at x/c =  0.1717   28

   8   rms: 0.6357E+00   max: -.1378E+02   C at   28  2   RLX: 0.036
       a = -0.500      CL =  0.2198
      Cm = -0.0469     CD =  0.01000   =>   CDf =  0.00741    CDp =  0.00260

 Side 1  free  transition at x/c =  0.6451   56
 Side 2  free  transition at x/c =  0.1810   28

   9   rms: 0.1534E+01   max: -.3124E+02   C at   28  2   RLX: 0.016
       a = -0.500      CL =  0.2202
      Cm = -0.0470     CD =  0.00995   =>   CDf =  0.00735    CDp =  0.00261

 Side 1  free  transition at x/c =  0.6450   56
 Side 2  free  transition at x/c =  0.1923   29

  10   rms: 0.3751E+01   max: -.7601E+02   C at   29  2   RLX: 0.007
       a = -0.500      CL =  0.2208
      Cm = -0.0470     CD =  0.00991   =>   CDf =  0.00730    CDp =  0.00260

 Side 1  free  transition at x/c =  0.6450   56
 Side 2  free  transition at x/c =  0.1976   29

  11   rms: 0.3784E+01   max: -.7225E+02   C at   29  2   RLX: 0.007
       a = -0.500      CL =  0.2210
      Cm = -0.0470     CD =  0.00988   =>   CDf =  0.00728    CDp =  0.00260

 MRCHDU: Convergence failed at  30  side 2    Res =  0.7272E-04
 Side 1  free  transition at x/c =  0.6449   56
 Side 2  free  transition at x/c =  0.2082   30

  12   rms: 0.5015E+01   max: -.9837E+02   C at   30  2   RLX: 0.005
       a = -0.500      CL =  0.2212
      Cm = -0.0470     CD =  0.00984   =>   CDf =  0.00725    CDp =  0.00259

 Side 1  free  transition at x/c =  0.6449   56
 Side 2  free  transition at x/c =  0.2211   31

  13   rms: 0.5553E+01   max: -.1112E+03   C at   31  2   RLX: 0.004
       a = -0.500      CL =  0.2213
      Cm = -0.0470     CD =  0.00980   =>   CDf =  0.00722    CDp =  0.00258

 Side 1  free  transition at x/c =  0.6449   56
 Side 2  free  transition at x/c =  0.2374   32

  14   rms: 0.6630E+01   max: -.1333E+03   C at   32  2   RLX: 0.004
       a = -0.500      CL =  0.2212
      Cm = -0.0470     CD =  0.00975   =>   CDf =  0.00718    CDp =  0.00257

 Side 1  free  transition at x/c =  0.6449   56
 Side 2  free  transition at x/c =  0.2534   33

  15   rms: 0.7056E+01   max: -.1434E+03   C at   33  2   RLX: 0.003
       a = -0.500      CL =  0.2212
      Cm = -0.0470     CD =  0.00970   =>   CDf =  0.00714    CDp =  0.00256

 Side 1  free  transition at x/c =  0.6449   56
 Side 2  free  transition at x/c =  0.2691   34

  16   rms: 0.8440E+01   max: -.1686E+03   C at   34  2   RLX: 0.003
       a = -0.500      CL =  0.2211
      Cm = -0.0471     CD =  0.00965   =>   CDf =  0.00710    CDp =  0.00255

 Side 1  free  transition at x/c =  0.6448   56
 Side 2  free  transition at x/c =  0.2824   35

  17   rms: 0.9224E+01   max: -.1826E+03   C at   35  2   RLX: 0.003
       a = -0.500      CL =  0.2211
      Cm = -0.0471     CD =  0.00960   =>   CDf =  0.00705    CDp =  0.00255

 Side 1  free  transition at x/c =  0.6448   56
 Side 2  free  transition at x/c =  0.2943   36

  18   rms: 0.9126E+01   max: -.1812E+03   C at   36  2   RLX: 0.003
       a = -0.500      CL =  0.2211
      Cm = -0.0471     CD =  0.00955   =>   CDf =  0.00701    CDp =  0.00255

 Side 1  free  transition at x/c =  0.6448   56
 Side 2  free  transition at x/c =  0.3075   37

  19   rms: 0.8152E+01   max: -.1626E+03   C at   37  2   RLX: 0.003
       a = -0.500      CL =  0.2211
      Cm = -0.0471     CD =  0.00950   =>   CDf =  0.00696    CDp =  0.00254

 Side 1  free  transition at x/c =  0.6448   56
 Side 2  free  transition at x/c =  0.3270   38

  20   rms: 0.7476E+01   max: -.1498E+03   C at   38  2   RLX: 0.003
       a = -0.500      CL =  0.2210
      Cm = -0.0471     CD =  0.00945   =>   CDf =  0.00691    CDp =  0.00253

 Side 1  free  transition at x/c =  0.6448   56
 Side 2  free  transition at x/c =  0.3463   39

  21   rms: 0.1601E+01   max: -.3247E+02   C at   39  2   RLX: 0.015
       a = -0.500      CL =  0.2213
      Cm = -0.0472     CD =  0.00940   =>   CDf =  0.00687    CDp =  0.00253

 Side 1  free  transition at x/c =  0.6447   56
 Side 2  free  transition at x/c =  0.3811   41

  22   rms: 0.7522E+00   max: -.1517E+02   C at   41  2   RLX: 0.033
       a = -0.500      CL =  0.2215
      Cm = -0.0471     CD =  0.00928   =>   CDf =  0.00677    CDp =  0.00250

 Side 1  free  transition at x/c =  0.6446   56
 Side 2  free  transition at x/c =  0.4127   43

  23   rms: 0.9722E+00   max: -.1923E+02   C at   43  2   RLX: 0.026
       a = -0.500      CL =  0.2216
      Cm = -0.0471     CD =  0.00914   =>   CDf =  0.00667    CDp =  0.00247

 Side 1  free  transition at x/c =  0.6445   56
 Side 2  free  transition at x/c =  0.4603   46

  24   rms: 0.4924E+01   max: -.8707E+02   C at   46  2   RLX: 0.006
       a = -0.500      CL =  0.2207
      Cm = -0.0468     CD =  0.00894   =>   CDf =  0.00647    CDp =  0.00247

 Side 1  free  transition at x/c =  0.6445   56
 Side 2  free  transition at x/c =  0.4720   47

  25   rms: 0.4827E+01   max: -.8716E+02   C at   47  2   RLX: 0.006
       a = -0.500      CL =  0.2208
      Cm = -0.0469     CD =  0.00889   =>   CDf =  0.00643    CDp =  0.00247

 Side 1  free  transition at x/c =  0.6444   56
 Side 2  free  transition at x/c =  0.4876   48

  26   rms: 0.5096E+01   max: -.9190E+02   C at   48  2   RLX: 0.005
       a = -0.500      CL =  0.2207
      Cm = -0.0469     CD =  0.00884   =>   CDf =  0.00637    CDp =  0.00247

 Side 1  free  transition at x/c =  0.6444   56
 Side 2  free  transition at x/c =  0.5071   50

  27   rms: 0.4113E+01   max: -.7983E+02   C at   50  2   RLX: 0.006
       a = -0.500      CL =  0.2206
      Cm = -0.0468     CD =  0.00878   =>   CDf =  0.00631    CDp =  0.00246

 Side 1  free  transition at x/c =  0.6444   56
 Side 2  free  transition at x/c =  0.5212   50

  28   rms: 0.1182E+01   max: -.2190E+02   C at   50  2   RLX: 0.023
       a = -0.500      CL =  0.2212
      Cm = -0.0469     CD =  0.00875   =>   CDf =  0.00627    CDp =  0.00248

 Side 1  free  transition at x/c =  0.6443   56
 Side 2  free  transition at x/c =  0.5640   53

  29   rms: 0.8328E+00   max: -.1587E+02   C at   53  2   RLX: 0.032
       a = -0.500      CL =  0.2206
      Cm = -0.0465     CD =  0.00863   =>   CDf =  0.00613    CDp =  0.00250

 Side 1  free  transition at x/c =  0.6442   56
 Side 2  free  transition at x/c =  0.5828   54

  30   rms: 0.3450E+00   max: -.6387E+01   C at   54  2   RLX: 0.078
       a = -0.500      CL =  0.2224
      Cm = -0.0466     CD =  0.00858   =>   CDf =  0.00607    CDp =  0.00251

 Side 1  free  transition at x/c =  0.6439   56
 Side 2  free  transition at x/c =  0.6245   57

  31   rms: 0.2078E+00   max: -.3533E+01   C at   57  2   RLX: 0.142
       a = -0.500      CL =  0.2238
      Cm = -0.0461     CD =  0.00847   =>   CDf =  0.00591    CDp =  0.00256

 Side 1  free  transition at x/c =  0.6434   57
 Side 2  free  transition at x/c =  0.6644   59

  32   rms: 0.1610E+00   max: -.2427E+01   C at   59  2   RLX: 0.206
       a = -0.500      CL =  0.2260
      Cm = -0.0457     CD =  0.00834   =>   CDf =  0.00580    CDp =  0.00253

 Side 1  free  transition at x/c =  0.6428   57
 Side 2  free  transition at x/c =  0.6799   60

  33   rms: 0.8383E-01   max: -.1063E+01   C at   60  2   RLX: 0.471
       a = -0.500      CL =  0.2339
      Cm = -0.0464     CD =  0.00828   =>   CDf =  0.00583    CDp =  0.00245

 Side 1  free  transition at x/c =  0.6417   57
 Side 2  free  transition at x/c =  0.7025   61

  34   rms: 0.4682E-01   max: -.7245E+00   C at   61  2   RLX: 0.690
       a = -0.500      CL =  0.2393
      Cm = -0.0466     CD =  0.00828   =>   CDf =  0.00573    CDp =  0.00255

 Side 1  free  transition at x/c =  0.6410   56
 Side 2  free  transition at x/c =  0.7199   62

  35   rms: 0.2031E-01   max: -.3377E+00   C at   62  2
       a = -0.500      CL =  0.2418
      Cm = -0.0466     CD =  0.00825   =>   CDf =  0.00567    CDp =  0.00258

 Side 1  free  transition at x/c =  0.6403   56
 Side 2  free  transition at x/c =  0.7352   63

  36   rms: 0.2407E-02   max: -.4215E-01   C at   63  2
       a = -0.500      CL =  0.2417
      Cm = -0.0465     CD =  0.00826   =>   CDf =  0.00558    CDp =  0.00268

 Side 1  free  transition at x/c =  0.6403   56
 Side 2  free  transition at x/c =  0.7364   63

  37   rms: 0.1523E-04   max: -.1694E-03   D at   63  2
       a = -0.500      CL =  0.2417
      Cm = -0.0465     CD =  0.00826   =>   CDf =  0.00557    CDp =  0.00269
 plradd ia,ip,cpol            8           0  1.18999416E-02

 Point added to stored polar  1
 Point written to save file  vr5_Re400k.base.pol                             
 Dump file unspecified or not available
 Calculating wake trajectory ...
 Calculating source influence matrix ...

 Solving BL system ...

 Side 1  free  transition at x/c =  0.6403   56
 Side 2  free  transition at x/c =  0.7364   63

   1   rms: 0.1446E+00   max: -.1449E+01   C at   63  2   RLX: 0.345
       a =  0.000      CL =  0.2603
      Cm = -0.0463     CD =  0.00820   =>   CDf =  0.00557    CDp =  0.00263

 Side 1  free  transition at x/c =  0.6369   56
 Side 2  free  transition at x/c =  0.7645   65

   2   rms: 0.7728E-01   max: -.5792E+00   C at   65  2   RLX: 0.863
       a =  0.000      CL =  0.2911
      Cm = -0.0460     CD =  0.00817   =>   CDf =  0.00551    CDp =  0.00266

 Side 1  free  transition at x/c =  0.6319   56
 Side 2  free  transition at x/c =  0.7966   67

   3   rms: 0.2124E-01   max: -.2925E+00   C at   67  2
       a =  0.000      CL =  0.2954
      Cm = -0.0457     CD =  0.00816   =>   CDf =  0.00548    CDp =  0.00267

 Side 1  free  transition at x/c =  0.6315   56
 Side 2  free  transition at x/c =  0.8108   68

   4   rms: 0.7070E-02   max: -.1162E+00   C at   68  2
       a =  0.000      CL =  0.2953
      Cm = -0.0457     CD =  0.00817   =>   CDf =  0.00543    CDp =  0.00274

 Side 1  free  transition at x/c =  0.6315   56
 Side 2  free  transition at x/c =  0.8138   68

   5   rms: 0.2355E-03   max: -.3194E-02   D at   68  2
       a =  0.000      CL =  0.2953
      Cm = -0.0457     CD =  0.00817   =>   CDf =  0.00540    CDp =  0.00277

 Side 1  free  transition at x/c =  0.6315   56
 Side 2  free  transition at x/c =  0.8137   68

   6   rms: 0.1881E-05   max: 0.1611E-04   D at    4  2
       a =  0.000      CL =  0.2953
      Cm = -0.0457     CD =  0.00817   =>   CDf =  0.00540    CDp =  0.00277
 plradd ia,ip,cpol            9           0  0.31200874    

 Point added to stored polar  1
 Point written to save file  vr5_Re400k.base.pol                             
 Dump file unspecified or not available
 Calculating wake trajectory ...
 Calculating source influence matrix ...

 Solving BL system ...

 Side 1  free  transition at x/c =  0.6315   56
 Side 2  free  transition at x/c =  0.8137   68

   1   rms: 0.1007E+00   max: -.5758E+00   C at   68  2   RLX: 0.868
       a =  0.500      CL =  0.3416
      Cm = -0.0449     CD =  0.00815   =>   CDf =  0.00537    CDp =  0.00278

 Side 1  free  transition at x/c =  0.6253   56
 Side 2  free  transition at x/c =  0.8511   69

   2   rms: 0.2297E-01   max: -.2222E+00   T at   69  2
       a =  0.500      CL =  0.3496
      Cm = -0.0451     CD =  0.00823   =>   CDf =  0.00548    CDp =  0.00275

 Side 1  free  transition at x/c =  0.6243   56
 Side 2  free  transition at x/c =  0.8784   71

   3   rms: 0.2423E-01   max: 0.3938E+00   C at   71  2
       a =  0.500      CL =  0.3472
      Cm = -0.0444     CD =  0.00820   =>   CDf =  0.00528    CDp =  0.00292

 Side 1  free  transition at x/c =  0.6243   56
 Side 2  free  transition at x/c =  0.8717   71

   4   rms: 0.5450E-02   max: -.7154E-01   D at   74  2
       a =  0.500      CL =  0.3465
      Cm = -0.0442     CD =  0.00820   =>   CDf =  0.00531    CDp =  0.00289

 Side 1  free  transition at x/c =  0.6244   56
 Side 2  free  transition at x/c =  0.8696   71

   5   rms: 0.2314E-03   max: -.3917E-02   D at   74  2
       a =  0.500      CL =  0.3465
      Cm = -0.0442     CD =  0.00819   =>   CDf =  0.00532    CDp =  0.00287

 Side 1  free  transition at x/c =  0.6244   56
 Side 2  free  transition at x/c =  0.8695   71

   6   rms: 0.1482E-05   max: -.2115E-04   C at   71  2
       a =  0.500      CL =  0.3465
      Cm = -0.0442     CD =  0.00819   =>   CDf =  0.00533    CDp =  0.00287
 plradd ia,ip,cpol           10           0  0.31200874    

 Point added to stored polar  1
 Point written to save file  vr5_Re400k.base.pol                             
 Dump file unspecified or not available
 Calculating wake trajectory ...
 Calculating source influence matrix ...

 Solving BL system ...

 Side 1  free  transition at x/c =  0.6244   56
 Side 2  free  transition at x/c =  0.8695   71

   1   rms: 0.1080E+00   max: -.7414E+00   C at   71  2   RLX: 0.674
       a =  1.000      CL =  0.3777
      Cm = -0.0423     CD =  0.00809   =>   CDf =  0.00533    CDp =  0.00277

 Side 1  free  transition at x/c =  0.6168   56
 Side 2  free  transition at x/c =  0.9028   73

   2   rms: 0.4401E-01   max: -.3901E+00   C at   73  2
       a =  1.000      CL =  0.3901
      Cm = -0.0406     CD =  0.00809   =>   CDf =  0.00526    CDp =  0.00283

 Side 1  free  transition at x/c =  0.6149   57
 Side 2  free  transition at x/c =  0.9165   73

   3   rms: 0.4103E-01   max: -.4236E+00   T at   73  2
       a =  1.000      CL =  0.3915
      Cm = -0.0412     CD =  0.00801   =>   CDf =  0.00530    CDp =  0.00270

 Side 1  free  transition at x/c =  0.6150   57
 Side 2  free  transition at x/c =  0.9317   74

   4   rms: 0.1626E-01   max: -.2395E+00   D at   73  2
       a =  1.000      CL =  0.3915
      Cm = -0.0411     CD =  0.00817   =>   CDf =  0.00524    CDp =  0.00292

 Side 1  free  transition at x/c =  0.6149   57
 Side 2  free  transition at x/c =  0.9317   74

   5   rms: 0.5464E-02   max: 0.8055E-01   C at   74  2
       a =  1.000      CL =  0.3914
      Cm = -0.0410     CD =  0.00816   =>   CDf =  0.00522    CDp =  0.00294

 Side 1  free  transition at x/c =  0.6149   57
 Side 2  free  transition at x/c =  0.9298   74

   6   rms: 0.2726E-03   max: -.4803E-02   D at   76  2
       a =  1.000      CL =  0.3914
      Cm = -0.0410     CD =  0.00817   =>   CDf =  0.00523    CDp =  0.00294

 Side 1  free  transition at x/c =  0.6149   57
 Side 2  free  transition at x/c =  0.9297   74

   7   rms: 0.1671E-05   max: -.1525E-04   D at    4  1
       a =  1.000      CL =  0.3914
      Cm = -0.0410     CD =  0.00817   =>   CDf =  0.00523    CDp =  0.00294
 plradd ia,ip,cpol           11           0  0.31200874    

 Point added to stored polar  1
 Point written to save file  vr5_Re400k.base.pol                             
 Dump file unspecified or not available
 Calculating wake trajectory ...
 Calculating source influence matrix ...

 Solving BL system ...

 Side 1  free  transition at x/c =  0.6149   57
 Side 2  free  transition at x/c =  0.9297   74

   1   rms: 0.9794E-01   max: -.6548E+00   C at   74  2   RLX: 0.764
       a =  1.500      CL =  0.4259
      Cm = -0.0386     CD =  0.00803   =>   CDf =  0.00523    CDp =  0.00280

 Side 1  free  transition at x/c =  0.6090   56
 Side 2  free  transition at x/c =  0.9407   74

   2   rms: 0.5238E-01   max: -.5481E+00   D at   75  2   RLX: 0.912
       a =  1.500      CL =  0.4426
      Cm = -0.0405     CD =  0.00851   =>   CDf =  0.00533    CDp =  0.00318

 Side 1  free  transition at x/c =  0.6058   56
 Side 2  free  transition at x/c =  0.9817   77

   3   rms: 0.3942E-01   max: -.4961E+00   C at   77  2
       a =  1.500      CL =  0.4553
      Cm = -0.0425     CD =  0.00816   =>   CDf =  0.00525    CDp =  0.00291

 Side 1  free  transition at x/c =  0.6055   56
 Side 2  free  transition at x/c =  0.9531   75

   4   rms: 0.2351E-01   max: -.3032E+00   D at   76  2
       a =  1.500      CL =  0.4433
      Cm = -0.0399     CD =  0.00814   =>   CDf =  0.00527    CDp =  0.00287

 Side 1  free  transition at x/c =  0.6058   56
 Side 2  free  transition at x/c =  0.9705   76

   5   rms: 0.2376E-01   max: 0.3866E+00   C at   76  2
       a =  1.500      CL =  0.4465
      Cm = -0.0406     CD =  0.00813   =>   CDf =  0.00525    CDp =  0.00288

 Side 1  free  transition at x/c =  0.6057   56
 Side 2  free  transition at x/c =  0.9660   76

   6   rms: 0.4052E-02   max: 0.5844E-01   C at   76  2
       a =  1.500      CL =  0.4483
      Cm = -0.0410     CD =  0.00814   =>   CDf =  0.00525    CDp =  0.00289

 Side 1  free  transition at x/c =  0.6057   56
 Side 2  free  transition at x/c =  0.9638   76

   7   rms: 0.1276E-03   max: -.1560E-02   D at   76  2
       a =  1.500      CL =  0.4484
      Cm = -0.0410     CD =  0.00814   =>   CDf =  0.00526    CDp =  0.00288

 Side 1  free  transition at x/c =  0.6057   56
 Side 2  free  transition at x/c =  0.9638   76

   8   rms: 0.1061E-05   max: -.1322E-04   C at   76  2
       a =  1.500      CL =  0.4484
      Cm = -0.0410     CD =  0.00814   =>   CDf =  0.00526    CDp =  0.00288
 plradd ia,ip,cpol           12           0  0.17971450    

 Point added to stored polar  1
 Point written to save file  vr5_Re400k.base.pol                             
 Dump file unspecified or not available
 Calculating wake trajectory ...
 Calculating source influence matrix ...

 Solving BL system ...

 Side 1  free  transition at x/c =  0.6057   56
 Side 2  free  transition at x/c =  0.9638   76

   1   rms: 0.9768E-01   max: -.4999E+00   C at   76  2
       a =  2.000      CL =  0.5176
      Cm = -0.0439     CD =  0.00813   =>   CDf =  0.00525    CDp =  0.00288

 Side 1  free  transition at x/c =  0.5966   57
 Side 2  free  transition at x/c =  0.9869   77

   2   rms: 0.2253E-01   max: -.2679E+00   C at   77  2
       a =  2.000      CL =  0.5240
      Cm = -0.0455     CD =  0.00819   =>   CDf =  0.00536    CDp =  0.00283

 Side 1  free  transition at x/c =  0.5973   57
 Side 2  free  transition at x/c =  0.9903   77

   3   rms: 0.1166E-02   max: -.1203E-01   D at   78  2
       a =  2.000      CL =  0.5238
      Cm = -0.0454     CD =  0.00821   =>   CDf =  0.00534    CDp =  0.00286

 Side 1  free  transition at x/c =  0.5972   57
 Side 2  free  transition at x/c =  0.9903   77

   4   rms: 0.1628E-04   max: 0.2377E-03   C at   77  2
       a =  2.000      CL =  0.5238
      Cm = -0.0454     CD =  0.00821   =>   CDf =  0.00534    CDp =  0.00286
 plradd ia,ip,cpol           13           0  0.16646421    

 Point added to stored polar  1
 Point written to save file  vr5_Re400k.base.pol                             
 Dump file unspecified or not available
 Calculating wake trajectory ...
 Calculating source influence matrix ...

 Solving BL system ...

 Side 1  free  transition at x/c =  0.5972   57
 Side 2  free  transition at x/c =  0.9903   77

   1   rms: 0.1015E+00   max: -.3278E+00   C at   77  2
       a =  2.500      CL =  0.6021
      Cm = -0.0506     CD =  0.00839   =>   CDf =  0.00533    CDp =  0.00306

 Side 1  free  transition at x/c =  0.5896   57
 Side 2 forced transition at x/c =  1.0000   77

   2   rms: 0.5089E-01   max: -.5914E+00   C at   77  2   RLX: 0.845
       a =  2.500      CL =  0.5855
      Cm = -0.0474     CD =  0.00836   =>   CDf =  0.00536    CDp =  0.00299

 Side 1  free  transition at x/c =  0.5884   57
 Side 2 forced transition at x/c =  1.0000   77

   3   rms: 0.5592E-02   max: 0.4622E-01   C at   77  2
       a =  2.500      CL =  0.5868
      Cm = -0.0476     CD =  0.00833   =>   CDf =  0.00538    CDp =  0.00295

 Side 1  free  transition at x/c =  0.5882   57
 Side 2 forced transition at x/c =  1.0000   77

   4   rms: 0.3637E-03   max: 0.5011E-02   C at   77  2
       a =  2.500      CL =  0.5869
      Cm = -0.0476     CD =  0.00833   =>   CDf =  0.00537    CDp =  0.00296

 Side 1  free  transition at x/c =  0.5882   57
 Side 2 forced transition at x/c =  1.0000   77

   5   rms: 0.2328E-05   max: 0.2652E-04   C at   77  2
       a =  2.500      CL =  0.5869
      Cm = -0.0476     CD =  0.00833   =>   CDf =  0.00537    CDp =  0.00296
 plradd ia,ip,cpol           14           0  0.16646421    

 Point added to stored polar  1
 Point written to save file  vr5_Re400k.base.pol                             
 Dump file unspecified or not available
 Calculating wake trajectory ...
 Calculating source influence matrix ...

 Solving BL system ...

 Side 1  free  transition at x/c =  0.5882   57
 Side 2 forced transition at x/c =  1.0000   77

   1   rms: 0.8764E-01   max: -.3887E+00   C at   77  2
       a =  3.000      CL =  0.6431
      Cm = -0.0483     CD =  0.00850   =>   CDf =  0.00537    CDp =  0.00313

 Side 1  free  transition at x/c =  0.5788   56
 Side 2 forced transition at x/c =  1.0000   77

   2   rms: 0.1409E-01   max: -.1206E+00   D at   57  1
       a =  3.000      CL =  0.6437
      Cm = -0.0483     CD =  0.00853   =>   CDf =  0.00550    CDp =  0.00303

 Side 1  free  transition at x/c =  0.5797   56
 Side 2 forced transition at x/c =  1.0000   77

   3   rms: 0.9286E-03   max: 0.8396E-02   D at   57  1
       a =  3.000      CL =  0.6437
      Cm = -0.0483     CD =  0.00854   =>   CDf =  0.00546    CDp =  0.00308

 Side 1  free  transition at x/c =  0.5796   56
 Side 2 forced transition at x/c =  1.0000   77

   4   rms: 0.7066E-05   max: 0.5613E-04   C at   77  2
       a =  3.000      CL =  0.6437
      Cm = -0.0483     CD =  0.00854   =>   CDf =  0.00546    CDp =  0.00308
 plradd ia,ip,cpol           15           0  0.16646421    

 Point added to stored polar  1
 Point written to save file  vr5_Re400k.base.pol                             
 Dump file unspecified or not available
 Calculating wake trajectory ...
 Calculating source influence matrix ...

 Solving BL system ...

 Side 1  free  transition at x/c =  0.5796   56
 Side 2 forced transition at x/c =  1.0000   77

   1   rms: 0.8562E-01   max: -.2535E+00   C at   77  2
       a =  3.500      CL =  0.7015
      Cm = -0.0492     CD =  0.00867   =>   CDf =  0.00541    CDp =  0.00326

 Side 1  free  transition at x/c =  0.5681   57
 Side 2 forced transition at x/c =  1.0000   76

   2   rms: 0.1242E-01   max: -.1372E+00   D at   57  1
       a =  3.500      CL =  0.7012
      Cm = -0.0491     CD =  0.00869   =>   CDf =  0.00551    CDp =  0.00318

 Side 1  free  transition at x/c =  0.5700   57
 Side 2 forced transition at x/c =  1.0000   76

   3   rms: 0.6865E-03   max: -.8974E-02   D at   59  1
       a =  3.500      CL =  0.7012
      Cm = -0.0491     CD =  0.00870   =>   CDf =  0.00544    CDp =  0.00327

 Side 1  free  transition at x/c =  0.5699   57
 Side 2 forced transition at x/c =  1.0000   76

   4   rms: 0.5675E-05   max: -.8177E-04   D at   59  1
       a =  3.500      CL =  0.7012
      Cm = -0.0491     CD =  0.00870   =>   CDf =  0.00544    CDp =  0.00326
 plradd ia,ip,cpol           16           0  0.16646421    

 Point added to stored polar  1
 Point written to save file  vr5_Re400k.base.pol                             
 Dump file unspecified or not available
 Calculating wake trajectory ...
 Calculating source influence matrix ...

 Solving BL system ...

 Side 1  free  transition at x/c =  0.5699   57
 Side 2 forced transition at x/c =  1.0000   76

   1   rms: 0.8470E-01   max: -.1876E+00   C at   76  2
       a =  4.000      CL =  0.7585
      Cm = -0.0497     CD =  0.00892   =>   CDf =  0.00538    CDp =  0.00354

 Side 1  free  transition at x/c =  0.5604   57
 Side 2 forced transition at x/c =  1.0000   75

   2   rms: 0.1007E-01   max: -.1258E+00   D at   57  1
       a =  4.000      CL =  0.7584
      Cm = -0.0497     CD =  0.00892   =>   CDf =  0.00546    CDp =  0.00346

 Side 1  free  transition at x/c =  0.5596   57
 Side 2 forced transition at x/c =  1.0000   75

   3   rms: 0.6767E-03   max: -.6735E-02   D at    4  1
       a =  4.000      CL =  0.7585
      Cm = -0.0497     CD =  0.00892   =>   CDf =  0.00543    CDp =  0.00349

 Side 1  free  transition at x/c =  0.5595   57
 Side 2 forced transition at x/c =  1.0000   75

   4   rms: 0.1121E-05   max: 0.6682E-05   D at   60  1
       a =  4.000      CL =  0.7585
      Cm = -0.0497     CD =  0.00892   =>   CDf =  0.00543    CDp =  0.00349
 plradd ia,ip,cpol           17           0  0.16646421    

 Point added to stored polar  1
 Point written to save file  vr5_Re400k.base.pol                             
 Dump file unspecified or not available
 Calculating wake trajectory ...
 Calculating source influence matrix ...

 Solving BL system ...

 Side 1  free  transition at x/c =  0.5595   57
 Side 2 forced transition at x/c =  1.0000   75

   1   rms: 0.8393E-01   max: -.1612E+00   C at   75  2
       a =  4.500      CL =  0.8157
      Cm = -0.0504     CD =  0.00910   =>   CDf =  0.00543    CDp =  0.00367

 Side 1  free  transition at x/c =  0.5470   56
 Side 2 forced transition at x/c =  1.0000   75

   2   rms: 0.1473E-01   max: -.1266E+00   D at   57  1
       a =  4.500      CL =  0.8154
      Cm = -0.0503     CD =  0.00915   =>   CDf =  0.00548    CDp =  0.00367

 Side 1  free  transition at x/c =  0.5485   56
 Side 2 forced transition at x/c =  1.0000   75

   3   rms: 0.7384E-03   max: 0.9567E-02   D at   57  1
       a =  4.500      CL =  0.8154
      Cm = -0.0503     CD =  0.00915   =>   CDf =  0.00544    CDp =  0.00371

 Side 1  free  transition at x/c =  0.5483   56
 Side 2 forced transition at x/c =  1.0000   75

   4   rms: 0.3008E-05   max: -.2314E-04   D at   56  1
       a =  4.500      CL =  0.8154
      Cm = -0.0503     CD =  0.00915   =>   CDf =  0.00544    CDp =  0.00371
 plradd ia,ip,cpol           18           0  1.54884793E-02

 Point added to stored polar  1
 Point written to save file  vr5_Re400k.base.pol                             
 Dump file unspecified or not available
 Calculating wake trajectory ...
 Calculating source influence matrix ...

 Solving BL system ...

 Side 1  free  transition at x/c =  0.5483   56
 Side 2 forced transition at x/c =  1.0000   75

   1   rms: 0.8516E-01   max: -.1502E+00   C at   75  2
       a =  5.000      CL =  0.8726
      Cm = -0.0511     CD =  0.00926   =>   CDf =  0.00534    CDp =  0.00392

 Side 1  free  transition at x/c =  0.5305   56
 Side 2 forced transition at x/c =  1.0000   74

   2   rms: 0.2391E-01   max: -.2792E+00   D at   57  1
       a =  5.000      CL =  0.8717
      Cm = -0.0508     CD =  0.00937   =>   CDf =  0.00547    CDp =  0.00391

 Side 1  free  transition at x/c =  0.5345   56
 Side 2 forced transition at x/c =  1.0000   74

   3   rms: 0.2776E-02   max: 0.3534E-01   D at   57  1
       a =  5.000      CL =  0.8720
      Cm = -0.0508     CD =  0.00936   =>   CDf =  0.00542    CDp =  0.00394

 Side 1  free  transition at x/c =  0.5340   56
 Side 2 forced transition at x/c =  1.0000   74

   4   rms: 0.2518E-04   max: 0.3299E-03   D at   57  1
       a =  5.000      CL =  0.8720
      Cm = -0.0508     CD =  0.00936   =>   CDf =  0.00541    CDp =  0.00395
 plradd ia,ip,cpol           19           0  4.69573541E-03

 Point added to stored polar  1
 Point written to save file  vr5_Re400k.base.pol                             
 Dump file unspecified or not available
 Calculating wake trajectory ...
 Calculating source influence matrix ...

 Solving BL system ...

 Side 1  free  transition at x/c =  0.5340   56
 Side 2 forced transition at x/c =  1.0000   74

   1   rms: 0.8735E-01   max: -.1424E+00   C at   74  2
       a =  5.500      CL =  0.9290
      Cm = -0.0516     CD =  0.00940   =>   CDf =  0.00530    CDp =  0.00410

 Side 1  free  transition at x/c =  0.5126   56
 Side 2 forced transition at x/c =  1.0000   73

   2   rms: 0.2327E-01   max: -.2191E+00   D at   57  1
       a =  5.500      CL =  0.9281
      Cm = -0.0513     CD =  0.00952   =>   CDf =  0.00541    CDp =  0.00411

 Side 1  free  transition at x/c =  0.5178   56
 Side 2 forced transition at x/c =  1.0000   73

   3   rms: 0.2032E-02   max: 0.1858E-01   D at   57  1
       a =  5.500      CL =  0.9283
      Cm = -0.0513     CD =  0.00953   =>   CDf =  0.00532    CDp =  0.00421

 Side 1  free  transition at x/c =  0.5170   56
 Side 2 forced transition at x/c =  1.0000   73

   4   rms: 0.3928E-04   max: -.4564E-03   D at   57  1
       a =  5.500      CL =  0.9283
      Cm = -0.0513     CD =  0.00953   =>   CDf =  0.00532    CDp =  0.00421
 plradd ia,ip,cpol           20           0  4.69573541E-03

 Point added to stored polar  1
 Point written to save file  vr5_Re400k.base.pol                             
 Dump file unspecified or not available
 Calculating wake trajectory ...
 Calculating source influence matrix ...

 Solving BL system ...

 Side 1  free  transition at x/c =  0.5170   56
 Side 2 forced transition at x/c =  1.0000   73

   1   rms: 0.8679E-01   max: -.1307E+00   C at   73  2
       a =  6.000      CL =  0.9851
      Cm = -0.0520     CD =  0.00960   =>   CDf =  0.00533    CDp =  0.00427

 Side 1  free  transition at x/c =  0.4809   54
 Side 2 forced transition at x/c =  1.0000   73

   2   rms: 0.3468E-01   max: -.5093E+00   D at   55  1   RLX: 0.982
       a =  6.000      CL =  0.9829
      Cm = -0.0515     CD =  0.00976   =>   CDf =  0.00539    CDp =  0.00437

 Side 1  free  transition at x/c =  0.4925   55
 Side 2 forced transition at x/c =  1.0000   73

   3   rms: 0.7553E-02   max: 0.9226E-01   C at   55  1
       a =  6.000      CL =  0.9839
      Cm = -0.0517     CD =  0.00965   =>   CDf =  0.00522    CDp =  0.00443

 Side 1  free  transition at x/c =  0.4905   55
 Side 2 forced transition at x/c =  1.0000   73

   4   rms: 0.4212E-03   max: -.7293E-02   D at   57  1
       a =  6.000      CL =  0.9839
      Cm = -0.0517     CD =  0.00966   =>   CDf =  0.00526    CDp =  0.00440

 Side 1  free  transition at x/c =  0.4904   55
 Side 2 forced transition at x/c =  1.0000   73

   5   rms: 0.1825E-05   max: -.3311E-04   D at   57  1
       a =  6.000      CL =  0.9839
      Cm = -0.0517     CD =  0.00966   =>   CDf =  0.00527    CDp =  0.00439
 plradd ia,ip,cpol           21           0  3.08786286E-03

 Point added to stored polar  1
 Point written to save file  vr5_Re400k.base.pol                             
 Dump file unspecified or not available
 Calculating wake trajectory ...
 Calculating source influence matrix ...

 Solving BL system ...

 Side 1  free  transition at x/c =  0.4904   55
 Side 2 forced transition at x/c =  1.0000   73

   1   rms: 0.1036E+00   max: -.6498E+00   D at   56  1   RLX: 0.770
       a =  6.500      CL =  1.0253
      Cm = -0.0517     CD =  0.00991   =>   CDf =  0.00512    CDp =  0.00480

 Side 1  free  transition at x/c =  0.4628   54
 Side 2 forced transition at x/c =  1.0000   72

   2   rms: 0.3225E-01   max: -.3101E+00   D at   56  1
       a =  6.500      CL =  1.0386
      Cm = -0.0520     CD =  0.00989   =>   CDf =  0.00521    CDp =  0.00468

 Side 1  free  transition at x/c =  0.4476   53
 Side 2 forced transition at x/c =  1.0000   72

   3   rms: 0.5043E-02   max: 0.5322E-01   D at   55  1
       a =  6.500      CL =  1.0386
      Cm = -0.0520     CD =  0.00991   =>   CDf =  0.00525    CDp =  0.00466

 Side 1  free  transition at x/c =  0.4482   53
 Side 2 forced transition at x/c =  1.0000   72

   4   rms: 0.2201E-03   max: -.3509E-02   D at   55  1
       a =  6.500      CL =  1.0386
      Cm = -0.0520     CD =  0.00991   =>   CDf =  0.00524    CDp =  0.00467

 Side 1  free  transition at x/c =  0.4481   53
 Side 2 forced transition at x/c =  1.0000   72

   5   rms: 0.1069E-05   max: -.1317E-04   D at   55  1
       a =  6.500      CL =  1.0386
      Cm = -0.0520     CD =  0.00991   =>   CDf =  0.00524    CDp =  0.00467
 plradd ia,ip,cpol           22           0  3.08786286E-03

 Point added to stored polar  1
 Point written to save file  vr5_Re400k.base.pol                             
 Dump file unspecified or not available
 Calculating wake trajectory ...
 Calculating source influence matrix ...

 Solving BL system ...

 Side 1  free  transition at x/c =  0.4481   53
 Side 2 forced transition at x/c =  1.0000   72

   1   rms: 0.1101E+00   max: 0.9481E+00   C at   53  1   RLX: 0.749
       a =  7.000      CL =  1.0777
      Cm = -0.0520     CD =  0.01031   =>   CDf =  0.00524    CDp =  0.00507

 Side 1  free  transition at x/c =  0.3896   49
 Side 2 forced transition at x/c =  1.0000   72

   2   rms: 0.2923E-01   max: -.1850E+00   D at   49  1
       a =  7.000      CL =  1.0887
      Cm = -0.0519     CD =  0.01075   =>   CDf =  0.00529    CDp =  0.00545

 Side 1  free  transition at x/c =  0.3731   49
 Side 2 forced transition at x/c =  1.0000   71

   3   rms: 0.3549E-02   max: -.5497E-01   C at   49  1
       a =  7.000      CL =  1.0887
      Cm = -0.0519     CD =  0.01076   =>   CDf =  0.00552    CDp =  0.00524

 Side 1  free  transition at x/c =  0.3744   49
 Side 2 forced transition at x/c =  1.0000   71

   4   rms: 0.7100E-03   max: -.8518E-02   D at    4  1
       a =  7.000      CL =  1.0886
      Cm = -0.0519     CD =  0.01076   =>   CDf =  0.00550    CDp =  0.00526

 Side 1  free  transition at x/c =  0.3744   49
 Side 2 forced transition at x/c =  1.0000   71

   5   rms: 0.1011E-05   max: 0.8316E-05   C at   49  1
       a =  7.000      CL =  1.0886
      Cm = -0.0519     CD =  0.01076   =>   CDf =  0.00550    CDp =  0.00526
 plradd ia,ip,cpol           23           0  3.08786286E-03

 Point added to stored polar  1
 Point written to save file  vr5_Re400k.base.pol                             
 Dump file unspecified or not available
 Calculating wake trajectory ...
 Calculating source influence matrix ...

 Solving BL system ...

 Side 1  free  transition at x/c =  0.3744   49
 Side 2 forced transition at x/c =  1.0000   71

   1   rms: 0.1587E+00   max: 0.2388E+01   C at   49  1   RLX: 0.570
       a =  7.500      CL =  1.1141
      Cm = -0.0517     CD =  0.01165   =>   CDf =  0.00550    CDp =  0.00614

 Side 1  free  transition at x/c =  0.3093   44
 Side 2 forced transition at x/c =  1.0000   71

   2   rms: 0.5697E-01   max: 0.8092E+00   C at   44  1
       a =  7.500      CL =  1.1332
      Cm = -0.0515     CD =  0.01232   =>   CDf =  0.00582    CDp =  0.00649

 Side 1  free  transition at x/c =  0.2669   41
 Side 2 forced transition at x/c =  1.0000   71

   3   rms: 0.1279E-01   max: -.2186E+00   C at   41  1
       a =  7.500      CL =  1.1307
      Cm = -0.0513     CD =  0.01257   =>   CDf =  0.00607    CDp =  0.00650

 Side 1  free  transition at x/c =  0.2724   42
 Side 2 forced transition at x/c =  1.0000   71

   4   rms: 0.3388E-02   max: -.5775E-01   C at   42  1
       a =  7.500      CL =  1.1313
      Cm = -0.0514     CD =  0.01250   =>   CDf =  0.00602    CDp =  0.00648

 Side 1  free  transition at x/c =  0.2729   42
 Side 2 forced transition at x/c =  1.0000   71

   5   rms: 0.4624E-04   max: 0.8069E-03   C at   42  1
       a =  7.500      CL =  1.1313
      Cm = -0.0514     CD =  0.01251   =>   CDf =  0.00601    CDp =  0.00650
 plradd ia,ip,cpol           24           0  3.08786286E-03

 Point added to stored polar  1
 Point written to save file  vr5_Re400k.base.pol                             
 Dump file unspecified or not available
 Calculating wake trajectory ...
 Calculating source influence matrix ...

 Solving BL system ...

 Side 1  free  transition at x/c =  0.2729   42
 Side 2 forced transition at x/c =  1.0000   71

   1   rms: 0.1738E+00   max: 0.2832E+01   C at   42  1   RLX: 0.530
       a =  8.000      CL =  1.1523
      Cm = -0.0510     CD =  0.01362   =>   CDf =  0.00601    CDp =  0.00761

 Side 1  free  transition at x/c =  0.2316   39
 Side 2 forced transition at x/c =  1.0000   71

   2   rms: 0.5526E-01   max: 0.5935E+00   C at   39  1
       a =  8.000      CL =  1.1742
      Cm = -0.0508     CD =  0.01413   =>   CDf =  0.00602    CDp =  0.00811

 Side 1  free  transition at x/c =  0.1776   36
 Side 2 forced transition at x/c =  1.0000   70

   3   rms: 0.1631E-01   max: -.2803E+00   C at   36  1
       a =  8.000      CL =  1.1709
      Cm = -0.0505     CD =  0.01442   =>   CDf =  0.00646    CDp =  0.00797

 Side 1  free  transition at x/c =  0.1866   37
 Side 2 forced transition at x/c =  1.0000   70

   4   rms: 0.5616E-02   max: 0.1165E+00   C at   37  1
       a =  8.000      CL =  1.1711
      Cm = -0.0505     CD =  0.01440   =>   CDf =  0.00639    CDp =  0.00801

 Side 1  free  transition at x/c =  0.1832   37
 Side 2 forced transition at x/c =  1.0000   70

   5   rms: 0.6810E-03   max: -.1408E-01   C at   37  1
       a =  8.000      CL =  1.1711
      Cm = -0.0505     CD =  0.01441   =>   CDf =  0.00642    CDp =  0.00799

 Side 1  free  transition at x/c =  0.1836   37
 Side 2 forced transition at x/c =  1.0000   70

   6   rms: 0.3505E-05   max: -.3621E-04   C at   37  1
       a =  8.000      CL =  1.1711
      Cm = -0.0505     CD =  0.01441   =>   CDf =  0.00641    CDp =  0.00799
 plradd ia,ip,cpol           25           0  3.08786286E-03

 Point added to stored polar  1
 Point written to save file  vr5_Re400k.base.pol                             
 Dump file unspecified or not available
 Calculating wake trajectory ...
 Calculating source influence matrix ...

 Solving BL system ...

 Side 1  free  transition at x/c =  0.1836   37
 Side 2 forced transition at x/c =  1.0000   70

   1   rms: 0.3091E+00   max: 0.6205E+01   C at   37  1   RLX: 0.242
       a =  8.500      CL =  1.1774
      Cm = -0.0501     CD =  0.01522   =>   CDf =  0.00642    CDp =  0.00880

 Side 1  free  transition at x/c =  0.1369   33
 Side 2 forced transition at x/c =  1.0000   70

   2   rms: 0.1590E+00   max: 0.3231E+01   C at   33  1   RLX: 0.464
       a =  8.500      CL =  1.1881
      Cm = -0.0497     CD =  0.01623   =>   CDf =  0.00674    CDp =  0.00949

 Side 1  free  transition at x/c =  0.1112   31
 Side 2 forced transition at x/c =  1.0000   70

   3   rms: 0.3650E-01   max: -.2273E+00   D at   31  1
       a =  8.500      CL =  1.2035
      Cm = -0.0490     CD =  0.01681   =>   CDf =  0.00690    CDp =  0.00991

 Side 1  free  transition at x/c =  0.0834   29
 Side 2 forced transition at x/c =  1.0000   70

   4   rms: 0.1117E-01   max: -.2117E+00   C at   29  1
       a =  8.500      CL =  1.1986
      Cm = -0.0486     CD =  0.01723   =>   CDf =  0.00706    CDp =  0.01017

 Side 1  free  transition at x/c =  0.0846   29
 Side 2 forced transition at x/c =  1.0000   70

   5   rms: 0.1104E-01   max: -.2423E+00   C at   29  1
       a =  8.500      CL =  1.1986
      Cm = -0.0486     CD =  0.01722   =>   CDf =  0.00706    CDp =  0.01017

 Side 1  free  transition at x/c =  0.0846   29
 Side 2 forced transition at x/c =  1.0000   70

   6   rms: 0.1126E-01   max: -.2470E+00   C at   29  1
       a =  8.500      CL =  1.1986
      Cm = -0.0486     CD =  0.01722   =>   CDf =  0.00706    CDp =  0.01017

 Side 1  free  transition at x/c =  0.0846   29
 Side 2 forced transition at x/c =  1.0000   70

   7   rms: 0.1125E-01   max: -.2470E+00   C at   29  1
       a =  8.500      CL =  1.1986
      Cm = -0.0486     CD =  0.01722   =>   CDf =  0.00706    CDp =  0.01017

 Side 1  free  transition at x/c =  0.0846   29
 Side 2 forced transition at x/c =  1.0000   70

   8   rms: 0.1126E-01   max: -.2470E+00   C at   29  1
       a =  8.500      CL =  1.1986
      Cm = -0.0486     CD =  0.01722   =>   CDf =  0.00706    CDp =  0.01017

 Side 1  free  transition at x/c =  0.0846   29
 Side 2 forced transition at x/c =  1.0000   70

   9   rms: 0.1126E-01   max: -.2470E+00   C at   29  1
       a =  8.500      CL =  1.1986
      Cm = -0.0486     CD =  0.01722   =>   CDf =  0.00706    CDp =  0.01017

 Side 1  free  transition at x/c =  0.0846   29
 Side 2 forced transition at x/c =  1.0000   70

  10   rms: 0.1126E-01   max: -.2470E+00   C at   29  1
       a =  8.500      CL =  1.1986
      Cm = -0.0486     CD =  0.01722   =>   CDf =  0.00706    CDp =  0.01017

 Side 1  free  transition at x/c =  0.0846   29
 Side 2 forced transition at x/c =  1.0000   70

  11   rms: 0.1126E-01   max: -.2470E+00   C at   29  1
       a =  8.500      CL =  1.1986
      Cm = -0.0486     CD =  0.01722   =>   CDf =  0.00706    CDp =  0.01017

 Side 1  free  transition at x/c =  0.0846   29
 Side 2 forced transition at x/c =  1.0000   70

  12   rms: 0.1126E-01   max: -.2470E+00   C at   29  1
       a =  8.500      CL =  1.1986
      Cm = -0.0486     CD =  0.01722   =>   CDf =  0.00706    CDp =  0.01017

 Side 1  free  transition at x/c =  0.0846   29
 Side 2 forced transition at x/c =  1.0000   70

  13   rms: 0.1126E-01   max: -.2470E+00   C at   29  1
       a =  8.500      CL =  1.1986
      Cm = -0.0486     CD =  0.01722   =>   CDf =  0.00706    CDp =  0.01017

 Side 1  free  transition at x/c =  0.0846   29
 Side 2 forced transition at x/c =  1.0000   70

  14   rms: 0.1126E-01   max: -.2470E+00   C at   29  1
       a =  8.500      CL =  1.1986
      Cm = -0.0486     CD =  0.01722   =>   CDf =  0.00706    CDp =  0.01017

 Side 1  free  transition at x/c =  0.0846   29
 Side 2 forced transition at x/c =  1.0000   70

  15   rms: 0.1126E-01   max: -.2470E+00   C at   29  1
       a =  8.500      CL =  1.1986
      Cm = -0.0486     CD =  0.01722   =>   CDf =  0.00706    CDp =  0.01017

 Side 1  free  transition at x/c =  0.0846   29
 Side 2 forced transition at x/c =  1.0000   70

  16   rms: 0.1126E-01   max: -.2470E+00   C at   29  1
       a =  8.500      CL =  1.1986
      Cm = -0.0486     CD =  0.01722   =>   CDf =  0.00706    CDp =  0.01017

 Side 1  free  transition at x/c =  0.0846   29
 Side 2 forced transition at x/c =  1.0000   70

  17   rms: 0.1126E-01   max: -.2470E+00   C at   29  1
       a =  8.500      CL =  1.1986
      Cm = -0.0486     CD =  0.01722   =>   CDf =  0.00706    CDp =  0.01017

 Side 1  free  transition at x/c =  0.0846   29
 Side 2 forced transition at x/c =  1.0000   70

  18   rms: 0.1126E-01   max: -.2470E+00   C at   29  1
       a =  8.500      CL =  1.1986
      Cm = -0.0486     CD =  0.01722   =>   CDf =  0.00706    CDp =  0.01017

 Side 1  free  transition at x/c =  0.0846   29
 Side 2 forced transition at x/c =  1.0000   70

  19   rms: 0.1126E-01   max: -.2470E+00   C at   29  1
       a =  8.500      CL =  1.1986
      Cm = -0.0486     CD =  0.01722   =>   CDf =  0.00706    CDp =  0.01017

 Side 1  free  transition at x/c =  0.0846   29
 Side 2 forced transition at x/c =  1.0000   70

  20   rms: 0.1126E-01   max: -.2470E+00   C at   29  1
       a =  8.500      CL =  1.1986
      Cm = -0.0486     CD =  0.01722   =>   CDf =  0.00706    CDp =  0.01017

 Side 1  free  transition at x/c =  0.0846   29
 Side 2 forced transition at x/c =  1.0000   70

  21   rms: 0.1126E-01   max: -.2470E+00   C at   29  1
       a =  8.500      CL =  1.1986
      Cm = -0.0486     CD =  0.01722   =>   CDf =  0.00706    CDp =  0.01017

 Side 1  free  transition at x/c =  0.0846   29
 Side 2 forced transition at x/c =  1.0000   70

  22   rms: 0.1126E-01   max: -.2470E+00   C at   29  1
       a =  8.500      CL =  1.1986
      Cm = -0.0486     CD =  0.01722   =>   CDf =  0.00706    CDp =  0.01017

 Side 1  free  transition at x/c =  0.0846   29
 Side 2 forced transition at x/c =  1.0000   70

  23   rms: 0.1126E-01   max: -.2470E+00   C at   29  1
       a =  8.500      CL =  1.1986
      Cm = -0.0486     CD =  0.01722   =>   CDf =  0.00706    CDp =  0.01017

 Side 1  free  transition at x/c =  0.0846   29
 Side 2 forced transition at x/c =  1.0000   70

  24   rms: 0.1126E-01   max: -.2470E+00   C at   29  1
       a =  8.500      CL =  1.1986
      Cm = -0.0486     CD =  0.01722   =>   CDf =  0.00706    CDp =  0.01017

 Side 1  free  transition at x/c =  0.0846   29
 Side 2 forced transition at x/c =  1.0000   70

  25   rms: 0.1126E-01   max: -.2470E+00   C at   29  1
       a =  8.500      CL =  1.1986
      Cm = -0.0486     CD =  0.01722   =>   CDf =  0.00706    CDp =  0.01017

 Side 1  free  transition at x/c =  0.0846   29
 Side 2 forced transition at x/c =  1.0000   70

  26   rms: 0.1126E-01   max: -.2470E+00   C at   29  1
       a =  8.500      CL =  1.1986
      Cm = -0.0486     CD =  0.01722   =>   CDf =  0.00706    CDp =  0.01017

 Side 1  free  transition at x/c =  0.0846   29
 Side 2 forced transition at x/c =  1.0000   70

  27   rms: 0.1126E-01   max: -.2470E+00   C at   29  1
       a =  8.500      CL =  1.1986
      Cm = -0.0486     CD =  0.01722   =>   CDf =  0.00706    CDp =  0.01017

 Side 1  free  transition at x/c =  0.0846   29
 Side 2 forced transition at x/c =  1.0000   70

  28   rms: 0.1126E-01   max: -.2470E+00   C at   29  1
       a =  8.500      CL =  1.1986
      Cm = -0.0486     CD =  0.01722   =>   CDf =  0.00706    CDp =  0.01017

 Side 1  free  transition at x/c =  0.0846   29
 Side 2 forced transition at x/c =  1.0000   70

  29   rms: 0.1126E-01   max: -.2470E+00   C at   29  1
       a =  8.500      CL =  1.1986
      Cm = -0.0486     CD =  0.01722   =>   CDf =  0.00706    CDp =  0.01017

 Side 1  free  transition at x/c =  0.0846   29
 Side 2 forced transition at x/c =  1.0000   70

  30   rms: 0.1126E-01   max: -.2470E+00   C at   29  1
       a =  8.500      CL =  1.1986
      Cm = -0.0486     CD =  0.01722   =>   CDf =  0.00706    CDp =  0.01017

 Side 1  free  transition at x/c =  0.0846   29
 Side 2 forced transition at x/c =  1.0000   70

  31   rms: 0.1126E-01   max: -.2470E+00   C at   29  1
       a =  8.500      CL =  1.1986
      Cm = -0.0486     CD =  0.01722   =>   CDf =  0.00706    CDp =  0.01017

 Side 1  free  transition at x/c =  0.0846   29
 Side 2 forced transition at x/c =  1.0000   70

  32   rms: 0.1126E-01   max: -.2470E+00   C at   29  1
       a =  8.500      CL =  1.1986
      Cm = -0.0486     CD =  0.01722   =>   CDf =  0.00706    CDp =  0.01017

 Side 1  free  transition at x/c =  0.0846   29
 Side 2 forced transition at x/c =  1.0000   70

  33   rms: 0.1126E-01   max: -.2470E+00   C at   29  1
       a =  8.500      CL =  1.1986
      Cm = -0.0486     CD =  0.01722   =>   CDf =  0.00706    CDp =  0.01017

 Side 1  free  transition at x/c =  0.0846   29
 Side 2 forced transition at x/c =  1.0000   70

  34   rms: 0.1126E-01   max: -.2470E+00   C at   29  1
       a =  8.500      CL =  1.1986
      Cm = -0.0486     CD =  0.01722   =>   CDf =  0.00706    CDp =  0.01017

 Side 1  free  transition at x/c =  0.0846   29
 Side 2 forced transition at x/c =  1.0000   70

  35   rms: 0.1126E-01   max: -.2470E+00   C at   29  1
       a =  8.500      CL =  1.1986
      Cm = -0.0486     CD =  0.01722   =>   CDf =  0.00706    CDp =  0.01017

 Side 1  free  transition at x/c =  0.0846   29
 Side 2 forced transition at x/c =  1.0000   70

  36   rms: 0.1126E-01   max: -.2470E+00   C at   29  1
       a =  8.500      CL =  1.1986
      Cm = -0.0486     CD =  0.01722   =>   CDf =  0.00706    CDp =  0.01017

 Side 1  free  transition at x/c =  0.0846   29
 Side 2 forced transition at x/c =  1.0000   70

  37   rms: 0.1126E-01   max: -.2470E+00   C at   29  1
       a =  8.500      CL =  1.1986
      Cm = -0.0486     CD =  0.01722   =>   CDf =  0.00706    CDp =  0.01017

 Side 1  free  transition at x/c =  0.0846   29
 Side 2 forced transition at x/c =  1.0000   70

  38   rms: 0.1126E-01   max: -.2470E+00   C at   29  1
       a =  8.500      CL =  1.1986
      Cm = -0.0486     CD =  0.01722   =>   CDf =  0.00706    CDp =  0.01017

 Side 1  free  transition at x/c =  0.0846   29
 Side 2 forced transition at x/c =  1.0000   70

  39   rms: 0.1126E-01   max: -.2470E+00   C at   29  1
       a =  8.500      CL =  1.1986
      Cm = -0.0486     CD =  0.01722   =>   CDf =  0.00706    CDp =  0.01017

 Side 1  free  transition at x/c =  0.0846   29
 Side 2 forced transition at x/c =  1.0000   70

  40   rms: 0.1126E-01   max: -.2470E+00   C at   29  1
       a =  8.500      CL =  1.1986
      Cm = -0.0486     CD =  0.01722   =>   CDf =  0.00706    CDp =  0.01017

 Side 1  free  transition at x/c =  0.0846   29
 Side 2 forced transition at x/c =  1.0000   70

  41   rms: 0.1126E-01   max: -.2470E+00   C at   29  1
       a =  8.500      CL =  1.1986
      Cm = -0.0486     CD =  0.01722   =>   CDf =  0.00706    CDp =  0.01017

 Side 1  free  transition at x/c =  0.0846   29
 Side 2 forced transition at x/c =  1.0000   70

  42   rms: 0.1126E-01   max: -.2470E+00   C at   29  1
       a =  8.500      CL =  1.1986
      Cm = -0.0486     CD =  0.01722   =>   CDf =  0.00706    CDp =  0.01017

 Side 1  free  transition at x/c =  0.0846   29
 Side 2 forced transition at x/c =  1.0000   70

  43   rms: 0.1126E-01   max: -.2470E+00   C at   29  1
       a =  8.500      CL =  1.1986
      Cm = -0.0486     CD =  0.01722   =>   CDf =  0.00706    CDp =  0.01017

 Side 1  free  transition at x/c =  0.0846   29
 Side 2 forced transition at x/c =  1.0000   70

  44   rms: 0.1126E-01   max: -.2470E+00   C at   29  1
       a =  8.500      CL =  1.1986
      Cm = -0.0486     CD =  0.01722   =>   CDf =  0.00706    CDp =  0.01017

 Side 1  free  transition at x/c =  0.0846   29
 Side 2 forced transition at x/c =  1.0000   70

  45   rms: 0.1126E-01   max: -.2470E+00   C at   29  1
       a =  8.500      CL =  1.1986
      Cm = -0.0486     CD =  0.01722   =>   CDf =  0.00706    CDp =  0.01017

 Side 1  free  transition at x/c =  0.0846   29
 Side 2 forced transition at x/c =  1.0000   70

  46   rms: 0.1126E-01   max: -.2470E+00   C at   29  1
       a =  8.500      CL =  1.1986
      Cm = -0.0486     CD =  0.01722   =>   CDf =  0.00706    CDp =  0.01017

 Side 1  free  transition at x/c =  0.0846   29
 Side 2 forced transition at x/c =  1.0000   70

  47   rms: 0.1126E-01   max: -.2470E+00   C at   29  1
       a =  8.500      CL =  1.1986
      Cm = -0.0486     CD =  0.01722   =>   CDf =  0.00706    CDp =  0.01017

 Side 1  free  transition at x/c =  0.0846   29
 Side 2 forced transition at x/c =  1.0000   70

  48   rms: 0.1126E-01   max: -.2470E+00   C at   29  1
       a =  8.500      CL =  1.1986
      Cm = -0.0486     CD =  0.01722   =>   CDf =  0.00706    CDp =  0.01017

 Side 1  free  transition at x/c =  0.0846   29
 Side 2 forced transition at x/c =  1.0000   70

  49   rms: 0.1126E-01   max: -.2470E+00   C at   29  1
       a =  8.500      CL =  1.1986
      Cm = -0.0486     CD =  0.01722   =>   CDf =  0.00706    CDp =  0.01017

 Side 1  free  transition at x/c =  0.0846   29
 Side 2 forced transition at x/c =  1.0000   70

  50   rms: 0.1126E-01   max: -.2470E+00   C at   29  1
       a =  8.500      CL =  1.1986
      Cm = -0.0486     CD =  0.01722   =>   CDf =  0.00706    CDp =  0.01017

 Side 1  free  transition at x/c =  0.0846   29
 Side 2 forced transition at x/c =  1.0000   70

  51   rms: 0.1126E-01   max: -.2470E+00   C at   29  1
       a =  8.500      CL =  1.1986
      Cm = -0.0486     CD =  0.01722   =>   CDf =  0.00706    CDp =  0.01017

 Side 1  free  transition at x/c =  0.0846   29
 Side 2 forced transition at x/c =  1.0000   70

  52   rms: 0.1126E-01   max: -.2470E+00   C at   29  1
       a =  8.500      CL =  1.1986
      Cm = -0.0486     CD =  0.01722   =>   CDf =  0.00706    CDp =  0.01017

 Side 1  free  transition at x/c =  0.0846   29
 Side 2 forced transition at x/c =  1.0000   70

  53   rms: 0.1126E-01   max: -.2470E+00   C at   29  1
       a =  8.500      CL =  1.1986
      Cm = -0.0486     CD =  0.01722   =>   CDf =  0.00706    CDp =  0.01017

 Side 1  free  transition at x/c =  0.0846   29
 Side 2 forced transition at x/c =  1.0000   70

  54   rms: 0.1126E-01   max: -.2470E+00   C at   29  1
       a =  8.500      CL =  1.1986
      Cm = -0.0486     CD =  0.01722   =>   CDf =  0.00706    CDp =  0.01017

 Side 1  free  transition at x/c =  0.0846   29
 Side 2 forced transition at x/c =  1.0000   70

  55   rms: 0.1126E-01   max: -.2470E+00   C at   29  1
       a =  8.500      CL =  1.1986
      Cm = -0.0486     CD =  0.01722   =>   CDf =  0.00706    CDp =  0.01017

 Side 1  free  transition at x/c =  0.0846   29
 Side 2 forced transition at x/c =  1.0000   70

  56   rms: 0.1126E-01   max: -.2470E+00   C at   29  1
       a =  8.500      CL =  1.1986
      Cm = -0.0486     CD =  0.01722   =>   CDf =  0.00706    CDp =  0.01017

 Side 1  free  transition at x/c =  0.0846   29
 Side 2 forced transition at x/c =  1.0000   70

  57   rms: 0.1126E-01   max: -.2470E+00   C at   29  1
       a =  8.500      CL =  1.1986
      Cm = -0.0486     CD =  0.01722   =>   CDf =  0.00706    CDp =  0.01017

 Side 1  free  transition at x/c =  0.0846   29
 Side 2 forced transition at x/c =  1.0000   70

  58   rms: 0.1126E-01   max: -.2470E+00   C at   29  1
       a =  8.500      CL =  1.1986
      Cm = -0.0486     CD =  0.01722   =>   CDf =  0.00706    CDp =  0.01017

 Side 1  free  transition at x/c =  0.0846   29
 Side 2 forced transition at x/c =  1.0000   70

  59   rms: 0.1126E-01   max: -.2470E+00   C at   29  1
       a =  8.500      CL =  1.1986
      Cm = -0.0486     CD =  0.01722   =>   CDf =  0.00706    CDp =  0.01017

 Side 1  free  transition at x/c =  0.0846   29
 Side 2 forced transition at x/c =  1.0000   70

  60   rms: 0.1126E-01   max: -.2470E+00   C at   29  1
       a =  8.500      CL =  1.1986
      Cm = -0.0486     CD =  0.01722   =>   CDf =  0.00706    CDp =  0.01017

 Side 1  free  transition at x/c =  0.0846   29
 Side 2 forced transition at x/c =  1.0000   70

  61   rms: 0.1126E-01   max: -.2470E+00   C at   29  1
       a =  8.500      CL =  1.1986
      Cm = -0.0486     CD =  0.01722   =>   CDf =  0.00706    CDp =  0.01017

 Side 1  free  transition at x/c =  0.0846   29
 Side 2 forced transition at x/c =  1.0000   70

  62   rms: 0.1126E-01   max: -.2470E+00   C at   29  1
       a =  8.500      CL =  1.1986
      Cm = -0.0486     CD =  0.01722   =>   CDf =  0.00706    CDp =  0.01017

 Side 1  free  transition at x/c =  0.0846   29
 Side 2 forced transition at x/c =  1.0000   70

  63   rms: 0.1126E-01   max: -.2470E+00   C at   29  1
       a =  8.500      CL =  1.1986
      Cm = -0.0486     CD =  0.01722   =>   CDf =  0.00706    CDp =  0.01017

 Side 1  free  transition at x/c =  0.0846   29
 Side 2 forced transition at x/c =  1.0000   70

  64   rms: 0.1126E-01   max: -.2470E+00   C at   29  1
       a =  8.500      CL =  1.1986
      Cm = -0.0486     CD =  0.01722   =>   CDf =  0.00706    CDp =  0.01017

 Side 1  free  transition at x/c =  0.0846   29
 Side 2 forced transition at x/c =  1.0000   70

  65   rms: 0.1126E-01   max: -.2470E+00   C at   29  1
       a =  8.500      CL =  1.1986
      Cm = -0.0486     CD =  0.01722   =>   CDf =  0.00706    CDp =  0.01017

 Side 1  free  transition at x/c =  0.0846   29
 Side 2 forced transition at x/c =  1.0000   70

  66   rms: 0.1126E-01   max: -.2470E+00   C at   29  1
       a =  8.500      CL =  1.1986
      Cm = -0.0486     CD =  0.01722   =>   CDf =  0.00706    CDp =  0.01017

 Side 1  free  transition at x/c =  0.0846   29
 Side 2 forced transition at x/c =  1.0000   70

  67   rms: 0.1126E-01   max: -.2470E+00   C at   29  1
       a =  8.500      CL =  1.1986
      Cm = -0.0486     CD =  0.01722   =>   CDf =  0.00706    CDp =  0.01017

 Side 1  free  transition at x/c =  0.0846   29
 Side 2 forced transition at x/c =  1.0000   70

  68   rms: 0.1126E-01   max: -.2470E+00   C at   29  1
       a =  8.500      CL =  1.1986
      Cm = -0.0486     CD =  0.01722   =>   CDf =  0.00706    CDp =  0.01017

 Side 1  free  transition at x/c =  0.0846   29
 Side 2 forced transition at x/c =  1.0000   70

  69   rms: 0.1126E-01   max: -.2470E+00   C at   29  1
       a =  8.500      CL =  1.1986
      Cm = -0.0486     CD =  0.01722   =>   CDf =  0.00706    CDp =  0.01017

 Side 1  free  transition at x/c =  0.0846   29
 Side 2 forced transition at x/c =  1.0000   70

  70   rms: 0.1126E-01   max: -.2470E+00   C at   29  1
       a =  8.500      CL =  1.1986
      Cm = -0.0486     CD =  0.01722   =>   CDf =  0.00706    CDp =  0.01017

 Side 1  free  transition at x/c =  0.0846   29
 Side 2 forced transition at x/c =  1.0000   70

  71   rms: 0.1126E-01   max: -.2470E+00   C at   29  1
       a =  8.500      CL =  1.1986
      Cm = -0.0486     CD =  0.01722   =>   CDf =  0.00706    CDp =  0.01017

 Side 1  free  transition at x/c =  0.0846   29
 Side 2 forced transition at x/c =  1.0000   70

  72   rms: 0.1126E-01   max: -.2470E+00   C at   29  1
       a =  8.500      CL =  1.1986
      Cm = -0.0486     CD =  0.01722   =>   CDf =  0.00706    CDp =  0.01017

 Side 1  free  transition at x/c =  0.0846   29
 Side 2 forced transition at x/c =  1.0000   70

  73   rms: 0.1126E-01   max: -.2470E+00   C at   29  1
       a =  8.500      CL =  1.1986
      Cm = -0.0486     CD =  0.01722   =>   CDf =  0.00706    CDp =  0.01017

 Side 1  free  transition at x/c =  0.0846   29
 Side 2 forced transition at x/c =  1.0000   70

  74   rms: 0.1126E-01   max: -.2470E+00   C at   29  1
       a =  8.500      CL =  1.1986
      Cm = -0.0486     CD =  0.01722   =>   CDf =  0.00706    CDp =  0.01017

 Side 1  free  transition at x/c =  0.0846   29
 Side 2 forced transition at x/c =  1.0000   70

  75   rms: 0.1126E-01   max: -.2470E+00   C at   29  1
       a =  8.500      CL =  1.1986
      Cm = -0.0486     CD =  0.01722   =>   CDf =  0.00706    CDp =  0.01017

 Side 1  free  transition at x/c =  0.0846   29
 Side 2 forced transition at x/c =  1.0000   70

  76   rms: 0.1126E-01   max: -.2470E+00   C at   29  1
       a =  8.500      CL =  1.1986
      Cm = -0.0486     CD =  0.01722   =>   CDf =  0.00706    CDp =  0.01017

 Side 1  free  transition at x/c =  0.0846   29
 Side 2 forced transition at x/c =  1.0000   70

  77   rms: 0.1126E-01   max: -.2470E+00   C at   29  1
       a =  8.500      CL =  1.1986
      Cm = -0.0486     CD =  0.01722   =>   CDf =  0.00706    CDp =  0.01017

 Side 1  free  transition at x/c =  0.0846   29
 Side 2 forced transition at x/c =  1.0000   70

  78   rms: 0.1126E-01   max: -.2470E+00   C at   29  1
       a =  8.500      CL =  1.1986
      Cm = -0.0486     CD =  0.01722   =>   CDf =  0.00706    CDp =  0.01017

 Side 1  free  transition at x/c =  0.0846   29
 Side 2 forced transition at x/c =  1.0000   70

  79   rms: 0.1126E-01   max: -.2470E+00   C at   29  1
       a =  8.500      CL =  1.1986
      Cm = -0.0486     CD =  0.01722   =>   CDf =  0.00706    CDp =  0.01017

 Side 1  free  transition at x/c =  0.0846   29
 Side 2 forced transition at x/c =  1.0000   70

  80   rms: 0.1126E-01   max: -.2470E+00   C at   29  1
       a =  8.500      CL =  1.1986
      Cm = -0.0486     CD =  0.01722   =>   CDf =  0.00706    CDp =  0.01017

 Side 1  free  transition at x/c =  0.0846   29
 Side 2 forced transition at x/c =  1.0000   70

  81   rms: 0.1126E-01   max: -.2470E+00   C at   29  1
       a =  8.500      CL =  1.1986
      Cm = -0.0486     CD =  0.01722   =>   CDf =  0.00706    CDp =  0.01017

 Side 1  free  transition at x/c =  0.0846   29
 Side 2 forced transition at x/c =  1.0000   70

  82   rms: 0.1126E-01   max: -.2470E+00   C at   29  1
       a =  8.500      CL =  1.1986
      Cm = -0.0486     CD =  0.01722   =>   CDf =  0.00706    CDp =  0.01017

 Side 1  free  transition at x/c =  0.0846   29
 Side 2 forced transition at x/c =  1.0000   70

  83   rms: 0.1126E-01   max: -.2470E+00   C at   29  1
       a =  8.500      CL =  1.1986
      Cm = -0.0486     CD =  0.01722   =>   CDf =  0.00706    CDp =  0.01017

[...]

 Side 1  free  transition at x/c =  0.0214   26
 Side 2 forced transition at x/c =  1.0000   67

   2   rms: 0.4429E-02   max: 0.1923E-01   D at   80  2
       a = 12.750      CL =  1.3257
      Cm = -0.0323     CD =  0.04657   =>   CDf =  0.00628    CDp =  0.04029

 Side 1  free  transition at x/c =  0.0214   26
 Side 2 forced transition at x/c =  1.0000   67

   3   rms: 0.2142E-03   max: -.1280E-02   D at   70  1
       a = 12.750      CL =  1.3258
      Cm = -0.0323     CD =  0.04653   =>   CDf =  0.00627    CDp =  0.04026

 Side 1  free  transition at x/c =  0.0214   26
 Side 2 forced transition at x/c =  1.0000   67

   4   rms: 0.2174E-04   max: -.1206E-03   D at   80  2
       a = 12.750      CL =  1.3258
      Cm = -0.0323     CD =  0.04653   =>   CDf =  0.00627    CDp =  0.04026
 plradd ia,ip,cpol           40           0 -3.35796212E-04

 Point added to stored polar  1
 Point written to save file  vr5_Re400k.base.pol                             
 Dump file unspecified or not available
 Calculating wake trajectory ...
 Calculating source influence matrix ...

 Solving BL system ...

 Side 1  free  transition at x/c =  0.0214   26
 Side 2 forced transition at x/c =  1.0000   67

   1   rms: 0.3383E-01   max: 0.1274E+00   T at   26  1   RLX: 0.998
       a = 13.000      CL =  1.3315
      Cm = -0.0316     CD =  0.04890   =>   CDf =  0.00627    CDp =  0.04263

 Side 1  free  transition at x/c =  0.0208   26
 Side 2 forced transition at x/c =  1.0000   67

   2   rms: 0.4353E-02   max: 0.2397E-01   D at   80  2
       a = 13.000      CL =  1.3278
      Cm = -0.0311     CD =  0.04883   =>   CDf =  0.00622    CDp =  0.04261

 Side 1  free  transition at x/c =  0.0208   26
 Side 2 forced transition at x/c =  1.0000   67

   3   rms: 0.1076E-03   max: 0.2508E-02   D at   80  2
       a = 13.000      CL =  1.3278
      Cm = -0.0311     CD =  0.04883   =>   CDf =  0.00622    CDp =  0.04261

 Side 1  free  transition at x/c =  0.0208   26
 Side 2 forced transition at x/c =  1.0000   67

   4   rms: 0.2552E-05   max: 0.1659E-04   D at   80  2
       a = 13.000      CL =  1.3278
      Cm = -0.0311     CD =  0.04883   =>   CDf =  0.00622    CDp =  0.04261
 plradd ia,ip,cpol           41           0 -3.35796212E-04

 Point added to stored polar  1
 Point written to save file  vr5_Re400k.base.pol                             
 Dump file unspecified or not available
 Calculating wake trajectory ...
 Calculating source influence matrix ...

 Solving BL system ...

 Side 1  free  transition at x/c =  0.0208   26
 Side 2 forced transition at x/c =  1.0000   67

   1   rms: 0.4167E-01   max: 0.1452E+00   T at   26  1   RLX: 0.944
       a = 13.250      CL =  1.3317
      Cm = -0.0294     CD =  0.05106   =>   CDf =  0.00622    CDp =  0.04483

 Side 1  free  transition at x/c =  0.0203   25
 Side 2 forced transition at x/c =  1.0000   67

   2   rms: 0.7825E-02   max: -.5996E-01   D at   25  1
       a = 13.250      CL =  1.3311
      Cm = -0.0297     CD =  0.05110   =>   CDf =  0.00614    CDp =  0.04496

 Side 1  free  transition at x/c =  0.0203   25
 Side 2 forced transition at x/c =  1.0000   67

   3   rms: 0.6692E-03   max: -.3453E-02   D at   69  1
       a = 13.250      CL =  1.3314
      Cm = -0.0296     CD =  0.05097   =>   CDf =  0.00613    CDp =  0.04484

 Side 1  free  transition at x/c =  0.0203   25
 Side 2 forced transition at x/c =  1.0000   67

   4   rms: 0.3939E-04   max: -.2943E-03   D at   80  2
       a = 13.250      CL =  1.3314
      Cm = -0.0296     CD =  0.05098   =>   CDf =  0.00614    CDp =  0.04485
 plradd ia,ip,cpol           42           0 -3.35796212E-04

 Point added to stored polar  1
 Point written to save file  vr5_Re400k.base.pol                             
 Dump file unspecified or not available
 Calculating wake trajectory ...
 Calculating source influence matrix ...

 Solving BL system ...

 Side 1  free  transition at x/c =  0.0203   25
 Side 2 forced transition at x/c =  1.0000   67

   1   rms: 0.3077E-01   max: 0.1277E+00   T at   25  1   RLX: 0.910
       a = 13.500      CL =  1.3398
      Cm = -0.0295     CD =  0.05295   =>   CDf =  0.00614    CDp =  0.04681

 Side 1  free  transition at x/c =  0.0200   25
 Side 2 forced transition at x/c =  1.0000   67

   2   rms: 0.3903E-02   max: 0.1973E-01   D at   81  2
       a = 13.500      CL =  1.3382
      Cm = -0.0292     CD =  0.05306   =>   CDf =  0.00602    CDp =  0.04703

 Side 1  free  transition at x/c =  0.0200   25
 Side 2 forced transition at x/c =  1.0000   67

   3   rms: 0.5337E-03   max: 0.2578E-02   D at   81  2
       a = 13.500      CL =  1.3378
      Cm = -0.0292     CD =  0.05304   =>   CDf =  0.00601    CDp =  0.04703

 Side 1  free  transition at x/c =  0.0200   25
 Side 2 forced transition at x/c =  1.0000   67

   4   rms: 0.3239E-04   max: 0.2324E-03   D at   81  2
       a = 13.500      CL =  1.3378
      Cm = -0.0292     CD =  0.05303   =>   CDf =  0.00601    CDp =  0.04702
 plradd ia,ip,cpol           43           0 -3.35796212E-04

 Point added to stored polar  1
 Point written to save file  vr5_Re400k.base.pol                             
 Dump file unspecified or not available
 Calculating wake trajectory ...
 Calculating source influence matrix ...

 Solving BL system ...

 Side 1  free  transition at x/c =  0.0200   25
 Side 2 forced transition at x/c =  1.0000   67

   1   rms: 0.3075E-01   max: 0.9905E-01   T at   25  1   RLX: 0.874
       a = 13.750      CL =  1.3455
      Cm = -0.0288     CD =  0.05496   =>   CDf =  0.00601    CDp =  0.04895

 Side 1  free  transition at x/c =  0.0197   25
 Side 2 forced transition at x/c =  1.0000   67

   2   rms: 0.4518E-02   max: 0.2090E-01   D at   81  2
       a = 13.750      CL =  1.3443
      Cm = -0.0287     CD =  0.05519   =>   CDf =  0.00591    CDp =  0.04928

 Side 1  free  transition at x/c =  0.0196   25
 Side 2 forced transition at x/c =  1.0000   67

   3   rms: 0.7170E-03   max: 0.5178E-02   D at   81  2
       a = 13.750      CL =  1.3437
      Cm = -0.0286     CD =  0.05515   =>   CDf =  0.00589    CDp =  0.04926

 Side 1  free  transition at x/c =  0.0196   25
 Side 2 forced transition at x/c =  1.0000   67

   4   rms: 0.3548E-04   max: 0.3842E-03   D at   81  2
       a = 13.750      CL =  1.3437
      Cm = -0.0286     CD =  0.05515   =>   CDf =  0.00589    CDp =  0.04926
 plradd ia,ip,cpol           44           0 -3.35796212E-04

 Point added to stored polar  1
 Point written to save file  vr5_Re400k.base.pol                             
 Dump file unspecified or not available
 Calculating wake trajectory ...
 Calculating source influence matrix ...

 Solving BL system ...

 Side 1  free  transition at x/c =  0.0196   25
 Side 2 forced transition at x/c =  1.0000   67

   1   rms: 0.3088E-01   max: 0.8904E-01   T at   25  1   RLX: 0.840
       a = 14.000      CL =  1.3509
      Cm = -0.0282     CD =  0.05708   =>   CDf =  0.00589    CDp =  0.05119

 Side 1  free  transition at x/c =  0.0193   25
 Side 2 forced transition at x/c =  1.0000   67

   2   rms: 0.5538E-02   max: 0.2495E-01   D at   81  2
       a = 14.000      CL =  1.3495
      Cm = -0.0281     CD =  0.05744   =>   CDf =  0.00579    CDp =  0.05165

 Side 1  free  transition at x/c =  0.0193   25
 Side 2 forced transition at x/c =  1.0000   67

   3   rms: 0.7777E-03   max: 0.3820E-02   D at   81  2
       a = 14.000      CL =  1.3489
      Cm = -0.0280     CD =  0.05738   =>   CDf =  0.00577    CDp =  0.05161

 Side 1  free  transition at x/c =  0.0193   25
 Side 2 forced transition at x/c =  1.0000   67

   4   rms: 0.3513E-04   max: 0.2871E-03   D at   81  2
       a = 14.000      CL =  1.3489
      Cm = -0.0280     CD =  0.05737   =>   CDf =  0.00577    CDp =  0.05160
 plradd ia,ip,cpol           45           0 -3.35796212E-04

 Point added to stored polar  1
 Point written to save file  vr5_Re400k.base.pol                             
 Dump file unspecified or not available
 Calculating wake trajectory ...
 Calculating source influence matrix ...

 Solving BL system ...

 Side 1  free  transition at x/c =  0.0193   25
 Side 2 forced transition at x/c =  1.0000   67

   1   rms: 0.3084E-01   max: 0.8743E-01   T at   25  1   RLX: 0.807
       a = 14.250      CL =  1.3554
      Cm = -0.0277     CD =  0.05930   =>   CDf =  0.00577    CDp =  0.05353

 Side 1  free  transition at x/c =  0.0190   25
 Side 2 forced transition at x/c =  1.0000   67

   2   rms: 0.6172E-02   max: 0.2410E-01   D at   82  2
       a = 14.250      CL =  1.3543
      Cm = -0.0276     CD =  0.05977   =>   CDf =  0.00523    CDp =  0.05453

 Side 1  free  transition at x/c =  0.0189   26
 Side 2 forced transition at x/c =  1.0000   66

   3   rms: 0.9382E-02   max: -.1629E+00   D at    2  1
       a = 14.250      CL =  1.3536
      Cm = -0.0275     CD =  0.05971   =>   CDf =  0.00563    CDp =  0.05407

 Side 1  free  transition at x/c =  0.0189   26
 Side 2 forced transition at x/c =  1.0000   66

   4   rms: 0.1005E-02   max: -.1312E-01   D at    4  1
       a = 14.250      CL =  1.3535
      Cm = -0.0275     CD =  0.05969   =>   CDf =  0.00563    CDp =  0.05406

 Side 1  free  transition at x/c =  0.0189   26
 Side 2 forced transition at x/c =  1.0000   66

   5   rms: 0.1162E-04   max: 0.1217E-03   D at    4  1
       a = 14.250      CL =  1.3535
      Cm = -0.0275     CD =  0.05969   =>   CDf =  0.00563    CDp =  0.05406
 plradd ia,ip,cpol           46           0 -3.35796212E-04

 Point added to stored polar  1
 Point written to save file  vr5_Re400k.base.pol                             
 Dump file unspecified or not available
 Calculating wake trajectory ...
 Calculating source influence matrix ...

 Solving BL system ...

 Side 1  free  transition at x/c =  0.0189   26
 Side 2 forced transition at x/c =  1.0000   66

   1   rms: 0.3137E-01   max: 0.8971E-01   T at   26  1   RLX: 0.776
       a = 14.500      CL =  1.3593
      Cm = -0.0273     CD =  0.06168   =>   CDf =  0.00563    CDp =  0.05605

 Side 1  free  transition at x/c =  0.0186   26
 Side 2 forced transition at x/c =  1.0000   66

   2   rms: 0.6954E-02   max: 0.2653E-01   D at   81  2
       a = 14.500      CL =  1.3581
      Cm = -0.0273     CD =  0.06227   =>   CDf =  0.00554    CDp =  0.05673

 Side 1  free  transition at x/c =  0.0185   26
 Side 2 forced transition at x/c =  1.0000   66

   3   rms: 0.7987E-03   max: 0.4844E-02   D at   81  2
       a = 14.500      CL =  1.3574
      Cm = -0.0272     CD =  0.06218   =>   CDf =  0.00551    CDp =  0.05666

 Side 1  free  transition at x/c =  0.0185   26
 Side 2 forced transition at x/c =  1.0000   66

   4   rms: 0.2499E-04   max: 0.2532E-03   D at   81  2
       a = 14.500      CL =  1.3574
      Cm = -0.0272     CD =  0.06217   =>   CDf =  0.00551    CDp =  0.05665
 plradd ia,ip,cpol           47           0 -3.35796212E-04

 Point added to stored polar  1
 Point written to save file  vr5_Re400k.base.pol                             
 Dump file unspecified or not available
 Calculating wake trajectory ...
 Calculating source influence matrix ...

 Solving BL system ...

 Side 1  free  transition at x/c =  0.0185   26
 Side 2 forced transition at x/c =  1.0000   66

   1   rms: 0.2994E-01   max: 0.9504E-01   T at   26  1   RLX: 0.747
       a = 14.750      CL =  1.3624
      Cm = -0.0271     CD =  0.06420   =>   CDf =  0.00551    CDp =  0.05869

 Side 1  free  transition at x/c =  0.0182   26
 Side 2 forced transition at x/c =  1.0000   66

   2   rms: 0.7415E-02   max: 0.2798E-01   D at   81  2
       a = 14.750      CL =  1.3614
      Cm = -0.0271     CD =  0.06485   =>   CDf =  0.00543    CDp =  0.05942

 Side 1  free  transition at x/c =  0.0181   26
 Side 2 forced transition at x/c =  1.0000   66

   3   rms: 0.1071E-02   max: 0.7629E-02   D at   81  2
       a = 14.750      CL =  1.3606
      Cm = -0.0271     CD =  0.06477   =>   CDf =  0.00540    CDp =  0.05937

 Side 1  free  transition at x/c =  0.0181   26
 Side 2 forced transition at x/c =  1.0000   66

   4   rms: 0.6417E-04   max: 0.6264E-03   D at   81  2
       a = 14.750      CL =  1.3606
      Cm = -0.0271     CD =  0.06476   =>   CDf =  0.00540    CDp =  0.05935
 plradd ia,ip,cpol           48           0 -3.35796212E-04

 Point added to stored polar  1
 Point written to save file  vr5_Re400k.base.pol                             
 Dump file unspecified or not available
 Calculating wake trajectory ...
 Calculating source influence matrix ...

 Solving BL system ...

 Side 1  free  transition at x/c =  0.0181   26
 Side 2 forced transition at x/c =  1.0000   66

   1   rms: 0.2969E-01   max: 0.1020E+00   T at   26  1   RLX: 0.718
       a = 15.000      CL =  1.3641
      Cm = -0.0272     CD =  0.06695   =>   CDf =  0.00540    CDp =  0.06155

 Side 1  free  transition at x/c =  0.0177   26
 Side 2 forced transition at x/c =  1.0000   66

   2   rms: 0.8246E-02   max: 0.2959E-01   D at   81  2
       a = 15.000      CL =  1.3631
      Cm = -0.0272     CD =  0.06770   =>   CDf =  0.00532    CDp =  0.06238

 Side 1  free  transition at x/c =  0.0177   26
 Side 2 forced transition at x/c =  1.0000   66

   3   rms: 0.8603E-03   max: 0.5001E-02   D at   81  2
       a = 15.000      CL =  1.3624
      Cm = -0.0271     CD =  0.06755   =>   CDf =  0.00529    CDp =  0.06226

 Side 1  free  transition at x/c =  0.0177   26
 Side 2 forced transition at x/c =  1.0000   66

   4   rms: 0.2137E-04   max: 0.1932E-03   D at   81  2
       a = 15.000      CL =  1.3624
      Cm = -0.0271     CD =  0.06754   =>   CDf =  0.00529    CDp =  0.06225
 plradd ia,ip,cpol           49           0 -3.35796212E-04

 Point added to stored polar  1
 Point written to save file  vr5_Re400k.base.pol                             
 Dump file unspecified or not available
 Calculating wake trajectory ...
 Calculating source influence matrix ...

 Solving BL system ...

 Side 1  free  transition at x/c =  0.0177   26
 Side 2 forced transition at x/c =  1.0000   66

   1   rms: 0.2945E-01   max: 0.1061E+00   T at   26  1   RLX: 0.691
       a = 15.250      CL =  1.3655
      Cm = -0.0274     CD =  0.06974   =>   CDf =  0.00530    CDp =  0.06444

 Side 1  free  transition at x/c =  0.0174   26
 Side 2 forced transition at x/c =  1.0000   66

   2   rms: 0.8914E-02   max: 0.3107E-01   D at   65  1
       a = 15.250      CL =  1.3645
      Cm = -0.0274     CD =  0.07060   =>   CDf =  0.00522    CDp =  0.06538

 Side 1  free  transition at x/c =  0.0173   26
 Side 2 forced transition at x/c =  1.0000   66

   3   rms: 0.9942E-03   max: 0.5640E-02   D at   82  2
       a = 15.250      CL =  1.3637
      Cm = -0.0274     CD =  0.07046   =>   CDf =  0.00520    CDp =  0.06526

 Side 1  free  transition at x/c =  0.0173   26
 Side 2 forced transition at x/c =  1.0000   66

   4   rms: 0.2557E-04   max: 0.2525E-03   D at   82  2
       a = 15.250      CL =  1.3637
      Cm = -0.0274     CD =  0.07045   =>   CDf =  0.00520    CDp =  0.06525
 plradd ia,ip,cpol           50           0 -3.35796212E-04

 Point added to stored polar  1
 Point written to save file  vr5_Re400k.base.pol                             
 Dump file unspecified or not available
 Calculating wake trajectory ...
 Calculating source influence matrix ...

 Solving BL system ...

 Side 1  free  transition at x/c =  0.0173   26
 Side 2 forced transition at x/c =  1.0000   66

   1   rms: 0.2926E-01   max: 0.1114E+00   T at   26  1   RLX: 0.666
       a = 15.500      CL =  1.3664
      Cm = -0.0277     CD =  0.07265   =>   CDf =  0.00520    CDp =  0.06745

 Side 1  free  transition at x/c =  0.0170   26
 Side 2 forced transition at x/c =  1.0000   66

   2   rms: 0.9378E-02   max: 0.3118E-01   D at   82  2
       a = 15.500      CL =  1.3657
      Cm = -0.0277     CD =  0.07357   =>   CDf =  0.00514    CDp =  0.06843

 Side 1  free  transition at x/c =  0.0169   26
 Side 2 forced transition at x/c =  1.0000   66

   3   rms: 0.1238E-02   max: 0.6890E-02   D at   82  2
       a = 15.500      CL =  1.3647
      Cm = -0.0276     CD =  0.07343   =>   CDf =  0.00512    CDp =  0.06831

 Side 1  free  transition at x/c =  0.0169   26
 Side 2 forced transition at x/c =  1.0000   66

   4   rms: 0.4450E-04   max: 0.4520E-03   D at   82  2
       a = 15.500      CL =  1.3647
      Cm = -0.0276     CD =  0.07341   =>   CDf =  0.00512    CDp =  0.06830
 plradd ia,ip,cpol           51           0 -5.27633762E-04

 Point added to stored polar  1
 Point written to save file  vr5_Re400k.base.pol                             
 Dump file unspecified or not available
 Calculating wake trajectory ...
 Calculating source influence matrix ...

 Solving BL system ...

 Side 1  free  transition at x/c =  0.0169   26
 Side 2 forced transition at x/c =  1.0000   66

   1   rms: 0.2929E-01   max: 0.1206E+00   T at   26  1   RLX: 0.642
       a = 15.750      CL =  1.3672
      Cm = -0.0279     CD =  0.07557   =>   CDf =  0.00512    CDp =  0.07045

 Side 1  free  transition at x/c =  0.0167   26
 Side 2 forced transition at x/c =  1.0000   66

   2   rms: 0.1025E-01   max: 0.4035E-01   T at   26  1
       a = 15.750      CL =  1.3667
      Cm = -0.0278     CD =  0.07656   =>   CDf =  0.00507    CDp =  0.07148

 Side 1  free  transition at x/c =  0.0166   26
 Side 2 forced transition at x/c =  1.0000   66

   3   rms: 0.1702E-02   max: 0.9310E-02   D at   82  2
       a = 15.750      CL =  1.3654
      Cm = -0.0277     CD =  0.07645   =>   CDf =  0.00504    CDp =  0.07141

 Side 1  free  transition at x/c =  0.0166   26
 Side 2 forced transition at x/c =  1.0000   66

   4   rms: 0.1314E-03   max: 0.1289E-02   D at   82  2
       a = 15.750      CL =  1.3653
      Cm = -0.0277     CD =  0.07643   =>   CDf =  0.00504    CDp =  0.07138

 Side 1  free  transition at x/c =  0.0166   26
 Side 2 forced transition at x/c =  1.0000   66

   5   rms: 0.4672E-05   max: 0.4540E-04   D at   82  2
       a = 15.750      CL =  1.3653
      Cm = -0.0277     CD =  0.07642   =>   CDf =  0.00504    CDp =  0.07138
 plradd ia,ip,cpol           52           0 -5.27633762E-04

 Point added to stored polar  1
 Point written to save file  vr5_Re400k.base.pol                             
 Dump file unspecified or not available
 Calculating wake trajectory ...
 Calculating source influence matrix ...

 Solving BL system ...

 Side 1  free  transition at x/c =  0.0166   26
 Side 2 forced transition at x/c =  1.0000   66

   1   rms: 0.3048E-01   max: 0.1260E+00   T at   26  1   RLX: 0.620
       a = 16.000      CL =  1.3676
      Cm = -0.0277     CD =  0.07849   =>   CDf =  0.00504    CDp =  0.07345

 Side 1  free  transition at x/c =  0.0164   26
 Side 2 forced transition at x/c =  1.0000   66

   2   rms: 0.1338E-01   max: 0.4841E-01   T at   26  1
       a = 16.000      CL =  1.3659
      Cm = -0.0275     CD =  0.07981   =>   CDf =  0.00499    CDp =  0.07482

 Side 1  free  transition at x/c =  0.0163   26
 Side 2 forced transition at x/c =  1.0000   66

   3   rms: 0.3068E-02   max: 0.9837E-02   D at   82  2
       a = 16.000      CL =  1.3637
      Cm = -0.0275     CD =  0.07978   =>   CDf =  0.00494    CDp =  0.07485

 Side 1  free  transition at x/c =  0.0163   26
 Side 2 forced transition at x/c =  1.0000   66

   4   rms: 0.1333E-03   max: 0.1045E-02   D at   82  2
       a = 16.000      CL =  1.3637
      Cm = -0.0275     CD =  0.07972   =>   CDf =  0.00494    CDp =  0.07478

 Side 1  free  transition at x/c =  0.0163   26
 Side 2 forced transition at x/c =  1.0000   66

   5   rms: 0.1905E-04   max: 0.9591E-04   C at   66  2
       a = 16.000      CL =  1.3637
      Cm = -0.0275     CD =  0.07972   =>   CDf =  0.00494    CDp =  0.07478
 plradd ia,ip,cpol           53           0 -5.27633762E-04

 Point added to stored polar  1
 Point written to save file  vr5_Re400k.base.pol                             
 Dump file unspecified or not available

.OPERva   c>  
 Polar accumulation disabled

.OPERv   c>  
 XFOIL   c>  
 XFOIL   c>  