
 ===================================================
  XFOIL Version 6.99
  Copyright (C) 2000   Mark Drela, Harold Youngren

  This software comes with ABSOLUTELY NO WARRANTY,
    subject to the GNU General Public License.

  Caveat computor
 ===================================================

 File  xfoil.def  not found

   QUIT    Exit program

  .OPER    Direct operating point(s)
  .MDES    Complex mapping design routine
  .QDES    Surface speed design routine
  .GDES    Geometry design routine

   SAVE f  Write airfoil to labeled coordinate file
   PSAV f  Write airfoil to plain coordinate file
   ISAV f  Write airfoil to ISES coordinate file
   MSAV f  Write airfoil to MSES coordinate file
   REVE    Reverse written-airfoil node ordering

   LOAD f  Read buffer airfoil from coordinate file
   NACA i  Set NACA 4,5-digit airfoil and buffer airfoil
   INTE    Set buffer airfoil by interpolating two airfoils
   NORM    Buffer airfoil normalization toggle
   XYCM rr Change CM reference location, currently  0.25000 0.00000

   BEND    Display structural properties of current airfoil

   PCOP    Set current-airfoil panel nodes directly from buffer airfoil points
   PANE    Set current-airfoil panel nodes ( 160 ) based on curvature
  .PPAR    Show/change paneling

  .PLOP    Plotting options

   WDEF f  Write  current-settings file
   RDEF f  Reread current-settings file
   NAME s  Specify new airfoil name
   NINC    Increment name version number

   Z       Zoom    | (available in all menus)
   U       Unzoom  | 

 XFOIL   c>  
 Labeled airfoil file.  Name:   BOEING-VERTOL VR-5 AIRFOIL                     

 Number of input coordinate points:  55
 Counterclockwise ordering
 Max thickness =     0.120003  at x =   0.350
 Max camber    =     0.031952  at x =   0.350

  LE  x,y  =  -0.00053   0.00316  |   Chord =   1.00054
  TE  x,y  =   1.00000   0.00000  |

 Current airfoil nodes set from buffer airfoil nodes (  55 )

 WARNING: Poor input coordinate distribution
          Excessive panel angle   51.9  at i =  28
          Repaneling with PANE and/or PPAR suggested
           (doing GDES,CADD before repaneling _may_
            improve excessively coarse LE spacing

 XFOIL   c>  
 XFOIL   c>  
 Blunt trailing edge.  Gap =  0.00080

 Paneling parameters used...
   Number of panel nodes       160
   Panel bunching parameter    1.000
   TE/LE panel density ratio   0.150
   Refined-area/LE panel density ratio    0.200
   Top    side refined area x/c limits  1.000 1.000
   Bottom side refined area x/c limits  1.000 1.000

 XFOIL   c>  
.OPERi   c>  
 Xtr/c     =  1.0000    top    side
 Xtr/c     =  1.0000    bottom side
 Ncrit     =    9.00   ( 0.070 % turb. level )
 Vacc      =  0.0100

 Klag  =  5.6000     Uxwt  =    1.00
 A     =  6.7000     B     =  0.7500       KCt = 0.01485
 CtiniK=  1.8000     CtiniX=  3.3000

..VPAR   c>  
..VPAR   c>  
.OPERi   c>  
 M  =    0.0000
 Re =    300000

.OPERv   c>  
.OPERv   c>  
.OPERv   c>  
 Polar  1 newly created for accumulation
 Airfoil archived with polar: BOEING-VERTOL VR-5 AIRFOIL                      

Enter  polar save filename  OR  <return> for no file   s>  
 New polar save file available

Enter  polar dump filename  OR  <return> for no file   s>  
 Polar dump file will NOT be written

 Polar accumulation enabled

.OPERva   c>   Calculating unit vorticity distributions ...
 Calculating wake trajectory ...
 Calculating source influence matrix ...

 Solving BL system ...

 Initializing BL ...
    side            1  ...
 MRCHUE: Inverse mode at  42     Hk =   3.833
 MRCHUE: Inverse mode at  43     Hk =   4.445
 MRCHUE: Inverse mode at  44     Hk =   5.041
 MRCHUE: Inverse mode at  45     Hk =   5.620
 MRCHUE: Inverse mode at  46     Hk =   6.179
 MRCHUE: Inverse mode at  47     Hk =   6.722
 MRCHUE: Inverse mode at  48     Hk =   7.255
 MRCHUE: Inverse mode at  49     Hk =   7.783
 MRCHUE: Inverse mode at  50     Hk =   8.310
 MRCHUE: Inverse mode at  51     Hk =   8.838
 MRCHUE: Inverse mode at  52     Hk =   9.366
 MRCHUE: Inverse mode at  53     Hk =   9.566
 MRCHUE: Inverse mode at  54     Hk =   7.087
 MRCHUE: Inverse mode at  55     Hk =   5.670
 MRCHUE: Inverse mode at  56     Hk =   4.652
 MRCHUE: Inverse mode at  57     Hk =   3.859
 MRCHUE: Inverse mode at  58     Hk =   3.218
    side            2  ...
 MRCHUE: Inverse mode at  15     Hk =   3.805
 MRCHUE: Inverse mode at  16     Hk =   4.570
 MRCHUE: Inverse mode at  17     Hk =   5.309
 MRCHUE: Inverse mode at  18     Hk =   6.060
 MRCHUE: Inverse mode at  19     Hk =   6.873
 MRCHUE: Inverse mode at  20     Hk =   7.803
 MRCHUE: Inverse mode at  21     Hk =   8.912
 MRCHUE: Inverse mode at  22     Hk =  10.231
 MRCHUE: Inverse mode at  23     Hk =   3.567
 MRCHUE: Inverse mode at  24     Hk =   2.500
 MRCHUE: Inverse mode at  25     Hk =   2.500

 Side 1  free  transition at x/c =  0.6714   53
 Side 2  free  transition at x/c =  0.0409   23

   1   rms: 0.3329E+00   max: -.2521E+01   T at   53  1   RLX: 0.198
       a = -4.000      CL = -0.2027
      Cm = -0.0461     CD =  0.01938   =>   CDf =  0.00746    CDp =  0.01192

 MRCHDU: Convergence failed at  55  side 1    Res =  0.1603E+01
 MRCHDU: Convergence failed at  56  side 1    Res =  0.1101E+02
 MRCHDU: Convergence failed at  57  side 1    Res =  0.8538E+01
 MRCHDU: Convergence failed at  58  side 1    Res =  0.2056E+02
 Side 1  free  transition at x/c =  0.6903   55
 Side 2  free  transition at x/c =  0.0392   22

   2   rms: 0.1573E+00   max: 0.8645E+00   C at   58  1
       a = -4.000      CL = -0.1431
      Cm = -0.0468     CD =  0.01852   =>   CDf =  0.00679    CDp =  0.01173

 Side 1  free  transition at x/c =  0.7346   57
 Side 2  free  transition at x/c =  0.0395   22

   3   rms: 0.2478E-01   max: -.2383E+00   D at   58  1
       a = -4.000      CL = -0.1384
      Cm = -0.0477     CD =  0.01895   =>   CDf =  0.00746    CDp =  0.01148

 Side 1  free  transition at x/c =  0.7422   59
 Side 2  free  transition at x/c =  0.0394   21

   4   rms: 0.1563E-01   max: 0.1888E+00   D at   59  1
       a = -4.000      CL = -0.1370
      Cm = -0.0481     CD =  0.01890   =>   CDf =  0.00727    CDp =  0.01163

 Side 1  free  transition at x/c =  0.7389   59
 Side 2  free  transition at x/c =  0.0394   21

   5   rms: 0.2495E-02   max: -.2824E-01   D at   62  1
       a = -4.000      CL = -0.1369
      Cm = -0.0482     CD =  0.01892   =>   CDf =  0.00731    CDp =  0.01161

 Side 1  free  transition at x/c =  0.7381   59
 Side 2  free  transition at x/c =  0.0394   21

   6   rms: 0.7993E-04   max: -.1090E-02   D at   61  1
       a = -4.000      CL = -0.1369
      Cm = -0.0482     CD =  0.01892   =>   CDf =  0.00733    CDp =  0.01159
 plradd ia,ip,cpol            1           0  1.65047543E-03

 Point added to stored polar  1
 Point written to save file  vr5_Re300k.base.pol                             
 Dump file unspecified or not available
 Calculating wake trajectory ...
 Calculating source influence matrix ...

 Solving BL system ...

 Side 1  free  transition at x/c =  0.7381   59
 Side 2  free  transition at x/c =  0.0394   21

   1   rms: 0.1027E+00   max: -.5605E+00   T at   21  2   RLX: 0.892
       a = -3.500      CL = -0.0872
      Cm = -0.0474     CD =  0.01750   =>   CDf =  0.00733    CDp =  0.01017

 Side 1  free  transition at x/c =  0.7291   58
 Side 2  free  transition at x/c =  0.0445   22

   2   rms: 0.1366E+00   max: 0.1288E+01   D at   22  2
       a = -3.500      CL = -0.0812
      Cm = -0.0478     CD =  0.01567   =>   CDf =  0.00772    CDp =  0.00796

 Side 1  free  transition at x/c =  0.7246   58
 Side 2  free  transition at x/c =  0.0444   22

   3   rms: 0.3389E-01   max: 0.2104E+00   D at   23  2
       a = -3.500      CL = -0.0825
      Cm = -0.0479     CD =  0.01588   =>   CDf =  0.00764    CDp =  0.00824

 Side 1  free  transition at x/c =  0.7252   58
 Side 2  free  transition at x/c =  0.0440   22

   4   rms: 0.1948E-02   max: 0.1211E-01   D at   23  2
       a = -3.500      CL = -0.0826
      Cm = -0.0479     CD =  0.01587   =>   CDf =  0.00761    CDp =  0.00826

 Side 1  free  transition at x/c =  0.7252   58
 Side 2  free  transition at x/c =  0.0439   22

   5   rms: 0.9008E-05   max: 0.9806E-04   D at   23  2
       a = -3.500      CL = -0.0826
      Cm = -0.0479     CD =  0.01587   =>   CDf =  0.00761    CDp =  0.00826
 plradd ia,ip,cpol            2           0  3.03279492E-03

 Point added to stored polar  1
 Point written to save file  vr5_Re300k.base.pol                             
 Dump file unspecified or not available
 Calculating wake trajectory ...
 Calculating source influence matrix ...

 Solving BL system ...

 Side 1  free  transition at x/c =  0.7252   58
 Side 2  free  transition at x/c =  0.0439   22

   1   rms: 0.9979E-01   max: -.7923E+00   T at   22  2   RLX: 0.631
       a = -3.000      CL = -0.0480
      Cm = -0.0478     CD =  0.01518   =>   CDf =  0.00761    CDp =  0.00757

 Side 1  free  transition at x/c =  0.7178   57
 Side 2  free  transition at x/c =  0.0490   22

   2   rms: 0.6854E-01   max: -.2960E+00   D at   25  2
       a = -3.000      CL = -0.0256
      Cm = -0.0479     CD =  0.01513   =>   CDf =  0.00776    CDp =  0.00737

 Side 1  free  transition at x/c =  0.7117   58
 Side 2  free  transition at x/c =  0.0510   22

   3   rms: 0.2312E-01   max: 0.1447E+00   D at   22  2
       a = -3.000      CL = -0.0265
      Cm = -0.0478     CD =  0.01503   =>   CDf =  0.00783    CDp =  0.00720

 Side 1  free  transition at x/c =  0.7126   58
 Side 2  free  transition at x/c =  0.0507   22

   4   rms: 0.7768E-03   max: 0.7345E-02   D at    4  1
       a = -3.000      CL = -0.0265
      Cm = -0.0478     CD =  0.01507   =>   CDf =  0.00784    CDp =  0.00723

 Side 1  free  transition at x/c =  0.7125   58
 Side 2  free  transition at x/c =  0.0507   22

   5   rms: 0.1295E-04   max: 0.6988E-04   D at   22  2
       a = -3.000      CL = -0.0265
      Cm = -0.0478     CD =  0.01507   =>   CDf =  0.00784    CDp =  0.00723
 plradd ia,ip,cpol            3           0  3.03279492E-03

 Point added to stored polar  1
 Point written to save file  vr5_Re300k.base.pol                             
 Dump file unspecified or not available
 Calculating wake trajectory ...
 Calculating source influence matrix ...

 Solving BL system ...

 Side 1  free  transition at x/c =  0.7125   58
 Side 2  free  transition at x/c =  0.0507   22

   1   rms: 0.3393E+00   max: -.1287E+01   D at   25  2   RLX: 0.389
       a = -2.500      CL = -0.0080
      Cm = -0.0474     CD =  0.01264   =>   CDf =  0.00784    CDp =  0.00481

 Side 1  free  transition at x/c =  0.7079   58
 Side 2  free  transition at x/c =  0.0547   22

   2   rms: 0.6030E-01   max: 0.3219E+00   D at   22  2
       a = -2.500      CL =  0.0273
      Cm = -0.0475     CD =  0.01360   =>   CDf =  0.00782    CDp =  0.00579

 Side 1  free  transition at x/c =  0.7024   57
 Side 2  free  transition at x/c =  0.0571   22

   3   rms: 0.6563E-02   max: -.5301E-01   D at   22  2
       a = -2.500      CL =  0.0274
      Cm = -0.0476     CD =  0.01352   =>   CDf =  0.00790    CDp =  0.00562

 Side 1  free  transition at x/c =  0.7015   57
 Side 2  free  transition at x/c =  0.0572   22

   4   rms: 0.9155E-04   max: 0.7630E-03   D at   59  1
       a = -2.500      CL =  0.0273
      Cm = -0.0476     CD =  0.01352   =>   CDf =  0.00789    CDp =  0.00563
 plradd ia,ip,cpol            4           0  3.03279492E-03

 Point added to stored polar  1
 Point written to save file  vr5_Re300k.base.pol                             
 Dump file unspecified or not available
 Calculating wake trajectory ...
 Calculating source influence matrix ...

 Solving BL system ...

 Side 1  free  transition at x/c =  0.7015   57
 Side 2  free  transition at x/c =  0.0572   22

   1   rms: 0.9988E-01   max: -.4425E+00   T at   22  2
       a = -2.000      CL =  0.0838
      Cm = -0.0479     CD =  0.01264   =>   CDf =  0.00790    CDp =  0.00474

 Side 1  free  transition at x/c =  0.6882   57
 Side 2  free  transition at x/c =  0.0617   21

   2   rms: 0.4665E-01   max: -.2424E+00   D at   22  2
       a = -2.000      CL =  0.0822
      Cm = -0.0473     CD =  0.01275   =>   CDf =  0.00806    CDp =  0.00469

 Side 1  free  transition at x/c =  0.6924   58
 Side 2  free  transition at x/c =  0.0615   21

   3   rms: 0.9751E-02   max: 0.1588E+00   D at   58  1
       a = -2.000      CL =  0.0830
      Cm = -0.0475     CD =  0.01273   =>   CDf =  0.00799    CDp =  0.00475

 Side 1  free  transition at x/c =  0.6908   58
 Side 2  free  transition at x/c =  0.0615   21

   4   rms: 0.8761E-03   max: 0.1200E-01   D at   58  1
       a = -2.000      CL =  0.0831
      Cm = -0.0476     CD =  0.01273   =>   CDf =  0.00800    CDp =  0.00473

 Side 1  free  transition at x/c =  0.6906   58
 Side 2  free  transition at x/c =  0.0615   21

   5   rms: 0.5876E-05   max: -.6920E-04   D at   60  1
       a = -2.000      CL =  0.0831
      Cm = -0.0476     CD =  0.01273   =>   CDf =  0.00800    CDp =  0.00473
 plradd ia,ip,cpol            5           0  4.74572647E-03

 Point added to stored polar  1
 Point written to save file  vr5_Re300k.base.pol                             
 Dump file unspecified or not available
 Calculating wake trajectory ...
 Calculating source influence matrix ...

 Solving BL system ...

 Side 1  free  transition at x/c =  0.6906   58
 Side 2  free  transition at x/c =  0.0615   21

   1   rms: 0.9770E-01   max: -.3726E+00   T at   21  2
       a = -1.500      CL =  0.1385
      Cm = -0.0475     CD =  0.01219   =>   CDf =  0.00801    CDp =  0.00418

 Side 1  free  transition at x/c =  0.6828   58
 Side 2  free  transition at x/c =  0.0712   21

   2   rms: 0.2383E-01   max: 0.4751E+00   D at   21  2
       a = -1.500      CL =  0.1394
      Cm = -0.0479     CD =  0.01201   =>   CDf =  0.00806    CDp =  0.00395

 Side 1  free  transition at x/c =  0.6798   58
 Side 2  free  transition at x/c =  0.0714   21

   3   rms: 0.5152E-02   max: 0.6807E-01   D at   21  2
       a = -1.500      CL =  0.1394
      Cm = -0.0479     CD =  0.01202   =>   CDf =  0.00804    CDp =  0.00399

 Side 1  free  transition at x/c =  0.6801   58
 Side 2  free  transition at x/c =  0.0711   21

   4   rms: 0.6595E-04   max: 0.9643E-03   D at   21  2
       a = -1.500      CL =  0.1394
      Cm = -0.0479     CD =  0.01202   =>   CDf =  0.00803    CDp =  0.00400
 plradd ia,ip,cpol            6           0  4.74572647E-03

 Point added to stored polar  1
 Point written to save file  vr5_Re300k.base.pol                             
 Dump file unspecified or not available
 Calculating wake trajectory ...
 Calculating source influence matrix ...

 Solving BL system ...

 Side 1  free  transition at x/c =  0.6801   58
 Side 2  free  transition at x/c =  0.0711   21

   1   rms: 0.1011E+00   max: -.5654E+00   T at   21  2   RLX: 0.884
       a = -1.000      CL =  0.1896
      Cm = -0.0482     CD =  0.01163   =>   CDf =  0.00803    CDp =  0.00360

 Side 1  free  transition at x/c =  0.6714   57
 Side 2  free  transition at x/c =  0.0891   22

   2   rms: 0.6118E-01   max: -.1260E+01   C at   22  2   RLX: 0.397
       a = -1.000      CL =  0.1918
      Cm = -0.0480     CD =  0.01169   =>   CDf =  0.00810    CDp =  0.00359

 Side 1  free  transition at x/c =  0.6714   57
 Side 2  free  transition at x/c =  0.0929   23

   3   rms: 0.8114E-01   max: -.9313E+00   C at   23  2   RLX: 0.537
       a = -1.000      CL =  0.1943
      Cm = -0.0481     CD =  0.01148   =>   CDf =  0.00811    CDp =  0.00337

 Side 1  free  transition at x/c =  0.6713   57
 Side 2  free  transition at x/c =  0.1249   25

   4   rms: 0.9369E-01   max: -.1765E+01   C at   25  2   RLX: 0.283
       a = -1.000      CL =  0.1948
      Cm = -0.0481     CD =  0.01140   =>   CDf =  0.00796    CDp =  0.00344

 Side 1  free  transition at x/c =  0.6713   57
 Side 2  free  transition at x/c =  0.1368   25

   5   rms: 0.4181E-01   max: -.8498E+00   C at   25  2   RLX: 0.588
       a = -1.000      CL =  0.1956
      Cm = -0.0481     CD =  0.01136   =>   CDf =  0.00791    CDp =  0.00345

 Side 1  free  transition at x/c =  0.6712   57
 Side 2  free  transition at x/c =  0.2185   31

   6   rms: 0.3694E+00   max: -.7207E+01   C at   31  2   RLX: 0.069
       a = -1.000      CL =  0.1952
      Cm = -0.0481     CD =  0.01098   =>   CDf =  0.00759    CDp =  0.00339

 Side 1  free  transition at x/c =  0.6712   57
 Side 2  free  transition at x/c =  0.2296   32

   7   rms: 0.2837E+00   max: -.5614E+01   C at   32  2   RLX: 0.089
       a = -1.000      CL =  0.1951
      Cm = -0.0482     CD =  0.01092   =>   CDf =  0.00755    CDp =  0.00337

 Side 1  free  transition at x/c =  0.6712   57
 Side 2  free  transition at x/c =  0.2518   33

   8   rms: 0.3446E+00   max: -.6494E+01   C at   33  2   RLX: 0.077
       a = -1.000      CL =  0.1949
      Cm = -0.0482     CD =  0.01085   =>   CDf =  0.00749    CDp =  0.00337

 Side 1  free  transition at x/c =  0.6712   57
 Side 2  free  transition at x/c =  0.2705   34

   9   rms: 0.3533E+00   max: -.6477E+01   C at   34  2   RLX: 0.077
       a = -1.000      CL =  0.1946
      Cm = -0.0482     CD =  0.01079   =>   CDf =  0.00743    CDp =  0.00336

 Side 1  free  transition at x/c =  0.6712   57
 Side 2  free  transition at x/c =  0.2928   36

  10   rms: 0.3531E+00   max: -.6522E+01   C at   36  2   RLX: 0.077
       a = -1.000      CL =  0.1943
      Cm = -0.0482     CD =  0.01070   =>   CDf =  0.00735    CDp =  0.00335

 Side 1  free  transition at x/c =  0.6712   57
 Side 2  free  transition at x/c =  0.3137   37

  11   rms: 0.3424E+00   max: -.6166E+01   C at   37  2   RLX: 0.081
       a = -1.000      CL =  0.1940
      Cm = -0.0483     CD =  0.01063   =>   CDf =  0.00728    CDp =  0.00335

 Side 1  free  transition at x/c =  0.6712   57
 Side 2  free  transition at x/c =  0.3386   39

  12   rms: 0.2184E+00   max: -.4293E+01   C at   39  2   RLX: 0.116
       a = -1.000      CL =  0.1936
      Cm = -0.0483     CD =  0.01054   =>   CDf =  0.00722    CDp =  0.00332

 Side 1  free  transition at x/c =  0.6712   57
 Side 2  free  transition at x/c =  0.3476   39

  13   rms: 0.8061E-01   max: -.1537E+01   C at   39  2   RLX: 0.325
       a = -1.000      CL =  0.1938
      Cm = -0.0484     CD =  0.01052   =>   CDf =  0.00720    CDp =  0.00332

 Side 1  free  transition at x/c =  0.6713   57
 Side 2  free  transition at x/c =  0.3829   41

  14   rms: 0.1003E-01   max: -.1618E+00   C at   41  2
       a = -1.000      CL =  0.1933
      Cm = -0.0485     CD =  0.01042   =>   CDf =  0.00709    CDp =  0.00334

 Side 1  free  transition at x/c =  0.6713   57
 Side 2  free  transition at x/c =  0.3911   42

  15   rms: 0.4803E-02   max: 0.9211E-01   C at   42  2
       a = -1.000      CL =  0.1933
      Cm = -0.0486     CD =  0.01041   =>   CDf =  0.00704    CDp =  0.00337

 Side 1  free  transition at x/c =  0.6713   57
 Side 2  free  transition at x/c =  0.3881   42

  16   rms: 0.4642E-04   max: -.8667E-03   C at   42  2
       a = -1.000      CL =  0.1933
      Cm = -0.0486     CD =  0.01042   =>   CDf =  0.00706    CDp =  0.00336
 plradd ia,ip,cpol            7           0  1.18999416E-02

 Point added to stored polar  1
 Point written to save file  vr5_Re300k.base.pol                             
 Dump file unspecified or not available
 Calculating wake trajectory ...
 Calculating source influence matrix ...

 Solving BL system ...

 Side 1  free  transition at x/c =  0.6713   57
 Side 2  free  transition at x/c =  0.3881   42

   1   rms: 0.3305E+01   max: -.6391E+02   C at   42  2   RLX: 0.008
       a = -0.500      CL =  0.1935
      Cm = -0.0486     CD =  0.01033   =>   CDf =  0.00706    CDp =  0.00328

 Side 1  free  transition at x/c =  0.6712   57
 Side 2  free  transition at x/c =  0.4055   43

   2   rms: 0.3953E+01   max: -.7496E+02   C at   43  2   RLX: 0.007
       a = -0.500      CL =  0.1937
      Cm = -0.0486     CD =  0.01026   =>   CDf =  0.00699    CDp =  0.00327

 Side 1  free  transition at x/c =  0.6711   57
 Side 2  free  transition at x/c =  0.4232   44

   3   rms: 0.4281E+01   max: -.7873E+02   C at   44  2   RLX: 0.006
       a = -0.500      CL =  0.1939
      Cm = -0.0486     CD =  0.01018   =>   CDf =  0.00692    CDp =  0.00326

 Side 1  free  transition at x/c =  0.6711   57
 Side 2  free  transition at x/c =  0.4594   46

   4   rms: 0.9166E+01   max: -.1541E+03   C at   46  2   RLX: 0.003
       a = -0.500      CL =  0.1933
      Cm = -0.0485     CD =  0.01004   =>   CDf =  0.00677    CDp =  0.00328

 Side 1  free  transition at x/c =  0.6710   57
 Side 2  free  transition at x/c =  0.4758   47

   5   rms: 0.9087E+01   max: -.1508E+03   C at   47  2   RLX: 0.003
       a = -0.500      CL =  0.1932
      Cm = -0.0484     CD =  0.00998   =>   CDf =  0.00670    CDp =  0.00328

 Side 1  free  transition at x/c =  0.6710   57
 Side 2  free  transition at x/c =  0.4938   49

   6   rms: 0.6692E+01   max: -.1209E+03   C at   49  2   RLX: 0.004
       a = -0.500      CL =  0.1932
      Cm = -0.0484     CD =  0.00992   =>   CDf =  0.00664    CDp =  0.00328

 Side 1  free  transition at x/c =  0.6710   57
 Side 2  free  transition at x/c =  0.5182   50

   7   rms: 0.4266E+01   max: -.7569E+02   C at   50  2   RLX: 0.007
       a = -0.500      CL =  0.1933
      Cm = -0.0484     CD =  0.00986   =>   CDf =  0.00656    CDp =  0.00329

 Side 1  free  transition at x/c =  0.6709   57
 Side 2  free  transition at x/c =  0.5454   52

   8   rms: 0.2188E+01   max: -.3981E+02   C at   52  2   RLX: 0.013
       a = -0.500      CL =  0.1932
      Cm = -0.0483     CD =  0.00977   =>   CDf =  0.00647    CDp =  0.00331

 Side 1  free  transition at x/c =  0.6708   57
 Side 2  free  transition at x/c =  0.5665   53

   9   rms: 0.9479E+00   max: -.1691E+02   C at   53  2   RLX: 0.030
       a = -0.500      CL =  0.1947
      Cm = -0.0483     CD =  0.00973   =>   CDf =  0.00640    CDp =  0.00332

 Side 1  free  transition at x/c =  0.6705   57
 Side 2  free  transition at x/c =  0.6166   57

  10   rms: 0.7709E+00   max: -.1325E+02   C at   57  2   RLX: 0.038
       a = -0.500      CL =  0.1941
      Cm = -0.0475     CD =  0.00957   =>   CDf =  0.00624    CDp =  0.00334

 Side 1  free  transition at x/c =  0.6701   57
 Side 2  free  transition at x/c =  0.6330   58

  11   rms: 0.4330E+00   max: -.6689E+01   C at   58  2   RLX: 0.075
       a = -0.500      CL =  0.1980
      Cm = -0.0478     CD =  0.00952   =>   CDf =  0.00620    CDp =  0.00333

 Side 1  free  transition at x/c =  0.6694   57
 Side 2  free  transition at x/c =  0.6568   59

  12   rms: 0.1955E+00   max: -.1535E+01   C at   59  2   RLX: 0.326
       a = -0.500      CL =  0.2129
      Cm = -0.0479     CD =  0.00948   =>   CDf =  0.00612    CDp =  0.00336

 Side 1  free  transition at x/c =  0.6665   57
 Side 2  free  transition at x/c =  0.7575   65

  13   rms: 0.8103E-01   max: 0.5959E+00   C at   65  2
       a = -0.500      CL =  0.2427
      Cm = -0.0473     CD =  0.00951   =>   CDf =  0.00577    CDp =  0.00374

 MRCHDU: Convergence failed at  67  side 2    Res =  0.2197E+04
 MRCHDU: Convergence failed at  68  side 2    Res =  0.1151E+01
 MRCHDU: Convergence failed at  69  side 2    Res =  0.1457E+01
 MRCHDU: Convergence failed at  70  side 2    Res =  0.1827E+01
 MRCHDU: Convergence failed at  71  side 2    Res =  0.2134E+01
 MRCHDU: Convergence failed at  72  side 2    Res =  0.2446E+01
 MRCHDU: Convergence failed at  73  side 2    Res =  0.2840E+01
 MRCHDU: Convergence failed at  74  side 2    Res =  0.3197E+01
 MRCHDU: Convergence failed at  75  side 2    Res =  0.3366E+01
 MRCHDU: Convergence failed at  76  side 2    Res =  0.1108E+02
 MRCHDU: Convergence failed at  77  side 2    Res =  0.4247E+01
 MRCHDU: Convergence failed at  78  side 2    Res =  0.4043E+01
 MRCHDU: Convergence failed at  79  side 2    Res =  0.3809E+01
 MRCHDU: Convergence failed at  80  side 2    Res =  0.3652E+01
 MRCHDU: Convergence failed at  81  side 2    Res =  0.3733E+01
 Side 1  free  transition at x/c =  0.6607   58
 Side 2  free  transition at x/c =  0.9327   76

  14   rms: 0.1670E+00   max: 0.1482E+01   C at   76  2   RLX: 0.437
       a = -0.500      CL =  0.2032
      Cm = -0.0313     CD =  0.00863   =>   CDf =  0.00542    CDp =  0.00321

 Side 1  free  transition at x/c =  0.6612   58
 Side 2  free  transition at x/c =  0.8301   69

  15   rms: 0.6216E-01   max: 0.5947E+00   C at   69  2
       a = -0.500      CL =  0.2380
      Cm = -0.0459     CD =  0.00923   =>   CDf =  0.00565    CDp =  0.00358

 Side 1  free  transition at x/c =  0.6615   58
 Side 2  free  transition at x/c =  0.7994   67

  16   rms: 0.1156E-01   max: -.2068E+00   D at   68  2
       a = -0.500      CL =  0.2383
      Cm = -0.0460     CD =  0.00931   =>   CDf =  0.00568    CDp =  0.00363

 Side 1  free  transition at x/c =  0.6615   58
 Side 2  free  transition at x/c =  0.7938   67

  17   rms: 0.6952E-03   max: 0.8787E-02   D at   70  2
       a = -0.500      CL =  0.2385
      Cm = -0.0460     CD =  0.00932   =>   CDf =  0.00570    CDp =  0.00362

 Side 1  free  transition at x/c =  0.6615   58
 Side 2  free  transition at x/c =  0.7939   67

  18   rms: 0.3776E-05   max: -.5379E-04   D at   70  2
       a = -0.500      CL =  0.2385
      Cm = -0.0460     CD =  0.00932   =>   CDf =  0.00570    CDp =  0.00362
 plradd ia,ip,cpol            8           0  1.18999416E-02

 Point added to stored polar  1
 Point written to save file  vr5_Re300k.base.pol                             
 Dump file unspecified or not available
 Calculating wake trajectory ...
 Calculating source influence matrix ...

 Solving BL system ...

 Side 1  free  transition at x/c =  0.6615   58
 Side 2  free  transition at x/c =  0.7939   67

   1   rms: 0.1172E+00   max: -.8275E+00   C at   67  2   RLX: 0.604
       a =  0.000      CL =  0.2682
      Cm = -0.0446     CD =  0.00926   =>   CDf =  0.00570    CDp =  0.00355

 Side 1  free  transition at x/c =  0.6567   57
 Side 2  free  transition at x/c =  0.8211   69

   2   rms: 0.6416E-01   max: -.6751E+00   T at   69  2   RLX: 0.741
       a =  0.000      CL =  0.2842
      Cm = -0.0448     CD =  0.00916   =>   CDf =  0.00584    CDp =  0.00332

 Side 1  free  transition at x/c =  0.6537   57
 Side 2  free  transition at x/c =  0.8382   70

   3   rms: 0.7085E-01   max: -.6715E+00   T at   70  2   RLX: 0.745
       a =  0.000      CL =  0.2888
      Cm = -0.0451     CD =  0.00905   =>   CDf =  0.00586    CDp =  0.00319

 Side 1  free  transition at x/c =  0.6531   57
 Side 2  free  transition at x/c =  0.8538   71

   4   rms: 0.3335E-01   max: -.3907E+00   C at   71  2
       a =  0.000      CL =  0.2893
      Cm = -0.0444     CD =  0.00921   =>   CDf =  0.00576    CDp =  0.00345

 Side 1  free  transition at x/c =  0.6529   57
 Side 2  free  transition at x/c =  0.8657   71

   5   rms: 0.9900E-02   max: 0.1115E+00   C at   71  2
       a =  0.000      CL =  0.2879
      Cm = -0.0439     CD =  0.00934   =>   CDf =  0.00557    CDp =  0.00376

 Side 1  free  transition at x/c =  0.6529   57
 Side 2  free  transition at x/c =  0.8570   71

   6   rms: 0.1931E-02   max: -.2600E-01   C at   71  2
       a =  0.000      CL =  0.2880
      Cm = -0.0439     CD =  0.00934   =>   CDf =  0.00561    CDp =  0.00373

 Side 1  free  transition at x/c =  0.6529   57
 Side 2  free  transition at x/c =  0.8579   71

   7   rms: 0.3553E-04   max: -.4682E-03   D at   74  2
       a =  0.000      CL =  0.2880
      Cm = -0.0439     CD =  0.00934   =>   CDf =  0.00561    CDp =  0.00374
 plradd ia,ip,cpol            9           0  0.31200874    

 Point added to stored polar  1
 Point written to save file  vr5_Re300k.base.pol                             
 Dump file unspecified or not available
 Calculating wake trajectory ...
 Calculating source influence matrix ...

 Solving BL system ...

 Side 1  free  transition at x/c =  0.6529   57
 Side 2  free  transition at x/c =  0.8578   71

   1   rms: 0.1070E+00   max: -.6025E+00   C at   71  2   RLX: 0.830
       a =  0.500      CL =  0.3255
      Cm = -0.0412     CD =  0.00931   =>   CDf =  0.00559    CDp =  0.00372

 Side 1  free  transition at x/c =  0.6452   58
 Side 2  free  transition at x/c =  0.8980   72

   2   rms: 0.2526E-01   max: -.2236E+00   T at   72  2
       a =  0.500      CL =  0.3327
      Cm = -0.0407     CD =  0.00941   =>   CDf =  0.00560    CDp =  0.00380

 Side 1  free  transition at x/c =  0.6449   58
 Side 2  free  transition at x/c =  0.9227   74

   3   rms: 0.8333E-02   max: 0.1129E+00   D at   75  2
       a =  0.500      CL =  0.3312
      Cm = -0.0402     CD =  0.00939   =>   CDf =  0.00555    CDp =  0.00384

 Side 1  free  transition at x/c =  0.6449   58
 Side 2  free  transition at x/c =  0.9218   74

   4   rms: 0.9701E-03   max: 0.1190E-01   C at   74  2
       a =  0.500      CL =  0.3311
      Cm = -0.0402     CD =  0.00939   =>   CDf =  0.00555    CDp =  0.00385

 Side 1  free  transition at x/c =  0.6449   58
 Side 2  free  transition at x/c =  0.9214   74

   5   rms: 0.8532E-05   max: -.1454E-03   D at   77  2
       a =  0.500      CL =  0.3311
      Cm = -0.0402     CD =  0.00939   =>   CDf =  0.00555    CDp =  0.00385
 plradd ia,ip,cpol           10           0  0.31200874    

 Point added to stored polar  1
 Point written to save file  vr5_Re300k.base.pol                             
 Dump file unspecified or not available
 Calculating wake trajectory ...
 Calculating source influence matrix ...

 Solving BL system ...

 Side 1  free  transition at x/c =  0.6449   58
 Side 2  free  transition at x/c =  0.9214   74

   1   rms: 0.1032E+00   max: -.6170E+00   T at   74  2   RLX: 0.810
       a =  1.000      CL =  0.3632
      Cm = -0.0362     CD =  0.00936   =>   CDf =  0.00555    CDp =  0.00381

 Side 1  free  transition at x/c =  0.6398   57
 Side 2  free  transition at x/c =  0.9521   76

   2   rms: 0.3424E-01   max: -.2968E+00   T at   76  2
       a =  1.000      CL =  0.3793
      Cm = -0.0377     CD =  0.00934   =>   CDf =  0.00559    CDp =  0.00374

 Side 1  free  transition at x/c =  0.6371   58
 Side 2  free  transition at x/c =  0.9731   77

   3   rms: 0.1301E-01   max: -.1608E+00   D at   76  2
       a =  1.000      CL =  0.3891
      Cm = -0.0399     CD =  0.00941   =>   CDf =  0.00557    CDp =  0.00384

 Side 1  free  transition at x/c =  0.6372   58
 Side 2  free  transition at x/c =  0.9717   77

   4   rms: 0.3265E-02   max: 0.4225E-01   C at   77  2
       a =  1.000      CL =  0.3893
      Cm = -0.0400     CD =  0.00941   =>   CDf =  0.00558    CDp =  0.00383

 Side 1  free  transition at x/c =  0.6372   58
 Side 2  free  transition at x/c =  0.9708   76

   5   rms: 0.7855E-03   max: 0.6474E-02   D at   77  2
       a =  1.000      CL =  0.3899
      Cm = -0.0401     CD =  0.00941   =>   CDf =  0.00558    CDp =  0.00383

 Side 1  free  transition at x/c =  0.6372   58
 Side 2  free  transition at x/c =  0.9702   76

   6   rms: 0.3675E-04   max: -.4011E-03   C at   76  2
       a =  1.000      CL =  0.3899
      Cm = -0.0401     CD =  0.00941   =>   CDf =  0.00558    CDp =  0.00383
 plradd ia,ip,cpol           11           0  0.31200874    

 Point added to stored polar  1
 Point written to save file  vr5_Re300k.base.pol                             
 Dump file unspecified or not available
 Calculating wake trajectory ...
 Calculating source influence matrix ...

 Solving BL system ...

 Side 1  free  transition at x/c =  0.6372   58
 Side 2  free  transition at x/c =  0.9702   76

   1   rms: 0.9515E-01   max: -.2798E+00   T at   76  2
       a =  1.500      CL =  0.4598
      Cm = -0.0432     CD =  0.00943   =>   CDf =  0.00558    CDp =  0.00385

 Side 1  free  transition at x/c =  0.6249   57
 Side 2  free  transition at x/c =  0.9952   79

   2   rms: 0.2738E-01   max: -.2369E+00   D at   58  1
       a =  1.500      CL =  0.4688
      Cm = -0.0451     CD =  0.00949   =>   CDf =  0.00574    CDp =  0.00375

 Side 1  free  transition at x/c =  0.6283   58
 Side 2  free  transition at x/c =  0.9944   79

   3   rms: 0.1089E-01   max: 0.1153E+00   C at   79  2
       a =  1.500      CL =  0.4699
      Cm = -0.0454     CD =  0.00944   =>   CDf =  0.00572    CDp =  0.00372

 Side 1  free  transition at x/c =  0.6273   58
 Side 2  free  transition at x/c =  0.9922   78

   4   rms: 0.1671E-02   max: 0.1211E-01   D at   79  2
       a =  1.500      CL =  0.4707
      Cm = -0.0456     CD =  0.00944   =>   CDf =  0.00572    CDp =  0.00371

 Side 1  free  transition at x/c =  0.6272   58
 Side 2  free  transition at x/c =  0.9910   78

   5   rms: 0.1690E-03   max: -.2007E-02   C at   78  2
       a =  1.500      CL =  0.4707
      Cm = -0.0456     CD =  0.00944   =>   CDf =  0.00573    CDp =  0.00371

 Side 1  free  transition at x/c =  0.6272   58
 Side 2  free  transition at x/c =  0.9910   78

   6   rms: 0.4778E-05   max: 0.5328E-04   D at    4  2
       a =  1.500      CL =  0.4707
      Cm = -0.0456     CD =  0.00944   =>   CDf =  0.00573    CDp =  0.00371
 plradd ia,ip,cpol           12           0  0.17971450    

 Point added to stored polar  1
 Point written to save file  vr5_Re300k.base.pol                             
 Dump file unspecified or not available
 Calculating wake trajectory ...
 Calculating source influence matrix ...

 Solving BL system ...

 Side 1  free  transition at x/c =  0.6272   58
 Side 2  free  transition at x/c =  0.9910   78

   1   rms: 0.1026E+00   max: -.1853E+00   T at   78  2
       a =  2.000      CL =  0.5514
      Cm = -0.0511     CD =  0.00957   =>   CDf =  0.00573    CDp =  0.00384

 Side 1  free  transition at x/c =  0.6200   58
 Side 2 forced transition at x/c =  1.0000   78

   2   rms: 0.4091E-01   max: -.3912E+00   C at   78  2
       a =  2.000      CL =  0.5339
      Cm = -0.0481     CD =  0.00954   =>   CDf =  0.00576    CDp =  0.00378

 Side 1  free  transition at x/c =  0.6164   58
 Side 2 forced transition at x/c =  1.0000   78

   3   rms: 0.4337E-02   max: 0.4563E-01   C at   78  2
       a =  2.000      CL =  0.5346
      Cm = -0.0482     CD =  0.00952   =>   CDf =  0.00578    CDp =  0.00374

 Side 1  free  transition at x/c =  0.6168   58
 Side 2 forced transition at x/c =  1.0000   78

   4   rms: 0.1693E-03   max: 0.2332E-02   C at   78  2
       a =  2.000      CL =  0.5346
      Cm = -0.0482     CD =  0.00952   =>   CDf =  0.00577    CDp =  0.00375

 Side 1  free  transition at x/c =  0.6168   58
 Side 2 forced transition at x/c =  1.0000   78

   5   rms: 0.8455E-06   max: 0.9992E-05   C at   78  2
       a =  2.000      CL =  0.5346
      Cm = -0.0482     CD =  0.00952   =>   CDf =  0.00577    CDp =  0.00375
 plradd ia,ip,cpol           13           0  0.17971450    

 Point added to stored polar  1
 Point written to save file  vr5_Re300k.base.pol                             
 Dump file unspecified or not available
 Calculating wake trajectory ...
 Calculating source influence matrix ...

 Solving BL system ...

 Side 1  free  transition at x/c =  0.6168   58
 Side 2 forced transition at x/c =  1.0000   78

   1   rms: 0.9029E-01   max: -.5372E+00   C at   78  2   RLX: 0.931
       a =  2.500      CL =  0.5812
      Cm = -0.0479     CD =  0.00968   =>   CDf =  0.00575    CDp =  0.00392

 Side 1  free  transition at x/c =  0.6091   58
 Side 2 forced transition at x/c =  1.0000   77

   2   rms: 0.1622E-01   max: 0.1493E+00   C at   77  2
       a =  2.500      CL =  0.5881
      Cm = -0.0484     CD =  0.00970   =>   CDf =  0.00591    CDp =  0.00379

 Side 1  free  transition at x/c =  0.6083   58
 Side 2 forced transition at x/c =  1.0000   77

   3   rms: 0.1948E-02   max: 0.2453E-01   C at   77  2
       a =  2.500      CL =  0.5883
      Cm = -0.0484     CD =  0.00971   =>   CDf =  0.00586    CDp =  0.00385

 Side 1  free  transition at x/c =  0.6083   58
 Side 2 forced transition at x/c =  1.0000   77

   4   rms: 0.4544E-04   max: 0.6178E-03   C at   77  2
       a =  2.500      CL =  0.5883
      Cm = -0.0484     CD =  0.00972   =>   CDf =  0.00586    CDp =  0.00385
 plradd ia,ip,cpol           14           0  0.16646421    

 Point added to stored polar  1
 Point written to save file  vr5_Re300k.base.pol                             
 Dump file unspecified or not available
 Calculating wake trajectory ...
 Calculating source influence matrix ...

 Solving BL system ...

 Side 1  free  transition at x/c =  0.6083   58
 Side 2 forced transition at x/c =  1.0000   77

   1   rms: 0.8575E-01   max: -.3301E+00   C at   77  2
       a =  3.000      CL =  0.6444
      Cm = -0.0492     CD =  0.00992   =>   CDf =  0.00586    CDp =  0.00405

 Side 1  free  transition at x/c =  0.5974   58
 Side 2 forced transition at x/c =  1.0000   77

   2   rms: 0.1589E-01   max: -.1505E+00   D at   59  1
       a =  3.000      CL =  0.6449
      Cm = -0.0491     CD =  0.00989   =>   CDf =  0.00595    CDp =  0.00395

 Side 1  free  transition at x/c =  0.5991   58
 Side 2 forced transition at x/c =  1.0000   77

   3   rms: 0.4328E-03   max: -.3576E-02   D at   58  1
       a =  3.000      CL =  0.6449
      Cm = -0.0491     CD =  0.00991   =>   CDf =  0.00589    CDp =  0.00401

 Side 1  free  transition at x/c =  0.5991   58
 Side 2 forced transition at x/c =  1.0000   77

   4   rms: 0.3085E-05   max: 0.3241E-04   C at   77  2
       a =  3.000      CL =  0.6449
      Cm = -0.0491     CD =  0.00991   =>   CDf =  0.00589    CDp =  0.00401
 plradd ia,ip,cpol           15           0  0.16646421    

 Point added to stored polar  1
 Point written to save file  vr5_Re300k.base.pol                             
 Dump file unspecified or not available
 Calculating wake trajectory ...
 Calculating source influence matrix ...

 Solving BL system ...

 Side 1  free  transition at x/c =  0.5991   58
 Side 2 forced transition at x/c =  1.0000   77

   1   rms: 0.8436E-01   max: -.2204E+00   C at   77  2
       a =  3.500      CL =  0.7016
      Cm = -0.0496     CD =  0.01011   =>   CDf =  0.00584    CDp =  0.00427

 Side 1  free  transition at x/c =  0.5905   58
 Side 2 forced transition at x/c =  1.0000   76

   2   rms: 0.9585E-02   max: -.1180E+00   D at   58  1
       a =  3.500      CL =  0.7017
      Cm = -0.0497     CD =  0.01013   =>   CDf =  0.00591    CDp =  0.00421

 Side 1  free  transition at x/c =  0.5889   58
 Side 2 forced transition at x/c =  1.0000   76

   3   rms: 0.5553E-03   max: 0.4092E-02   D at    4  2
       a =  3.500      CL =  0.7017
      Cm = -0.0497     CD =  0.01012   =>   CDf =  0.00589    CDp =  0.00423

 Side 1  free  transition at x/c =  0.5890   58
 Side 2 forced transition at x/c =  1.0000   76

   4   rms: 0.2050E-05   max: -.1129E-04   D at   82  1
       a =  3.500      CL =  0.7017
      Cm = -0.0497     CD =  0.01012   =>   CDf =  0.00589    CDp =  0.00424
 plradd ia,ip,cpol           16           0  0.16646421    

 Point added to stored polar  1
 Point written to save file  vr5_Re300k.base.pol                             
 Dump file unspecified or not available
 Calculating wake trajectory ...
 Calculating source influence matrix ...

 Solving BL system ...

 Side 1  free  transition at x/c =  0.5890   58
 Side 2 forced transition at x/c =  1.0000   76

   1   rms: 0.8358E-01   max: -.1827E+00   C at   76  2
       a =  4.000      CL =  0.7586
      Cm = -0.0503     CD =  0.01030   =>   CDf =  0.00581    CDp =  0.00449

 Side 1  free  transition at x/c =  0.5795   58
 Side 2 forced transition at x/c =  1.0000   75

   2   rms: 0.8225E-02   max: -.6587E-01   D at   59  1
       a =  4.000      CL =  0.7586
      Cm = -0.0502     CD =  0.01036   =>   CDf =  0.00594    CDp =  0.00442

 Side 1  free  transition at x/c =  0.5797   58
 Side 2 forced transition at x/c =  1.0000   75

   3   rms: 0.8266E-03   max: -.7986E-02   D at    4  1
       a =  4.000      CL =  0.7586
      Cm = -0.0502     CD =  0.01036   =>   CDf =  0.00592    CDp =  0.00444

 Side 1  free  transition at x/c =  0.5797   58
 Side 2 forced transition at x/c =  1.0000   75

   4   rms: 0.2851E-05   max: 0.1593E-04   D at   87  1
       a =  4.000      CL =  0.7586
      Cm = -0.0502     CD =  0.01036   =>   CDf =  0.00592    CDp =  0.00444
 plradd ia,ip,cpol           17           0  0.16646421    

 Point added to stored polar  1
 Point written to save file  vr5_Re300k.base.pol                             
 Dump file unspecified or not available
 Calculating wake trajectory ...
 Calculating source influence matrix ...

 Solving BL system ...

 Side 1  free  transition at x/c =  0.5797   58
 Side 2 forced transition at x/c =  1.0000   75

   1   rms: 0.8453E-01   max: -.1682E+00   C at   75  2
       a =  4.500      CL =  0.8155
      Cm = -0.0511     CD =  0.01059   =>   CDf =  0.00592    CDp =  0.00467

 Side 1  free  transition at x/c =  0.5641   57
 Side 2 forced transition at x/c =  1.0000   75

   2   rms: 0.3094E-01   max: -.2939E+00   D at   59  1
       a =  4.500      CL =  0.8151
      Cm = -0.0506     CD =  0.01063   =>   CDf =  0.00594    CDp =  0.00469

 Side 1  free  transition at x/c =  0.5697   58
 Side 2 forced transition at x/c =  1.0000   75

   3   rms: 0.1179E-01   max: 0.1706E+00   D at   58  1
       a =  4.500      CL =  0.8152
      Cm = -0.0507     CD =  0.01055   =>   CDf =  0.00584    CDp =  0.00471

 Side 1  free  transition at x/c =  0.5679   58
 Side 2 forced transition at x/c =  1.0000   75

   4   rms: 0.1123E-02   max: 0.1418E-01   D at   58  1
       a =  4.500      CL =  0.8152
      Cm = -0.0507     CD =  0.01056   =>   CDf =  0.00587    CDp =  0.00468

 Side 1  free  transition at x/c =  0.5678   58
 Side 2 forced transition at x/c =  1.0000   75

   5   rms: 0.7079E-05   max: -.8711E-04   D at   60  1
       a =  4.500      CL =  0.8152
      Cm = -0.0507     CD =  0.01056   =>   CDf =  0.00588    CDp =  0.00468
 plradd ia,ip,cpol           18           0  1.54884793E-02

 Point added to stored polar  1
 Point written to save file  vr5_Re300k.base.pol                             
 Dump file unspecified or not available
 Calculating wake trajectory ...
 Calculating source influence matrix ...

 Solving BL system ...

 Side 1  free  transition at x/c =  0.5678   58
 Side 2 forced transition at x/c =  1.0000   75

   1   rms: 0.8579E-01   max: -.1300E+00   C at   75  2
       a =  5.000      CL =  0.8717
      Cm = -0.0510     CD =  0.01081   =>   CDf =  0.00577    CDp =  0.00504

 Side 1  free  transition at x/c =  0.5556   58
 Side 2 forced transition at x/c =  1.0000   74

   2   rms: 0.1765E-01   max: -.2047E+00   D at   58  1
       a =  5.000      CL =  0.8714
      Cm = -0.0511     CD =  0.01075   =>   CDf =  0.00578    CDp =  0.00497

 Side 1  free  transition at x/c =  0.5535   58
 Side 2 forced transition at x/c =  1.0000   74

   3   rms: 0.2366E-02   max: -.2657E-01   D at   58  1
       a =  5.000      CL =  0.8714
      Cm = -0.0511     CD =  0.01076   =>   CDf =  0.00582    CDp =  0.00494

 Side 1  free  transition at x/c =  0.5538   58
 Side 2 forced transition at x/c =  1.0000   74

   4   rms: 0.1834E-04   max: -.2144E-03   D at   60  1
       a =  5.000      CL =  0.8714
      Cm = -0.0511     CD =  0.01076   =>   CDf =  0.00581    CDp =  0.00495
 plradd ia,ip,cpol           19           0  4.69573541E-03

 Point added to stored polar  1
 Point written to save file  vr5_Re300k.base.pol                             
 Dump file unspecified or not available
 Calculating wake trajectory ...
 Calculating source influence matrix ...

 Solving BL system ...

 Side 1  free  transition at x/c =  0.5538   58
 Side 2 forced transition at x/c =  1.0000   74

   1   rms: 0.8684E-01   max: -.1212E+00   C at   74  2
       a =  5.500      CL =  0.9276
      Cm = -0.0514     CD =  0.01095   =>   CDf =  0.00568    CDp =  0.00527

 Side 1  free  transition at x/c =  0.5375   58
 Side 2 forced transition at x/c =  1.0000   73

   2   rms: 0.2536E-01   max: -.2817E+00   D at   58  1
       a =  5.500      CL =  0.9271
      Cm = -0.0514     CD =  0.01092   =>   CDf =  0.00574    CDp =  0.00518

 Side 1  free  transition at x/c =  0.5372   58
 Side 2 forced transition at x/c =  1.0000   73

   3   rms: 0.2094E-02   max: -.2797E-01   D at   60  1
       a =  5.500      CL =  0.9271
      Cm = -0.0514     CD =  0.01094   =>   CDf =  0.00575    CDp =  0.00519

 Side 1  free  transition at x/c =  0.5370   58
 Side 2 forced transition at x/c =  1.0000   73

   4   rms: 0.2628E-04   max: -.5375E-03   D at   60  1
       a =  5.500      CL =  0.9271
      Cm = -0.0514     CD =  0.01094   =>   CDf =  0.00576    CDp =  0.00518
 plradd ia,ip,cpol           20           0  4.69573541E-03

 Point added to stored polar  1
 Point written to save file  vr5_Re300k.base.pol                             
 Dump file unspecified or not available
 Calculating wake trajectory ...
 Calculating source influence matrix ...

 Solving BL system ...

 Side 1  free  transition at x/c =  0.5370   58
 Side 2 forced transition at x/c =  1.0000   73

   1   rms: 0.9027E-01   max: 0.4391E+00   T at   58  1
       a =  6.000      CL =  0.9826
      Cm = -0.0515     CD =  0.01121   =>   CDf =  0.00576    CDp =  0.00545

 MRCHDU: Convergence failed at  58  side 1    Res =  0.1729E+01
 MRCHDU: Convergence failed at  59  side 1    Res =  0.3162E+01
 MRCHDU: Convergence failed at  60  side 1    Res =  0.2402E+01
 MRCHDU: Convergence failed at  61  side 1    Res =  0.2570E+01
 MRCHDU: Convergence failed at  62  side 1    Res =  0.2819E+01
 MRCHDU: Convergence failed at  63  side 1    Res =  0.3051E+01
 MRCHDU: Convergence failed at  64  side 1    Res =  0.3309E+01
 MRCHDU: Convergence failed at  65  side 1    Res =  0.3654E+01
 MRCHDU: Convergence failed at  66  side 1    Res =  0.4083E+01
 MRCHDU: Convergence failed at  67  side 1    Res =  0.4585E+01
 MRCHDU: Convergence failed at  68  side 1    Res =  0.5172E+01
 MRCHDU: Convergence failed at  69  side 1    Res =  0.5997E+01
 MRCHDU: Convergence failed at  70  side 1    Res =  0.7129E+01
 MRCHDU: Convergence failed at  71  side 1    Res =  0.8628E+01
 MRCHDU: Convergence failed at  72  side 1    Res =  0.1137E+02
 MRCHDU: Convergence failed at  73  side 1    Res =  0.1713E+02
 MRCHDU: Convergence failed at  74  side 1    Res =  0.3781E+02
 MRCHDU: Convergence failed at  75  side 1    Res =  0.1851E+04
 MRCHDU: Convergence failed at  76  side 1    Res =  0.3415E+02
 MRCHDU: Convergence failed at  77  side 1    Res =  0.1974E+02
 MRCHDU: Convergence failed at  78  side 1    Res =  0.1331E+02
 MRCHDU: Convergence failed at  79  side 1    Res =  0.9695E+01
 MRCHDU: Convergence failed at  80  side 1    Res =  0.1102E+02
 MRCHDU: Convergence failed at  81  side 1    Res =  0.1223E+02
 MRCHDU: Convergence failed at  82  side 1    Res =  0.1354E+02
 MRCHDU: Convergence failed at  83  side 1    Res =  0.1586E+02
 MRCHDU: Convergence failed at  84  side 1    Res =  0.1293E+02
 MRCHDU: Convergence failed at  85  side 1    Res =  0.1433E+02
 MRCHDU: Convergence failed at  86  side 1    Res =  0.1628E+02
 MRCHDU: Convergence failed at  87  side 1    Res =  0.1782E+02
 MRCHDU: Convergence failed at  88  side 1    Res =  0.1316E+02
 MRCHDU: Convergence failed at  89  side 1    Res =  0.1143E+02
 Side 1  free  transition at x/c =  0.5178   56
 Side 2 forced transition at x/c =  1.0000   73

   2   rms: 0.5025E+00   max: -.2117E+01   C at   73  2   RLX: 0.236
       a =  6.000      CL =  1.1747
      Cm = -0.1675     CD =  0.00549   =>   CDf =  0.00397    CDp =  0.00152

 Side 1  free  transition at x/c =  0.5115   56
 Side 2 forced transition at x/c =  1.0000   73

   3   rms: 0.2463E+00   max: 0.6053E+00   C at   73  2   RLX: 0.867
       a =  6.000      CL =  1.0168
      Cm = -0.0664     CD =  0.00846   =>   CDf =  0.00726    CDp =  0.00120

 Side 1  free  transition at x/c =  0.5157   56
 Side 2 forced transition at x/c =  1.0000   73

   4   rms: 0.4584E-01   max: 0.1153E+00   D at   84  2
       a =  6.000      CL =  0.9829
      Cm = -0.0517     CD =  0.01101   =>   CDf =  0.00583    CDp =  0.00518

 Side 1  free  transition at x/c =  0.5162   56
 Side 2 forced transition at x/c =  1.0000   73

   5   rms: 0.8382E-03   max: -.6769E-02   D at   58  1
       a =  6.000      CL =  0.9822
      Cm = -0.0516     CD =  0.01110   =>   CDf =  0.00566    CDp =  0.00544

 Side 1  free  transition at x/c =  0.5162   56
 Side 2 forced transition at x/c =  1.0000   73

   6   rms: 0.3598E-05   max: -.3040E-04   D at   58  1
       a =  6.000      CL =  0.9822
      Cm = -0.0516     CD =  0.01110   =>   CDf =  0.00566    CDp =  0.00544
 plradd ia,ip,cpol           21           0  3.08786286E-03

 Point added to stored polar  1
 Point written to save file  vr5_Re300k.base.pol                             
 Dump file unspecified or not available
 Calculating wake trajectory ...
 Calculating source influence matrix ...

 Solving BL system ...

 Side 1  free  transition at x/c =  0.5162   56
 Side 2 forced transition at x/c =  1.0000   73

   1   rms: 0.9176E-01   max: 0.4748E+00   T at   56  1
       a =  6.500      CL =  1.0369
      Cm = -0.0520     CD =  0.01113   =>   CDf =  0.00549    CDp =  0.00563

 Side 1  free  transition at x/c =  0.4770   55
 Side 2 forced transition at x/c =  1.0000   72

   2   rms: 0.4027E-01   max: -.4818E+00   D at   56  1
       a =  6.500      CL =  1.0358
      Cm = -0.0515     CD =  0.01119   =>   CDf =  0.00567    CDp =  0.00553

 Side 1  free  transition at x/c =  0.4876   55
 Side 2 forced transition at x/c =  1.0000   72

   3   rms: 0.4852E-02   max: 0.7088E-01   D at   56  1
       a =  6.500      CL =  1.0364
      Cm = -0.0517     CD =  0.01120   =>   CDf =  0.00555    CDp =  0.00566

 Side 1  free  transition at x/c =  0.4848   55
 Side 2 forced transition at x/c =  1.0000   72

   4   rms: 0.3454E-03   max: -.3757E-02   D at   56  1
       a =  6.500      CL =  1.0364
      Cm = -0.0517     CD =  0.01120   =>   CDf =  0.00555    CDp =  0.00565

 Side 1  free  transition at x/c =  0.4849   55
 Side 2 forced transition at x/c =  1.0000   72

   5   rms: 0.2296E-05   max: -.1030E-04   D at   90  1
       a =  6.500      CL =  1.0364
      Cm = -0.0517     CD =  0.01120   =>   CDf =  0.00555    CDp =  0.00565
 plradd ia,ip,cpol           22           0  3.08786286E-03

 Point added to stored polar  1
 Point written to save file  vr5_Re300k.base.pol                             
 Dump file unspecified or not available
 Calculating wake trajectory ...
 Calculating source influence matrix ...

 Solving BL system ...

 Side 1  free  transition at x/c =  0.4849   55
 Side 2 forced transition at x/c =  1.0000   72

   1   rms: 0.8940E-01   max: 0.3589E+00   T at   55  1
       a =  7.000      CL =  1.0912
      Cm = -0.0521     CD =  0.01134   =>   CDf =  0.00537    CDp =  0.00597

 Side 1  free  transition at x/c =  0.4213   52
 Side 2 forced transition at x/c =  1.0000   71

   2   rms: 0.3247E-01   max: -.3678E+00   D at   53  1
       a =  7.000      CL =  1.0886
      Cm = -0.0516     CD =  0.01147   =>   CDf =  0.00569    CDp =  0.00578

 Side 1  free  transition at x/c =  0.4401   53
 Side 2 forced transition at x/c =  1.0000   71

   3   rms: 0.1160E-01   max: 0.1848E+00   C at   53  1
       a =  7.000      CL =  1.0891
      Cm = -0.0517     CD =  0.01147   =>   CDf =  0.00547    CDp =  0.00600

 Side 1  free  transition at x/c =  0.4345   53
 Side 2 forced transition at x/c =  1.0000   71

   4   rms: 0.3573E-03   max: -.3752E-02   D at   55  1
       a =  7.000      CL =  1.0890
      Cm = -0.0517     CD =  0.01149   =>   CDf =  0.00554    CDp =  0.00596

 Side 1  free  transition at x/c =  0.4345   53
 Side 2 forced transition at x/c =  1.0000   71

   5   rms: 0.2964E-05   max: 0.1798E-04   C at   53  1
       a =  7.000      CL =  1.0890
      Cm = -0.0517     CD =  0.01149   =>   CDf =  0.00553    CDp =  0.00596
 plradd ia,ip,cpol           23           0  3.08786286E-03

 Point added to stored polar  1
 Point written to save file  vr5_Re300k.base.pol                             
 Dump file unspecified or not available
 Calculating wake trajectory ...
 Calculating source influence matrix ...

 Solving BL system ...

 Side 1  free  transition at x/c =  0.4345   53
 Side 2 forced transition at x/c =  1.0000   71

   1   rms: 0.1182E+00   max: 0.1137E+01   C at   53  1   RLX: 0.720
       a =  7.500      CL =  1.1241
      Cm = -0.0513     CD =  0.01196   =>   CDf =  0.00554    CDp =  0.00642

 Side 1  free  transition at x/c =  0.3657   48
 Side 2 forced transition at x/c =  1.0000   71

   2   rms: 0.2998E-01   max: -.1901E+00   D at   49  1
       a =  7.500      CL =  1.1352
      Cm = -0.0511     CD =  0.01256   =>   CDf =  0.00586    CDp =  0.00670

 Side 1  free  transition at x/c =  0.3412   46
 Side 2 forced transition at x/c =  1.0000   71

   3   rms: 0.6688E-02   max: -.1071E+00   C at   46  1
       a =  7.500      CL =  1.1336
      Cm = -0.0510     CD =  0.01271   =>   CDf =  0.00596    CDp =  0.00675

 Side 1  free  transition at x/c =  0.3469   47
 Side 2 forced transition at x/c =  1.0000   71

   4   rms: 0.3963E-02   max: 0.6949E-01   C at   47  1
       a =  7.500      CL =  1.1341
      Cm = -0.0510     CD =  0.01267   =>   CDf =  0.00590    CDp =  0.00678

 Side 1  free  transition at x/c =  0.3451   47
 Side 2 forced transition at x/c =  1.0000   71

   5   rms: 0.9236E-04   max: -.1492E-02   C at   47  1
       a =  7.500      CL =  1.1340
      Cm = -0.0510     CD =  0.01268   =>   CDf =  0.00592    CDp =  0.00676
 plradd ia,ip,cpol           24           0  3.08786286E-03

 Point added to stored polar  1
 Point written to save file  vr5_Re300k.base.pol                             
 Dump file unspecified or not available
 Calculating wake trajectory ...
 Calculating source influence matrix ...

 Solving BL system ...

 Side 1  free  transition at x/c =  0.3451   47
 Side 2 forced transition at x/c =  1.0000   71

   1   rms: 0.1673E+00   max: 0.2544E+01   C at   47  1   RLX: 0.590
       a =  8.000      CL =  1.1570
      Cm = -0.0504     CD =  0.01383   =>   CDf =  0.00592    CDp =  0.00791

 Side 1  free  transition at x/c =  0.2721   42
 Side 2 forced transition at x/c =  1.0000   71

   2   rms: 0.4847E-01   max: 0.4770E+00   C at   42  1
       a =  8.000      CL =  1.1703
      Cm = -0.0498     CD =  0.01484   =>   CDf =  0.00611    CDp =  0.00873

 Side 1  free  transition at x/c =  0.2423   41
 Side 2 forced transition at x/c =  1.0000   70

   3   rms: 0.8152E-02   max: 0.1328E+00   D at   42  1
       a =  8.000      CL =  1.1701
      Cm = -0.0498     CD =  0.01483   =>   CDf =  0.00645    CDp =  0.00837

 Side 1  free  transition at x/c =  0.2441   41
 Side 2 forced transition at x/c =  1.0000   70

   4   rms: 0.1248E-02   max: 0.1253E-01   C at   41  1
       a =  8.000      CL =  1.1702
      Cm = -0.0498     CD =  0.01483   =>   CDf =  0.00643    CDp =  0.00840

 Side 1  free  transition at x/c =  0.2438   41
 Side 2 forced transition at x/c =  1.0000   70

   5   rms: 0.6419E-05   max: -.4690E-04   D at   42  1
       a =  8.000      CL =  1.1702
      Cm = -0.0498     CD =  0.01483   =>   CDf =  0.00643    CDp =  0.00839
 plradd ia,ip,cpol           25           0  3.08786286E-03

 Point added to stored polar  1
 Point written to save file  vr5_Re300k.base.pol                             
 Dump file unspecified or not available
 Calculating wake trajectory ...
 Calculating source influence matrix ...

 Solving BL system ...

 Side 1  free  transition at x/c =  0.2438   41
 Side 2 forced transition at x/c =  1.0000   70

   1   rms: 0.1581E+00   max: 0.2353E+01   C at   41  1   RLX: 0.601
       a =  8.500      CL =  1.1907
      Cm = -0.0489     CD =  0.01626   =>   CDf =  0.00644    CDp =  0.00983

 Side 1  free  transition at x/c =  0.1696   36
 Side 2 forced transition at x/c =  1.0000   70

   2   rms: 0.1154E+00   max: 0.2169E+01   C at   36  1   RLX: 0.692
       a =  8.500      CL =  1.1935
      Cm = -0.0481     CD =  0.01748   =>   CDf =  0.00680    CDp =  0.01068

 Side 1  free  transition at x/c =  0.1298   33
 Side 2 forced transition at x/c =  1.0000   70

   3   rms: 0.2497E-01   max: 0.3435E+00   C at   33  1
       a =  8.500      CL =  1.1937
      Cm = -0.0475     CD =  0.01796   =>   CDf =  0.00711    CDp =  0.01085

 Side 1  free  transition at x/c =  0.1210   32
 Side 2 forced transition at x/c =  1.0000   70

   4   rms: 0.2147E-02   max: 0.3758E-01   C at   32  1
       a =  8.500      CL =  1.1940
      Cm = -0.0475     CD =  0.01791   =>   CDf =  0.00715    CDp =  0.01076

 Side 1  free  transition at x/c =  0.1200   32
 Side 2 forced transition at x/c =  1.0000   70

   5   rms: 0.3297E-04   max: -.3504E-03   C at   32  1
       a =  8.500      CL =  1.1940
      Cm = -0.0475     CD =  0.01791   =>   CDf =  0.00716    CDp =  0.01075
 plradd ia,ip,cpol           26           0  1.80413947E-03

 Point added to stored polar  1
 Point written to save file  vr5_Re300k.base.pol                             
 Dump file unspecified or not available
 Calculating wake trajectory ...
 Calculating source influence matrix ...

 Solving BL system ...

 Side 1  free  transition at x/c =  0.1200   32
 Side 2 forced transition at x/c =  1.0000   70

   1   rms: 0.1694E+00   max: 0.2909E+01   C at   32  1   RLX: 0.516
       a =  9.000      CL =  1.2066
      Cm = -0.0463     CD =  0.01947   =>   CDf =  0.00716    CDp =  0.01231

 Side 1  free  transition at x/c =  0.0878   30
 Side 2 forced transition at x/c =  1.0000   70

   2   rms: 0.7237E-01   max: 0.6429E+00   C at   30  1   RLX: 0.835
       a =  9.000      CL =  1.2128
      Cm = -0.0452     CD =  0.02077   =>   CDf =  0.00735    CDp =  0.01343

 Side 1  free  transition at x/c =  0.0732   28
 Side 2 forced transition at x/c =  1.0000   70

   3   rms: 0.2008E-01   max: -.2309E+00   D at   30  1
       a =  9.000      CL =  1.2157
      Cm = -0.0449     CD =  0.02073   =>   CDf =  0.00746    CDp =  0.01327

 Side 1  free  transition at x/c =  0.0690   28
 Side 2 forced transition at x/c =  1.0000   70

   4   rms: 0.1976E-02   max: -.1768E-01   D at   30  1
       a =  9.000      CL =  1.2147
      Cm = -0.0448     CD =  0.02075   =>   CDf =  0.00745    CDp =  0.01330

 Side 1  free  transition at x/c =  0.0690   28
 Side 2 forced transition at x/c =  1.0000   70

   5   rms: 0.4391E-04   max: 0.2472E-03   D at   28  1
       a =  9.000      CL =  1.2147
      Cm = -0.0448     CD =  0.02075   =>   CDf =  0.00744    CDp =  0.01330
 plradd ia,ip,cpol           27           0  1.80413947E-03

 Point added to stored polar  1
 Point written to save file  vr5_Re300k.base.pol                             
 Dump file unspecified or not available
 Calculating wake trajectory ...
 Calculating source influence matrix ...

 Solving BL system ...

 Side 1  free  transition at x/c =  0.0690   28
 Side 2 forced transition at x/c =  1.0000   70

   1   rms: 0.1083E+00   max: 0.8331E+00   C at   28  1   RLX: 0.869
       a =  9.500      CL =  1.2298
      Cm = -0.0420     CD =  0.02314   =>   CDf =  0.00718    CDp =  0.01596

 Side 1  free  transition at x/c =  0.0532   28
 Side 2 forced transition at x/c =  1.0000   69

   2   rms: 0.6031E-01   max: -.6862E+00   D at   28  1   RLX: 0.729
       a =  9.500      CL =  1.2362
      Cm = -0.0436     CD =  0.02314   =>   CDf =  0.00737    CDp =  0.01576

 Side 1  free  transition at x/c =  0.0513   28
 Side 2 forced transition at x/c =  1.0000   69

   3   rms: 0.2070E-01   max: -.2425E+00   D at   28  1
       a =  9.500      CL =  1.2254
      Cm = -0.0417     CD =  0.02409   =>   CDf =  0.00743    CDp =  0.01666

 Side 1  free  transition at x/c =  0.0499   27
 Side 2 forced transition at x/c =  1.0000   69

   4   rms: 0.8688E-02   max: -.7916E-01   C at   27  1
       a =  9.500      CL =  1.2276
      Cm = -0.0417     CD =  0.02385   =>   CDf =  0.00746    CDp =  0.01639

 Side 1  free  transition at x/c =  0.0494   27
 Side 2 forced transition at x/c =  1.0000   69

   5   rms: 0.3002E-03   max: 0.3500E-02   D at   27  1
       a =  9.500      CL =  1.2275
      Cm = -0.0417     CD =  0.02388   =>   CDf =  0.00746    CDp =  0.01642

 Side 1  free  transition at x/c =  0.0494   27
 Side 2 forced transition at x/c =  1.0000   69

   6   rms: 0.6796E-05   max: -.2901E-04   C at   69  2
       a =  9.500      CL =  1.2275
      Cm = -0.0417     CD =  0.02388   =>   CDf =  0.00746    CDp =  0.01642
 plradd ia,ip,cpol           28           0  1.80413947E-03

 Point added to stored polar  1
 Point written to save file  vr5_Re300k.base.pol                             
 Dump file unspecified or not available
 Calculating wake trajectory ...
 Calculating source influence matrix ...

 Solving BL system ...

 Side 1  free  transition at x/c =  0.0494   27
 Side 2 forced transition at x/c =  1.0000   69

   1   rms: 0.9080E-01   max: 0.6870E+00   T at   27  1
       a = 10.000      CL =  1.2565
      Cm = -0.0401     CD =  0.02619   =>   CDf =  0.00747    CDp =  0.01873

 Side 1  free  transition at x/c =  0.0385   26
 Side 2 forced transition at x/c =  1.0000   69

   2   rms: 0.4633E-01   max: -.3156E+00   D at   26  1
       a = 10.000      CL =  1.2368
      Cm = -0.0394     CD =  0.02754   =>   CDf =  0.00739    CDp =  0.02014

 Side 1  free  transition at x/c =  0.0398   26
 Side 2 forced transition at x/c =  1.0000   69

   3   rms: 0.7749E-02   max: 0.4243E-01   T at   26  1
       a = 10.000      CL =  1.2398
      Cm = -0.0393     CD =  0.02733   =>   CDf =  0.00737    CDp =  0.01995

 Side 1  free  transition at x/c =  0.0393   26
 Side 2 forced transition at x/c =  1.0000   69

   4   rms: 0.1344E-03   max: 0.2484E-02   D at   77  1
       a = 10.000      CL =  1.2399
      Cm = -0.0393     CD =  0.02736   =>   CDf =  0.00738    CDp =  0.01998

 Side 1  free  transition at x/c =  0.0392   26
 Side 2 forced transition at x/c =  1.0000   69

   5   rms: 0.1676E-05   max: -.9672E-05   C at   69  2
       a = 10.000      CL =  1.2399
      Cm = -0.0393     CD =  0.02736   =>   CDf =  0.00738    CDp =  0.01998
 plradd ia,ip,cpol           29           0  8.20159214E-04

 Point added to stored polar  1
 Point written to save file  vr5_Re300k.base.pol                             
 Dump file unspecified or not available

.OPERva   c>  
 Solving BL system ...

 Side 1  free  transition at x/c =  0.0392   26
 Side 2 forced transition at x/c =  1.0000   69

   1   rms: 0.6189E-06   max: 0.5651E-05   C at   69  2
       a = 10.000      CL =  1.2399
      Cm = -0.0393     CD =  0.02736   =>   CDf =  0.00738    CDp =  0.01998
 plradd ia,ip,cpol           30         182  8.20159214E-04

 Point added to stored polar  1
 Point written to save file  vr5_Re300k.base.pol                             
 Dump file unspecified or not available
 Calculating wake trajectory ...
 Calculating source influence matrix ...

 Solving BL system ...

 Side 1  free  transition at x/c =  0.0392   26
 Side 2 forced transition at x/c =  1.0000   69

   1   rms: 0.4153E-01   max: 0.2295E+00   T at   26  1
       a = 10.250      CL =  1.2501
      Cm = -0.0385     CD =  0.02901   =>   CDf =  0.00739    CDp =  0.02162

 Side 1  free  transition at x/c =  0.0359   26
 Side 2 forced transition at x/c =  1.0000   69

   2   rms: 0.7925E-02   max: -.7107E-01   D at   26  1
       a = 10.250      CL =  1.2473
      Cm = -0.0383     CD =  0.02905   =>   CDf =  0.00733    CDp =  0.02172

 Side 1  free  transition at x/c =  0.0364   26
 Side 2 forced transition at x/c =  1.0000   69

   3   rms: 0.4440E-03   max: -.2118E-02   D at   78  1
       a = 10.250      CL =  1.2474
      Cm = -0.0383     CD =  0.02904   =>   CDf =  0.00732    CDp =  0.02173

 Side 1  free  transition at x/c =  0.0364   26
 Side 2 forced transition at x/c =  1.0000   69

   4   rms: 0.1903E-04   max: 0.8930E-04   T at   26  1
       a = 10.250      CL =  1.2474
      Cm = -0.0383     CD =  0.02905   =>   CDf =  0.00732    CDp =  0.02173
 plradd ia,ip,cpol           31           0  8.20159214E-04

 Point added to stored polar  1
 Point written to save file  vr5_Re300k.base.pol                             
 Dump file unspecified or not available
 Calculating wake trajectory ...
 Calculating source influence matrix ...

 Solving BL system ...

 Side 1  free  transition at x/c =  0.0364   26
 Side 2 forced transition at x/c =  1.0000   69

   1   rms: 0.4141E-01   max: 0.2125E+00   T at   26  1
       a = 10.500      CL =  1.2560
      Cm = -0.0376     CD =  0.03092   =>   CDf =  0.00732    CDp =  0.02360

 Side 1  free  transition at x/c =  0.0341   26
 Side 2 forced transition at x/c =  1.0000   69

   2   rms: 0.7086E-02   max: 0.3305E-01   D at   75  1
       a = 10.500      CL =  1.2510
      Cm = -0.0373     CD =  0.03116   =>   CDf =  0.00730    CDp =  0.02386

 Side 1  free  transition at x/c =  0.0343   26
 Side 2 forced transition at x/c =  1.0000   69

   3   rms: 0.1487E-03   max: 0.1965E-02   D at   78  2
       a = 10.500      CL =  1.2509
      Cm = -0.0373     CD =  0.03114   =>   CDf =  0.00729    CDp =  0.02385

 Side 1  free  transition at x/c =  0.0343   26
 Side 2 forced transition at x/c =  1.0000   69

   4   rms: 0.1342E-05   max: 0.1978E-04   C at   69  2
       a = 10.500      CL =  1.2509
      Cm = -0.0373     CD =  0.03114   =>   CDf =  0.00729    CDp =  0.02385
 plradd ia,ip,cpol           32           0  8.20159214E-04

 Point added to stored polar  1
 Point written to save file  vr5_Re300k.base.pol                             
 Dump file unspecified or not available
 Calculating wake trajectory ...
 Calculating source influence matrix ...

 Solving BL system ...

 Side 1  free  transition at x/c =  0.0343   26
 Side 2 forced transition at x/c =  1.0000   69

   1   rms: 0.4623E-01   max: 0.1601E+00   T at   26  1
       a = 10.750      CL =  1.2528
      Cm = -0.0363     CD =  0.03376   =>   CDf =  0.00694    CDp =  0.02683

 Side 1  free  transition at x/c =  0.0328   26
 Side 2 forced transition at x/c =  1.0000   68
 idif Ue xi dudx           1  0.10607988      5.14292717E-03   20.626364    
 Uenew xinew           2  7.72080210E-04  3.74317169E-05

   2   rms: 0.4835E-01   max: -.8339E+00   T at    2  1   RLX: 0.600
       a = 10.750      CL =  1.2512
      Cm = -0.0364     CD =  0.03372   =>   CDf =  0.00757    CDp =  0.02616

 Side 1  free  transition at x/c =  0.0328   25
 Side 2 forced transition at x/c =  1.0000   69

   3   rms: 0.1076E-01   max: -.1752E+00   T at    2  2
       a = 10.750      CL =  1.2491
      Cm = -0.0359     CD =  0.03375   =>   CDf =  0.00725    CDp =  0.02650

 Side 1  free  transition at x/c =  0.0328   25
 Side 2 forced transition at x/c =  1.0000   69

   4   rms: 0.3207E-03   max: 0.2429E-02   D at    4  2
       a = 10.750      CL =  1.2492
      Cm = -0.0359     CD =  0.03373   =>   CDf =  0.00724    CDp =  0.02649

 Side 1  free  transition at x/c =  0.0328   25
 Side 2 forced transition at x/c =  1.0000   69

   5   rms: 0.1182E-04   max: -.6805E-04   D at   79  2
       a = 10.750      CL =  1.2492
      Cm = -0.0359     CD =  0.03374   =>   CDf =  0.00724    CDp =  0.02649
 plradd ia,ip,cpol           33           0  8.20159214E-04

 Point added to stored polar  1
 Point written to save file  vr5_Re300k.base.pol                             
 Dump file unspecified or not available
 Calculating wake trajectory ...
 Calculating source influence matrix ...

 Solving BL system ...

 Side 1  free  transition at x/c =  0.0328   25
 Side 2 forced transition at x/c =  1.0000   69

   1   rms: 0.3651E-01   max: 0.1640E+00   T at   25  1
       a = 11.000      CL =  1.2601
      Cm = -0.0353     CD =  0.03547   =>   CDf =  0.00688    CDp =  0.02859

 Side 1  free  transition at x/c =  0.0318   26
 Side 2 forced transition at x/c =  1.0000   68

   2   rms: 0.5500E-02   max: -.4530E-01   T at    2  1
       a = 11.000      CL =  1.2572
      Cm = -0.0351     CD =  0.03552   =>   CDf =  0.00713    CDp =  0.02839

 Side 1  free  transition at x/c =  0.0318   26
 Side 2 forced transition at x/c =  1.0000   68

   3   rms: 0.1541E-02   max: -.1840E-01   D at    4  1
       a = 11.000      CL =  1.2570
      Cm = -0.0351     CD =  0.03550   =>   CDf =  0.00712    CDp =  0.02838

 Side 1  free  transition at x/c =  0.0318   26
 Side 2 forced transition at x/c =  1.0000   68

   4   rms: 0.5138E-05   max: 0.2318E-04   D at   79  2
       a = 11.000      CL =  1.2570
      Cm = -0.0351     CD =  0.03550   =>   CDf =  0.00712    CDp =  0.02838
 plradd ia,ip,cpol           34           0  1.12066009E-04

 Point added to stored polar  1
 Point written to save file  vr5_Re300k.base.pol                             
 Dump file unspecified or not available
 Calculating wake trajectory ...
 Calculating source influence matrix ...

 Solving BL system ...

 Side 1  free  transition at x/c =  0.0318   26
 Side 2 forced transition at x/c =  1.0000   68

   1   rms: 0.3583E-01   max: 0.1311E+00   T at   26  1
       a = 11.250      CL =  1.2661
      Cm = -0.0344     CD =  0.03744   =>   CDf =  0.00713    CDp =  0.03032

 Side 1  free  transition at x/c =  0.0306   26
 Side 2 forced transition at x/c =  1.0000   68

   2   rms: 0.3570E-02   max: -.1789E-01   D at   26  1
       a = 11.250      CL =  1.2640
      Cm = -0.0342     CD =  0.03738   =>   CDf =  0.00704    CDp =  0.03034

 Side 1  free  transition at x/c =  0.0307   26
 Side 2 forced transition at x/c =  1.0000   68

   3   rms: 0.1961E-03   max: -.1137E-02   D at   73  1
       a = 11.250      CL =  1.2640
      Cm = -0.0342     CD =  0.03735   =>   CDf =  0.00703    CDp =  0.03032

 Side 1  free  transition at x/c =  0.0307   26
 Side 2 forced transition at x/c =  1.0000   68

   4   rms: 0.1272E-04   max: -.7226E-04   D at   79  2
       a = 11.250      CL =  1.2640
      Cm = -0.0342     CD =  0.03736   =>   CDf =  0.00703    CDp =  0.03032
 plradd ia,ip,cpol           35           0  1.12066009E-04

 Point added to stored polar  1
 Point written to save file  vr5_Re300k.base.pol                             
 Dump file unspecified or not available
 Calculating wake trajectory ...
 Calculating source influence matrix ...

 Solving BL system ...

 Side 1  free  transition at x/c =  0.0307   26
 Side 2 forced transition at x/c =  1.0000   68

   1   rms: 0.3494E-01   max: 0.1264E+00   T at   26  1
       a = 11.500      CL =  1.2730
      Cm = -0.0335     CD =  0.03932   =>   CDf =  0.00703    CDp =  0.03229

 Side 1  free  transition at x/c =  0.0295   26
 Side 2 forced transition at x/c =  1.0000   68

   2   rms: 0.4154E-02   max: -.2693E-01   D at   26  1
       a = 11.500      CL =  1.2708
      Cm = -0.0334     CD =  0.03925   =>   CDf =  0.00696    CDp =  0.03228

 Side 1  free  transition at x/c =  0.0296   26
 Side 2 forced transition at x/c =  1.0000   68

   3   rms: 0.3239E-03   max: -.1734E-02   D at   72  1
       a = 11.500      CL =  1.2709
      Cm = -0.0334     CD =  0.03921   =>   CDf =  0.00696    CDp =  0.03226

 Side 1  free  transition at x/c =  0.0296   26
 Side 2 forced transition at x/c =  1.0000   68

   4   rms: 0.2058E-04   max: -.1269E-03   D at   79  2
       a = 11.500      CL =  1.2709
      Cm = -0.0334     CD =  0.03922   =>   CDf =  0.00696    CDp =  0.03226
 plradd ia,ip,cpol           36           0  1.12066009E-04

 Point added to stored polar  1
 Point written to save file  vr5_Re300k.base.pol                             
 Dump file unspecified or not available
 Calculating wake trajectory ...
 Calculating source influence matrix ...

 Solving BL system ...

 Side 1  free  transition at x/c =  0.0296   26
 Side 2 forced transition at x/c =  1.0000   68

   1   rms: 0.3427E-01   max: 0.1353E+00   T at   26  1
       a = 11.750      CL =  1.2800
      Cm = -0.0328     CD =  0.04119   =>   CDf =  0.00696    CDp =  0.03423

 Side 1  free  transition at x/c =  0.0285   26
 Side 2 forced transition at x/c =  1.0000   68

   2   rms: 0.4664E-02   max: -.3066E-01   D at   26  1
       a = 11.750      CL =  1.2774
      Cm = -0.0326     CD =  0.04114   =>   CDf =  0.00691    CDp =  0.03423

 Side 1  free  transition at x/c =  0.0286   26
 Side 2 forced transition at x/c =  1.0000   68

   3   rms: 0.4510E-03   max: -.2350E-02   D at   71  1
       a = 11.750      CL =  1.2776
      Cm = -0.0326     CD =  0.04110   =>   CDf =  0.00690    CDp =  0.03420

 Side 1  free  transition at x/c =  0.0286   26
 Side 2 forced transition at x/c =  1.0000   68

   4   rms: 0.3115E-04   max: -.1905E-03   D at   80  2
       a = 11.750      CL =  1.2776
      Cm = -0.0326     CD =  0.04110   =>   CDf =  0.00690    CDp =  0.03420
 plradd ia,ip,cpol           37           0  1.12066009E-04

 Point added to stored polar  1
 Point written to save file  vr5_Re300k.base.pol                             
 Dump file unspecified or not available
 Calculating wake trajectory ...
 Calculating source influence matrix ...

 Solving BL system ...

 Side 1  free  transition at x/c =  0.0285   26
 Side 2 forced transition at x/c =  1.0000   68

   1   rms: 0.3394E-01   max: 0.1424E+00   T at   26  1
       a = 12.000      CL =  1.2865
      Cm = -0.0320     CD =  0.04313   =>   CDf =  0.00690    CDp =  0.03623

 Side 1  free  transition at x/c =  0.0276   26
 Side 2 forced transition at x/c =  1.0000   68

   2   rms: 0.3762E-02   max: 0.2004E-01   D at   80  2
       a = 12.000      CL =  1.2835
      Cm = -0.0318     CD =  0.04309   =>   CDf =  0.00687    CDp =  0.03623

 Side 1  free  transition at x/c =  0.0277   26
 Side 2 forced transition at x/c =  1.0000   68

   3   rms: 0.1501E-03   max: 0.1401E-02   D at   80  2
       a = 12.000      CL =  1.2835
      Cm = -0.0318     CD =  0.04306   =>   CDf =  0.00686    CDp =  0.03620

 Side 1  free  transition at x/c =  0.0277   26
 Side 2 forced transition at x/c =  1.0000   68

   4   rms: 0.1018E-04   max: -.6352E-04   D at   80  2
       a = 12.000      CL =  1.2835
      Cm = -0.0318     CD =  0.04307   =>   CDf =  0.00686    CDp =  0.03621
 plradd ia,ip,cpol           38           0  1.12066009E-04

 Point added to stored polar  1
 Point written to save file  vr5_Re300k.base.pol                             
 Dump file unspecified or not available
 Calculating wake trajectory ...
 Calculating source influence matrix ...

 Solving BL system ...

 Side 1  free  transition at x/c =  0.0277   26
 Side 2 forced transition at x/c =  1.0000   68

   1   rms: 0.3415E-01   max: 0.1386E+00   T at   26  1
       a = 12.250      CL =  1.2913
      Cm = -0.0310     CD =  0.04517   =>   CDf =  0.00686    CDp =  0.03830

 Side 1  free  transition at x/c =  0.0269   26
 Side 2 forced transition at x/c =  1.0000   68

   2   rms: 0.3583E-02   max: 0.2641E-01   D at   26  1
       a = 12.250      CL =  1.2887
      Cm = -0.0306     CD =  0.04508   =>   CDf =  0.00682    CDp =  0.03826

 Side 1  free  transition at x/c =  0.0269   26
 Side 2 forced transition at x/c =  1.0000   68

   3   rms: 0.2012E-03   max: 0.9292E-03   D at   70  1
       a = 12.250      CL =  1.2886
      Cm = -0.0306     CD =  0.04508   =>   CDf =  0.00682    CDp =  0.03825

 Side 1  free  transition at x/c =  0.0269   26
 Side 2 forced transition at x/c =  1.0000   68

   4   rms: 0.1268E-04   max: 0.7746E-04   D at   80  2
       a = 12.250      CL =  1.2886
      Cm = -0.0306     CD =  0.04508   =>   CDf =  0.00682    CDp =  0.03825
 plradd ia,ip,cpol           39           0  1.12066009E-04

 Point added to stored polar  1
 Point written to save file  vr5_Re300k.base.pol                             
 Dump file unspecified or not available
 Calculating wake trajectory ...
 Calculating source influence matrix ...

 Solving BL system ...

 Side 1  free  transition at x/c =  0.0269   26
 Side 2 forced transition at x/c =  1.0000   68

   1   rms: 0.3753E-01   max: 0.1404E+00   T at   26  1
       a = 12.500      CL =  1.2967
      Cm = -0.0291     CD =  0.04708   =>   CDf =  0.00641    CDp =  0.04067

 Side 1  free  transition at x/c =  0.0262   27
 Side 2 forced transition at x/c =  1.0000   67

   2   rms: 0.9318E-02   max: -.1195E+00   T at    2  1
       a = 12.500      CL =  1.2953
      Cm = -0.0283     CD =  0.04689   =>   CDf =  0.00676    CDp =  0.04013

 Side 1  free  transition at x/c =  0.0261   27
 Side 2 forced transition at x/c =  1.0000   67

   3   rms: 0.1505E-02   max: -.1851E-01   D at    4  1
       a = 12.500      CL =  1.2955
      Cm = -0.0283     CD =  0.04697   =>   CDf =  0.00678    CDp =  0.04020

 Side 1  free  transition at x/c =  0.0261   27
 Side 2 forced transition at x/c =  1.0000   67

   4   rms: 0.7899E-04   max: 0.2784E-03   D at   71  1
       a = 12.500      CL =  1.2954
      Cm = -0.0283     CD =  0.04698   =>   CDf =  0.00678    CDp =  0.04020
 plradd ia,ip,cpol           40           0 -3.35796212E-04

 Point added to stored polar  1
 Point written to save file  vr5_Re300k.base.pol                             
 Dump file unspecified or not available
 Calculating wake trajectory ...
 Calculating source influence matrix ...

 Solving BL system ...

 Side 1  free  transition at x/c =  0.0261   27
 Side 2 forced transition at x/c =  1.0000   67

   1   rms: 0.7415E-01   max: 0.2702E+00   D at   29  1
       a = 12.750      CL =  1.3131
      Cm = -0.0243     CD =  0.04815   =>   CDf =  0.00678    CDp =  0.04137

 Side 1  free  transition at x/c =  0.0254   26
 Side 2 forced transition at x/c =  1.0000   67

   2   rms: 0.3683E-01   max: -.2360E+00   D at   26  1
       a = 12.750      CL =  1.3062
      Cm = -0.0274     CD =  0.04921   =>   CDf =  0.00666    CDp =  0.04255

 Side 1  free  transition at x/c =  0.0257   26
 Side 2 forced transition at x/c =  1.0000   67

   3   rms: 0.5448E-02   max: 0.6498E-01   D at   72  1
       a = 12.750      CL =  1.3051
      Cm = -0.0275     CD =  0.04879   =>   CDf =  0.00666    CDp =  0.04213

 Side 1  free  transition at x/c =  0.0257   26
 Side 2 forced transition at x/c =  1.0000   67

   4   rms: 0.4483E-03   max: 0.3007E-02   D at   80  2
       a = 12.750      CL =  1.3048
      Cm = -0.0275     CD =  0.04873   =>   CDf =  0.00665    CDp =  0.04208

 Side 1  free  transition at x/c =  0.0257   26
 Side 2 forced transition at x/c =  1.0000   67

   5   rms: 0.9634E-05   max: 0.8034E-04   D at   80  2
       a = 12.750      CL =  1.3048
      Cm = -0.0275     CD =  0.04873   =>   CDf =  0.00665    CDp =  0.04207
 plradd ia,ip,cpol           41           0 -3.35796212E-04

 Point added to stored polar  1
 Point written to save file  vr5_Re300k.base.pol                             
 Dump file unspecified or not available
 Calculating wake trajectory ...
 Calculating source influence matrix ...

 Solving BL system ...

 Side 1  free  transition at x/c =  0.0257   26
 Side 2 forced transition at x/c =  1.0000   67

   1   rms: 0.3206E-01   max: 0.1121E+00   T at   26  1   RLX: 0.969
       a = 13.000      CL =  1.3161
      Cm = -0.0268     CD =  0.05050   =>   CDf =  0.00666    CDp =  0.04384

 Side 1  free  transition at x/c =  0.0252   26
 Side 2 forced transition at x/c =  1.0000   67

   2   rms: 0.4042E-02   max: 0.1480E-01   D at   80  2
       a = 13.000      CL =  1.3134
      Cm = -0.0267     CD =  0.05061   =>   CDf =  0.00652    CDp =  0.04410

 Side 1  free  transition at x/c =  0.0252   26
 Side 2 forced transition at x/c =  1.0000   67

   3   rms: 0.1716E-03   max: -.1168E-02   D at   71  1
       a = 13.000      CL =  1.3134
      Cm = -0.0267     CD =  0.05056   =>   CDf =  0.00652    CDp =  0.04405

 Side 1  free  transition at x/c =  0.0252   26
 Side 2 forced transition at x/c =  1.0000   67

   4   rms: 0.1285E-04   max: -.8535E-04   D at   80  2
       a = 13.000      CL =  1.3134
      Cm = -0.0267     CD =  0.05057   =>   CDf =  0.00652    CDp =  0.04405
 plradd ia,ip,cpol           42           0 -3.35796212E-04

 Point added to stored polar  1
 Point written to save file  vr5_Re300k.base.pol                             
 Dump file unspecified or not available
 Calculating wake trajectory ...
 Calculating source influence matrix ...

 Solving BL system ...

 Side 1  free  transition at x/c =  0.0252   26
 Side 2 forced transition at x/c =  1.0000   67

   1   rms: 0.3191E-01   max: 0.1178E+00   T at   26  1   RLX: 0.931
       a = 13.250      CL =  1.3236
      Cm = -0.0260     CD =  0.05240   =>   CDf =  0.00652    CDp =  0.04588

 Side 1  free  transition at x/c =  0.0246   26
 Side 2 forced transition at x/c =  1.0000   67

   2   rms: 0.4002E-02   max: 0.1777E-01   D at   81  2
       a = 13.250      CL =  1.3212
      Cm = -0.0260     CD =  0.05258   =>   CDf =  0.00638    CDp =  0.04620

 Side 1  free  transition at x/c =  0.0246   26
 Side 2 forced transition at x/c =  1.0000   67

   3   rms: 0.1549E-03   max: 0.1195E-02   D at   81  2
       a = 13.250      CL =  1.3212
      Cm = -0.0259     CD =  0.05252   =>   CDf =  0.00638    CDp =  0.04614

 Side 1  free  transition at x/c =  0.0246   26
 Side 2 forced transition at x/c =  1.0000   67

   4   rms: 0.1540E-04   max: -.8646E-04   D at   81  2
       a = 13.250      CL =  1.3212
      Cm = -0.0259     CD =  0.05252   =>   CDf =  0.00638    CDp =  0.04614
 plradd ia,ip,cpol           43           0 -3.35796212E-04

 Point added to stored polar  1
 Point written to save file  vr5_Re300k.base.pol                             
 Dump file unspecified or not available
 Calculating wake trajectory ...
 Calculating source influence matrix ...

 Solving BL system ...

 Side 1  free  transition at x/c =  0.0246   26
 Side 2 forced transition at x/c =  1.0000   67

   1   rms: 0.3173E-01   max: 0.1176E+00   T at   26  1   RLX: 0.895
       a = 13.500      CL =  1.3305
      Cm = -0.0254     CD =  0.05439   =>   CDf =  0.00638    CDp =  0.04801

 Side 1  free  transition at x/c =  0.0240   26
 Side 2 forced transition at x/c =  1.0000   67

   2   rms: 0.4091E-02   max: 0.1996E-01   D at   81  2
       a = 13.500      CL =  1.3284
      Cm = -0.0253     CD =  0.05464   =>   CDf =  0.00626    CDp =  0.04838

 Side 1  free  transition at x/c =  0.0240   26
 Side 2 forced transition at x/c =  1.0000   67

   3   rms: 0.2721E-03   max: 0.3203E-02   D at   81  2
       a = 13.500      CL =  1.3282
      Cm = -0.0252     CD =  0.05458   =>   CDf =  0.00625    CDp =  0.04833

 Side 1  free  transition at x/c =  0.0240   26
 Side 2 forced transition at x/c =  1.0000   67

   4   rms: 0.6093E-05   max: 0.6461E-04   D at   81  2
       a = 13.500      CL =  1.3282
      Cm = -0.0252     CD =  0.05458   =>   CDf =  0.00625    CDp =  0.04833
 plradd ia,ip,cpol           44           0 -3.35796212E-04

 Point added to stored polar  1
 Point written to save file  vr5_Re300k.base.pol                             
 Dump file unspecified or not available
 Calculating wake trajectory ...
 Calculating source influence matrix ...

 Solving BL system ...

 Side 1  free  transition at x/c =  0.0240   26
 Side 2 forced transition at x/c =  1.0000   67

   1   rms: 0.3129E-01   max: 0.1166E+00   T at   26  1   RLX: 0.860
       a = 13.750      CL =  1.3363
      Cm = -0.0248     CD =  0.05649   =>   CDf =  0.00625    CDp =  0.05024

 Side 1  free  transition at x/c =  0.0234   26
 Side 2 forced transition at x/c =  1.0000   67

   2   rms: 0.4703E-02   max: 0.2339E-01   D at   81  2
       a = 13.750      CL =  1.3348
      Cm = -0.0247     CD =  0.05679   =>   CDf =  0.00614    CDp =  0.05065

 Side 1  free  transition at x/c =  0.0233   26
 Side 2 forced transition at x/c =  1.0000   67

   3   rms: 0.5108E-03   max: 0.3016E-02   D at   81  2
       a = 13.750      CL =  1.3343
      Cm = -0.0246     CD =  0.05673   =>   CDf =  0.00612    CDp =  0.05061

 Side 1  free  transition at x/c =  0.0233   26
 Side 2 forced transition at x/c =  1.0000   67

   4   rms: 0.1409E-04   max: 0.1367E-03   D at   81  2
       a = 13.750      CL =  1.3343
      Cm = -0.0246     CD =  0.05673   =>   CDf =  0.00612    CDp =  0.05060
 plradd ia,ip,cpol           45           0 -3.35796212E-04

 Point added to stored polar  1
 Point written to save file  vr5_Re300k.base.pol                             
 Dump file unspecified or not available
 Calculating wake trajectory ...
 Calculating source influence matrix ...

 Solving BL system ...

 Side 1  free  transition at x/c =  0.0233   26
 Side 2 forced transition at x/c =  1.0000   67

   1   rms: 0.3122E-01   max: 0.1052E+00   T at   26  1   RLX: 0.828
       a = 14.000      CL =  1.3420
      Cm = -0.0242     CD =  0.05864   =>   CDf =  0.00613    CDp =  0.05251

 Side 1  free  transition at x/c =  0.0229   26
 Side 2 forced transition at x/c =  1.0000   67

   2   rms: 0.6715E-02   max: 0.2293E-01   D at   82  2
       a = 14.000      CL =  1.3409
      Cm = -0.0240     CD =  0.05906   =>   CDf =  0.00603    CDp =  0.05303

 Side 1  free  transition at x/c =  0.0228   26
 Side 2 forced transition at x/c =  1.0000   67

   3   rms: 0.1121E-02   max: 0.4622E-02   D at   82  2
       a = 14.000      CL =  1.3400
      Cm = -0.0240     CD =  0.05901   =>   CDf =  0.00600    CDp =  0.05301

 Side 1  free  transition at x/c =  0.0229   26
 Side 2 forced transition at x/c =  1.0000   67

   4   rms: 0.3901E-04   max: 0.3499E-03   D at   81  2
       a = 14.000      CL =  1.3400
      Cm = -0.0240     CD =  0.05899   =>   CDf =  0.00600    CDp =  0.05299
 plradd ia,ip,cpol           46           0 -3.35796212E-04

 Point added to stored polar  1
 Point written to save file  vr5_Re300k.base.pol                             
 Dump file unspecified or not available
 Calculating wake trajectory ...
 Calculating source influence matrix ...

 Solving BL system ...

 Side 1  free  transition at x/c =  0.0229   26
 Side 2 forced transition at x/c =  1.0000   67

   1   rms: 0.3135E-01   max: 0.9506E-01   T at   26  1   RLX: 0.796
       a = 14.250      CL =  1.3465
      Cm = -0.0236     CD =  0.06099   =>   CDf =  0.00600    CDp =  0.05498

 Side 1  free  transition at x/c =  0.0225   26
 Side 2 forced transition at x/c =  1.0000   67

   2   rms: 0.6455E-02   max: 0.2566E-01   D at   82  2
       a = 14.250      CL =  1.3448
      Cm = -0.0235     CD =  0.06155   =>   CDf =  0.00589    CDp =  0.05566

 Side 1  free  transition at x/c =  0.0224   26
 Side 2 forced transition at x/c =  1.0000   67

   3   rms: 0.7393E-03   max: 0.4220E-02   D at   82  2
       a = 14.250      CL =  1.3442
      Cm = -0.0234     CD =  0.06146   =>   CDf =  0.00587    CDp =  0.05560

 Side 1  free  transition at x/c =  0.0224   26
 Side 2 forced transition at x/c =  1.0000   67

   4   rms: 0.1963E-04   max: 0.1894E-03   D at   82  2
       a = 14.250      CL =  1.3442
      Cm = -0.0234     CD =  0.06145   =>   CDf =  0.00587    CDp =  0.05559
 plradd ia,ip,cpol           47           0 -3.35796212E-04

 Point added to stored polar  1
 Point written to save file  vr5_Re300k.base.pol                             
 Dump file unspecified or not available
 Calculating wake trajectory ...
 Calculating source influence matrix ...

 Solving BL system ...

 Side 1  free  transition at x/c =  0.0224   26
 Side 2 forced transition at x/c =  1.0000   67

   1   rms: 0.3090E-01   max: 0.9698E-01   T at   26  1   RLX: 0.765
       a = 14.500      CL =  1.3495
      Cm = -0.0231     CD =  0.06352   =>   CDf =  0.00542    CDp =  0.05810

 Side 1  free  transition at x/c =  0.0221   27
 Side 2 forced transition at x/c =  1.0000   66

   2   rms: 0.7091E-02   max: 0.2795E-01   D at   81  2
       a = 14.500      CL =  1.3480
      Cm = -0.0230     CD =  0.06415   =>   CDf =  0.00575    CDp =  0.05840

 Side 1  free  transition at x/c =  0.0220   27
 Side 2 forced transition at x/c =  1.0000   66

   3   rms: 0.1226E-02   max: -.1103E-01   D at    4  1
       a = 14.500      CL =  1.3473
      Cm = -0.0230     CD =  0.06406   =>   CDf =  0.00573    CDp =  0.05833

 Side 1  free  transition at x/c =  0.0220   27
 Side 2 forced transition at x/c =  1.0000   66

   4   rms: 0.2521E-04   max: 0.2990E-03   D at   81  2
       a = 14.500      CL =  1.3473
      Cm = -0.0230     CD =  0.06405   =>   CDf =  0.00573    CDp =  0.05832
 plradd ia,ip,cpol           48           0 -3.35796212E-04

 Point added to stored polar  1
 Point written to save file  vr5_Re300k.base.pol                             
 Dump file unspecified or not available
 Calculating wake trajectory ...
 Calculating source influence matrix ...

 Solving BL system ...

 Side 1  free  transition at x/c =  0.0220   27
 Side 2 forced transition at x/c =  1.0000   66

   1   rms: 0.3067E-01   max: 0.9727E-01   T at   27  1   RLX: 0.735
       a = 14.750      CL =  1.3517
      Cm = -0.0228     CD =  0.06616   =>   CDf =  0.00573    CDp =  0.06043

 Side 1  free  transition at x/c =  0.0217   27
 Side 2 forced transition at x/c =  1.0000   66

   2   rms: 0.7242E-02   max: 0.2772E-01   D at   81  2
       a = 14.750      CL =  1.3500
      Cm = -0.0227     CD =  0.06692   =>   CDf =  0.00563    CDp =  0.06128

 Side 1  free  transition at x/c =  0.0216   27
 Side 2 forced transition at x/c =  1.0000   66

   3   rms: 0.6110E-03   max: 0.3507E-02   D at   81  2
       a = 14.750      CL =  1.3495
      Cm = -0.0227     CD =  0.06679   =>   CDf =  0.00561    CDp =  0.06118

 Side 1  free  transition at x/c =  0.0216   27
 Side 2 forced transition at x/c =  1.0000   66

   4   rms: 0.3146E-04   max: -.1515E-03   D at   68  1
       a = 14.750      CL =  1.3495
      Cm = -0.0227     CD =  0.06678   =>   CDf =  0.00561    CDp =  0.06117
 plradd ia,ip,cpol           49           0 -3.35796212E-04

 Point added to stored polar  1
 Point written to save file  vr5_Re300k.base.pol                             
 Dump file unspecified or not available
 Calculating wake trajectory ...
 Calculating source influence matrix ...

 Solving BL system ...

 Side 1  free  transition at x/c =  0.0216   27
 Side 2 forced transition at x/c =  1.0000   66

   1   rms: 0.3059E-01   max: 0.1213E+00   T at   27  1   RLX: 0.707
       a = 15.000      CL =  1.3532
      Cm = -0.0226     CD =  0.06895   =>   CDf =  0.00562    CDp =  0.06333

 Side 1  free  transition at x/c =  0.0213   27
 Side 2 forced transition at x/c =  1.0000   66

   2   rms: 0.7269E-02   max: 0.2937E-01   T at   27  1
       a = 15.000      CL =  1.3522
      Cm = -0.0224     CD =  0.06970   =>   CDf =  0.00554    CDp =  0.06416

 Side 1  free  transition at x/c =  0.0212   27
 Side 2 forced transition at x/c =  1.0000   66

   3   rms: 0.8008E-03   max: 0.4081E-02   D at   82  2
       a = 15.000      CL =  1.3516
      Cm = -0.0223     CD =  0.06961   =>   CDf =  0.00552    CDp =  0.06409

 Side 1  free  transition at x/c =  0.0212   27
 Side 2 forced transition at x/c =  1.0000   66

   4   rms: 0.3478E-04   max: -.1069E-03   D at   65  1
       a = 15.000      CL =  1.3516
      Cm = -0.0223     CD =  0.06960   =>   CDf =  0.00552    CDp =  0.06408
 plradd ia,ip,cpol           50           0 -3.35796212E-04

 Point added to stored polar  1
 Point written to save file  vr5_Re300k.base.pol                             
 Dump file unspecified or not available
 Calculating wake trajectory ...
 Calculating source influence matrix ...

 Solving BL system ...

 Side 1  free  transition at x/c =  0.0212   27
 Side 2 forced transition at x/c =  1.0000   66

   1   rms: 0.3321E-01   max: 0.1529E+00   T at   27  1   RLX: 0.682
       a = 15.250      CL =  1.3556
      Cm = -0.0221     CD =  0.07172   =>   CDf =  0.00552    CDp =  0.06620

 Side 1  free  transition at x/c =  0.0208   27
 Side 2 forced transition at x/c =  1.0000   66

   2   rms: 0.1096E-01   max: 0.4622E-01   T at   27  1
       a = 15.250      CL =  1.3536
      Cm = -0.0216     CD =  0.07298   =>   CDf =  0.00544    CDp =  0.06755

 Side 1  free  transition at x/c =  0.0207   27
 Side 2 forced transition at x/c =  1.0000   66

   3   rms: 0.2844E-02   max: -.7889E-02   T at   27  1
       a = 15.250      CL =  1.3517
      Cm = -0.0217     CD =  0.07302   =>   CDf =  0.00539    CDp =  0.06762

 Side 1  free  transition at x/c =  0.0207   27
 Side 2 forced transition at x/c =  1.0000   66

   4   rms: 0.3276E-03   max: 0.1210E-02   T at   27  1
       a = 15.250      CL =  1.3519
      Cm = -0.0217     CD =  0.07297   =>   CDf =  0.00540    CDp =  0.06758

 Side 1  free  transition at x/c =  0.0207   27
 Side 2 forced transition at x/c =  1.0000   66

   5   rms: 0.3650E-04   max: -.1270E-03   T at   68  1
       a = 15.250      CL =  1.3518
      Cm = -0.0217     CD =  0.07298   =>   CDf =  0.00540    CDp =  0.06758
 plradd ia,ip,cpol           51           0 -5.27633762E-04

 Point added to stored polar  1
 Point written to save file  vr5_Re300k.base.pol                             
 Dump file unspecified or not available
 Calculating wake trajectory ...
 Calculating source influence matrix ...

 Solving BL system ...

 Side 1  free  transition at x/c =  0.0207   27
 Side 2 forced transition at x/c =  1.0000   66

   1   rms: 0.5100E-01   max: 0.1908E+00   T at   27  1   RLX: 0.654
       a = 15.500      CL =  1.3538
      Cm = -0.0209     CD =  0.07593   =>   CDf =  0.00540    CDp =  0.07053

 Side 1  free  transition at x/c =  0.0204   26
 Side 2 forced transition at x/c =  1.0000   66

   2   rms: 0.2072E-01   max: 0.9007E-01   D at   68  1
       a = 15.500      CL =  1.3429
      Cm = -0.0214     CD =  0.07850   =>   CDf =  0.00520    CDp =  0.07330

 Side 1  free  transition at x/c =  0.0204   26
 Side 2 forced transition at x/c =  1.0000   66

   3   rms: 0.1780E-02   max: 0.1444E-01   D at   67  1
       a = 15.500      CL =  1.3418
      Cm = -0.0213     CD =  0.07801   =>   CDf =  0.00516    CDp =  0.07285

 Side 1  free  transition at x/c =  0.0204   26
 Side 2 forced transition at x/c =  1.0000   66

   4   rms: 0.3966E-04   max: 0.3969E-03   D at   82  2
       a = 15.500      CL =  1.3418
      Cm = -0.0213     CD =  0.07798   =>   CDf =  0.00516    CDp =  0.07282
 plradd ia,ip,cpol           52           0 -5.27633762E-04

 Point added to stored polar  1
 Point written to save file  vr5_Re300k.base.pol                             
 Dump file unspecified or not available
 Calculating wake trajectory ...
 Calculating source influence matrix ...

 Solving BL system ...

 Side 1  free  transition at x/c =  0.0204   26
 Side 2 forced transition at x/c =  1.0000   66

   1   rms: 0.3323E-01   max: 0.1238E+00   D at   62  1   RLX: 0.614
       a = 15.750      CL =  1.3363
      Cm = -0.0222     CD =  0.08110   =>   CDf =  0.00516    CDp =  0.07594

 Side 1  free  transition at x/c =  0.0203   26
 Side 2 forced transition at x/c =  1.0000   66

   2   rms: 0.1352E-01   max: 0.5998E-01   D at   66  1
       a = 15.750      CL =  1.3314
      Cm = -0.0226     CD =  0.08278   =>   CDf =  0.00502    CDp =  0.07776

 Side 1  free  transition at x/c =  0.0202   26
 Side 2 forced transition at x/c =  1.0000   66

   3   rms: 0.1444E-02   max: 0.9383E-02   D at   65  1
       a = 15.750      CL =  1.3303
      Cm = -0.0225     CD =  0.08245   =>   CDf =  0.00494    CDp =  0.07752

 Side 1  free  transition at x/c =  0.0203   26
 Side 2 forced transition at x/c =  1.0000   66

   4   rms: 0.2988E-04   max: 0.3321E-03   D at   83  2
       a = 15.750      CL =  1.3303
      Cm = -0.0225     CD =  0.08243   =>   CDf =  0.00494    CDp =  0.07749
 plradd ia,ip,cpol           53           0 -5.27633762E-04

 Point added to stored polar  1
 Point written to save file  vr5_Re300k.base.pol                             
 Dump file unspecified or not available
 Calculating wake trajectory ...
 Calculating source influence matrix ...

 Solving BL system ...

 Side 1  free  transition at x/c =  0.0203   26
 Side 2 forced transition at x/c =  1.0000   66

   1   rms: 0.3416E-01   max: 0.1305E+00   D at   60  1   RLX: 0.585
       a = 16.000      CL =  1.3250
      Cm = -0.0235     CD =  0.08578   =>   CDf =  0.00494    CDp =  0.08084

 Side 1  free  transition at x/c =  0.0202   26
 Side 2 forced transition at x/c =  1.0000   66

   2   rms: 0.1513E-01   max: 0.6061E-01   D at   64  1
       a = 16.000      CL =  1.3194
      Cm = -0.0242     CD =  0.08779   =>   CDf =  0.00480    CDp =  0.08299

 Side 1  free  transition at x/c =  0.0201   26
 Side 2 forced transition at x/c =  1.0000   66

   3   rms: 0.1742E-02   max: 0.1123E-01   D at   83  2
       a = 16.000      CL =  1.3181
      Cm = -0.0240     CD =  0.08737   =>   CDf =  0.00471    CDp =  0.08266

 Side 1  free  transition at x/c =  0.0201   26
 Side 2 forced transition at x/c =  1.0000   66

   4   rms: 0.5021E-04   max: 0.5673E-03   D at   83  2
       a = 16.000      CL =  1.3181
      Cm = -0.0240     CD =  0.08734   =>   CDf =  0.00472    CDp =  0.08262
 plradd ia,ip,cpol           54           0 -5.27633762E-04

 Point added to stored polar  1
 Point written to save file  vr5_Re300k.base.pol                             
 Dump file unspecified or not available

.OPERva   c>  
 Polar accumulation disabled

.OPERv   c>  
 XFOIL   c>  
 XFOIL   c>  