  
       XFOIL         Version 6.99
  
 Calculated polar for: WASP (smoothed)                                 
  
 1 1 Reynolds number fixed          Mach number fixed         
  
 xtrf =   1.000 (top)        1.000 (bottom)  
 Mach =   0.000     Re =     0.400 e 6     Ncrit =   9.000
  
   alpha    CL        CD       CDp       CM     Top_Xtr  Bot_Xtr
  ------ -------- --------- --------- -------- -------- --------
  -4.000  -0.1419   0.01219   0.00590  -0.0645   0.9603   0.0374
  -3.500  -0.0625   0.01082   0.00447  -0.0694   0.9531   0.0469
  -3.000   0.0091   0.00990   0.00350  -0.0725   0.9373   0.0635
  -2.500   0.0696   0.00913   0.00284  -0.0731   0.9132   0.1053
  -2.000   0.1250   0.00841   0.00246  -0.0728   0.8850   0.2117
  -1.500   0.1768   0.00772   0.00221  -0.0718   0.8527   0.3799
  -1.000   0.2230   0.00709   0.00210  -0.0694   0.8168   0.5871
   0.000   0.4016   0.00641   0.00192  -0.0833   0.7356   1.0000
   0.500   0.4509   0.00666   0.00187  -0.0815   0.6912   1.0000
   1.000   0.4998   0.00694   0.00188  -0.0797   0.6468   1.0000
   1.500   0.5484   0.00726   0.00195  -0.0779   0.6025   1.0000
   2.000   0.5971   0.00761   0.00206  -0.0761   0.5602   1.0000
   2.500   0.6460   0.00799   0.00224  -0.0745   0.5221   1.0000
   3.000   0.6954   0.00836   0.00245  -0.0730   0.4872   1.0000
   3.500   0.7448   0.00874   0.00271  -0.0715   0.4547   1.0000
   4.000   0.7942   0.00915   0.00300  -0.0701   0.4245   1.0000
   4.500   0.8435   0.00957   0.00336  -0.0687   0.3951   1.0000
   5.000   0.8924   0.01003   0.00374  -0.0672   0.3658   1.0000
   5.500   0.9410   0.01052   0.00419  -0.0657   0.3371   1.0000
   6.000   0.9889   0.01107   0.00468  -0.0642   0.3074   1.0000
   6.500   1.0358   0.01170   0.00523  -0.0626   0.2733   1.0000
   7.000   1.0816   0.01241   0.00583  -0.0608   0.2342   1.0000
   7.500   1.1268   0.01319   0.00654  -0.0591   0.2016   1.0000
   8.000   1.1708   0.01407   0.00734  -0.0572   0.1701   1.0000
   8.500   1.2139   0.01502   0.00824  -0.0552   0.1350   1.0000
   9.000   1.2435   0.01720   0.00989  -0.0514   0.0555   1.0000
   9.500   1.2720   0.01940   0.01206  -0.0472   0.0320   1.0000
  10.000   1.2978   0.02156   0.01436  -0.0427   0.0258   1.0000
  10.000   1.2978   0.02156   0.01436  -0.0427   0.0258   1.0000
  10.250   1.3123   0.02242   0.01530  -0.0407   0.0238   1.0000
  10.500   1.3241   0.02341   0.01635  -0.0385   0.0222   1.0000
  10.750   1.3260   0.02483   0.01784  -0.0347   0.0210   1.0000
  11.000   1.3244   0.02647   0.01960  -0.0307   0.0201   1.0000
  11.250   1.3322   0.02758   0.02082  -0.0283   0.0196   1.0000
  11.500   1.3379   0.02891   0.02228  -0.0258   0.0189   1.0000
  11.750   1.3428   0.03038   0.02386  -0.0236   0.0182   1.0000
  12.000   1.3473   0.03196   0.02553  -0.0217   0.0175   1.0000
  12.250   1.3510   0.03371   0.02736  -0.0201   0.0168   1.0000
  12.500   1.3525   0.03576   0.02949  -0.0186   0.0163   1.0000
  12.750   1.3497   0.03839   0.03222  -0.0172   0.0157   1.0000
  13.000   1.3418   0.04177   0.03571  -0.0157   0.0153   1.0000
  13.250   1.3404   0.04460   0.03867  -0.0148   0.0150   1.0000
  13.500   1.3421   0.04715   0.04137  -0.0144   0.0147   1.0000
  13.750   1.3423   0.04998   0.04434  -0.0142   0.0145   1.0000
  14.000   1.3410   0.05305   0.04756  -0.0141   0.0142   1.0000
  14.250   1.3387   0.05635   0.05102  -0.0142   0.0140   1.0000
  14.500   1.3351   0.05988   0.05470  -0.0145   0.0137   1.0000
  14.750   1.3305   0.06363   0.05859  -0.0151   0.0135   1.0000
  15.000   1.3249   0.06762   0.06272  -0.0159   0.0133   1.0000
  15.250   1.3186   0.07180   0.06704  -0.0169   0.0131   1.0000
  15.500   1.3117   0.07620   0.07157  -0.0182   0.0129   1.0000
  15.750   1.3036   0.08095   0.07646  -0.0199   0.0127   1.0000
  16.000   1.2947   0.08594   0.08159  -0.0218   0.0126   1.0000
