  
       XFOIL         Version 6.99
  
 Calculated polar for: WB-140/35/FB 14%                                
  
 1 1 Reynolds number fixed          Mach number fixed         
  
 xtrf =   1.000 (top)        1.000 (bottom)  
 Mach =   0.000     Re =     0.300 e 6     Ncrit =   9.000
  
   alpha    CL        CD       CDp       CM     Top_Xtr  Bot_Xtr
  ------ -------- --------- --------- -------- -------- --------
-4.000   0.0068   0.01445   0.00684  -0.0903   0.8077   0.1305
-3.500   0.0632   0.01430   0.00649  -0.0907   0.8023   0.1477
-3.000   0.1216   0.01488   0.00712  -0.0911   0.7965   0.1611
-2.000   0.2323   0.01413   0.00598  -0.0919   0.7824   0.2039
-1.500   0.2857   0.01303   0.00509  -0.0922   0.7742   0.2135
-1.000   0.3395   0.01226   0.00446  -0.0923   0.7670   0.2221
-0.500   0.3935   0.01185   0.00437  -0.0927   0.7599   0.2403
0.000   0.4499   0.01176   0.00432  -0.0932   0.7528   0.2645
0.500   0.5055   0.01171   0.00432  -0.0934   0.7431   0.2791
1.000   0.5606   0.01160   0.00428  -0.0934   0.7289   0.3217
1.500   0.6140   0.01135   0.00448  -0.0934   0.7158   0.4818
2.000   0.6679   0.01128   0.00474  -0.0934   0.7046   0.6031
2.500   0.7139   0.01088   0.00509  -0.0912   0.6931   0.8278
3.000   0.7672   0.01078   0.00525  -0.0905   0.6794   0.9098
3.500   0.8282   0.01056   0.00519  -0.0917   0.6615   0.9664
4.000   0.8919   0.01029   0.00506  -0.0938   0.6361   0.9984
4.500   0.9419   0.01013   0.00482  -0.0926   0.6055   1.0000
5.000   0.9876   0.01044   0.00499  -0.0908   0.5579   1.0000
5.500   1.0248   0.01127   0.00543  -0.0876   0.4862   1.0000
6.000   1.0564   0.01249   0.00624  -0.0836   0.4173   1.0000
6.500   1.0904   0.01354   0.00709  -0.0803   0.3595   1.0000
7.000   1.1196   0.01473   0.00803  -0.0762   0.3103   1.0000
7.500   1.1443   0.01596   0.00910  -0.0714   0.2723   1.0000
8.000   1.1682   0.01740   0.01040  -0.0669   0.2426   1.0000
8.500   1.1958   0.01880   0.01164  -0.0633   0.1933   1.0000
9.000   1.2066   0.02145   0.01380  -0.0580   0.1143   1.0000
9.500   1.1990   0.02577   0.01753  -0.0513   0.0263   1.0000
10.000   1.2210   0.02820   0.02015  -0.0482   0.0228   1.0000
10.250   1.2292   0.02967   0.02173  -0.0465   0.0214   1.0000
10.500   1.2335   0.03150   0.02369  -0.0447   0.0201   1.0000
10.750   1.2394   0.03323   0.02553  -0.0431   0.0196   1.0000
11.000   1.2447   0.03505   0.02746  -0.0416   0.0192   1.0000
11.250   1.2484   0.03706   0.02960  -0.0401   0.0188   1.0000
11.500   1.2508   0.03925   0.03191  -0.0387   0.0185   1.0000
11.750   1.2519   0.04157   0.03434  -0.0374   0.0182   1.0000
12.000   1.2524   0.04399   0.03686  -0.0360   0.0179   1.0000
12.250   1.2521   0.04651   0.03948  -0.0347   0.0177   1.0000
12.500   1.2517   0.04911   0.04218  -0.0335   0.0175   1.0000
12.750   1.2515   0.05174   0.04490  -0.0324   0.0173   1.0000
13.000   1.2519   0.05437   0.04762  -0.0313   0.0171   1.0000
13.250   1.2528   0.05698   0.05031  -0.0304   0.0168   1.0000
13.500   1.2546   0.05955   0.05296  -0.0295   0.0165   1.0000
13.750   1.2567   0.06212   0.05560  -0.0287   0.0161   1.0000
14.000   1.2593   0.06464   0.05820  -0.0280   0.0158   1.0000
14.250   1.2628   0.06706   0.06067  -0.0271   0.0154   1.0000
14.500   1.2684   0.06924   0.06292  -0.0261   0.0152   1.0000
14.750   1.2753   0.07133   0.06509  -0.0251   0.0151   1.0000
15.000   1.2826   0.07345   0.06731  -0.0241   0.0151   1.0000
15.250   1.2892   0.07571   0.06969  -0.0232   0.0151   1.0000
15.500   1.2943   0.07824   0.07236  -0.0225   0.0151   1.0000
15.750   1.2976   0.08111   0.07540  -0.0220   0.0153   1.0000
16.000   1.2997   0.08425   0.07876  -0.0216   0.0157   1.0000
16.250   1.0788   0.09245   0.08754  -0.0106   0.0157   1.0000
16.500   1.0715   0.09504   0.09029  -0.0102   0.0158   1.0000
16.750   1.0594   0.09754   0.09297  -0.0099   0.0160   1.0000
17.000   1.0453   0.10086   0.09650  -0.0103   0.0162   1.0000
17.250   1.0315   0.10441   0.10025  -0.0110   0.0165   1.0000
17.500   1.0160   0.10838   0.10443  -0.0122   0.0169   1.0000
17.750   0.9988   0.11276   0.10901  -0.0139   0.0173   1.0000
18.000   0.9800   0.11751   0.11396  -0.0161   0.0176   1.0000
18.250   0.9599   0.12267   0.11930  -0.0186   0.0180   1.0000
18.750   0.9170   0.13402   0.13099  -0.0249   0.0186   1.0000
19.250   0.8683   0.14740   0.14466  -0.0328   0.0192   1.0000
19.750   0.7493   0.18146   0.17920  -0.0500   0.0277   1.0000
20.750   0.6948   0.21505   0.21271  -0.0625   0.0379   1.0000
21.250   0.7086   0.21839   0.21609  -0.0632   0.0352   1.0000
21.750   0.7005   0.22801   0.22568  -0.0676   0.0323   1.0000
22.250   0.7042   0.23411   0.23179  -0.0703   0.0287   1.0000
