
 ===================================================
  XFOIL Version 6.99
  Copyright (C) 2000   Mark Drela, Harold Youngren

  This software comes with ABSOLUTELY NO WARRANTY,
    subject to the GNU General Public License.

  Caveat computor
 ===================================================

 File  xfoil.def  not found

   QUIT    Exit program

  .OPER    Direct operating point(s)
  .MDES    Complex mapping design routine
  .QDES    Surface speed design routine
  .GDES    Geometry design routine

   SAVE f  Write airfoil to labeled coordinate file
   PSAV f  Write airfoil to plain coordinate file
   ISAV f  Write airfoil to ISES coordinate file
   MSAV f  Write airfoil to MSES coordinate file
   REVE    Reverse written-airfoil node ordering

   LOAD f  Read buffer airfoil from coordinate file
   NACA i  Set NACA 4,5-digit airfoil and buffer airfoil
   INTE    Set buffer airfoil by interpolating two airfoils
   NORM    Buffer airfoil normalization toggle
   XYCM rr Change CM reference location, currently  0.25000 0.00000

   BEND    Display structural properties of current airfoil

   PCOP    Set current-airfoil panel nodes directly from buffer airfoil points
   PANE    Set current-airfoil panel nodes ( 160 ) based on curvature
  .PPAR    Show/change paneling

  .PLOP    Plotting options

   WDEF f  Write  current-settings file
   RDEF f  Reread current-settings file
   NAME s  Specify new airfoil name
   NINC    Increment name version number

   Z       Zoom    | (available in all menus)
   U       Unzoom  | 

 XFOIL   c>  
 Labeled airfoil file.  Name:  YS-930                                          

 Number of input coordinate points: 121
 Counterclockwise ordering
 Max thickness =     0.090909  at x =   0.350
 Max camber    =     0.030300  at x =   0.592

  LE  x,y  =   0.00001  -0.00006  |   Chord =   0.99999
  TE  x,y  =   1.00000   0.00000  |

 Current airfoil nodes set from buffer airfoil nodes ( 121 )

 WARNING: Poor input coordinate distribution
          Excessive panel angle   43.3  at i =  63
          Repaneling with PANE and/or PPAR suggested
           (doing GDES,CADD before repaneling _may_
            improve excessively coarse LE spacing

 XFOIL   c>  
 XFOIL   c>  
 Sharp trailing edge

 Paneling parameters used...
   Number of panel nodes       160
   Panel bunching parameter    1.000
   TE/LE panel density ratio   0.150
   Refined-area/LE panel density ratio    0.200
   Top    side refined area x/c limits  1.000 1.000
   Bottom side refined area x/c limits  1.000 1.000

 XFOIL   c>  
.OPERi   c>  
 Xtr/c     =  1.0000    top    side
 Xtr/c     =  1.0000    bottom side
 Ncrit     =    9.00   ( 0.070 % turb. level )
 Vacc      =  0.0100

 Klag  =  5.6000     Uxwt  =    1.00
 A     =  6.7000     B     =  0.7500       KCt = 0.01485
 CtiniK=  1.8000     CtiniX=  3.3000

..VPAR   c>  
..VPAR   c>  
.OPERi   c>  
 M  =    0.0000
 Re =    400000

.OPERv   c>  
.OPERv   c>  
.OPERv   c>  
 Polar  1 newly created for accumulation
 Airfoil archived with polar: YS-930                                          

Enter  polar save filename  OR  <return> for no file   s>  
 New polar save file available

Enter  polar dump filename  OR  <return> for no file   s>  
 Polar dump file will NOT be written

 Polar accumulation enabled

.OPERva   c>   Calculating unit vorticity distributions ...
 Calculating wake trajectory ...
 Calculating source influence matrix ...

 Solving BL system ...

 Initializing BL ...
    side            1  ...
 MRCHUE: Inverse mode at  59     Hk =   3.983
 MRCHUE: Inverse mode at  60     Hk =   4.494
 MRCHUE: Inverse mode at  61     Hk =   4.994
 MRCHUE: Inverse mode at  62     Hk =   5.487
 MRCHUE: Inverse mode at  63     Hk =   5.975
 MRCHUE: Inverse mode at  64     Hk =   6.456
 MRCHUE: Inverse mode at  65     Hk =   6.934
 MRCHUE: Inverse mode at  66     Hk =   7.408
 MRCHUE: Inverse mode at  67     Hk =   7.878
 MRCHUE: Inverse mode at  68     Hk =   8.345
 MRCHUE: Inverse mode at  69     Hk =   8.809
 MRCHUE: Inverse mode at  70     Hk =   9.269
 MRCHUE: Inverse mode at  71     Hk =   9.728
 MRCHUE: Inverse mode at  72     Hk =   9.179
 MRCHUE: Inverse mode at  73     Hk =   7.287
 MRCHUE: Inverse mode at  74     Hk =   6.052
 MRCHUE: Inverse mode at  75     Hk =   5.136
 MRCHUE: Inverse mode at  76     Hk =   4.403
 MRCHUE: Inverse mode at  77     Hk =   3.781
 MRCHUE: Inverse mode at  78     Hk =   3.291
 MRCHUE: Inverse mode at  79     Hk =   3.073
    side            2  ...
 MRCHUE: Inverse mode at   8     Hk =   4.742
 MRCHUE: Inverse mode at   9     Hk =   7.194
 MRCHUE: Inverse mode at  10     Hk =   9.493
 MRCHUE: Inverse mode at  11     Hk =   6.696
 MRCHUE: Inverse mode at  12     Hk =   2.500

 Side 1  free  transition at x/c =  0.9136   72
 Side 2  free  transition at x/c =  0.0375   11

   1   rms: 0.1807E+00   max: -.1761E+01   T at   11  2   RLX: 0.284
       a = -4.000      CL = -0.0368
      Cm = -0.1161     CD =  0.01111   =>   CDf =  0.00672    CDp =  0.00439

 Side 1  free  transition at x/c =  0.9105   72
 Side 2  free  transition at x/c =  0.0516   12

   2   rms: 0.5246E+00   max: -.1058E+02   C at   12  2   RLX: 0.047
       a = -4.000      CL = -0.0390
      Cm = -0.1155     CD =  0.01089   =>   CDf =  0.00684    CDp =  0.00405

 Side 1  free  transition at x/c =  0.9104   72
 Side 2  free  transition at x/c =  0.0546   13

   3   rms: 0.6237E+00   max: -.8092E+01   C at   13  2   RLX: 0.062
       a = -4.000      CL = -0.0404
      Cm = -0.1145     CD =  0.01082   =>   CDf =  0.00690    CDp =  0.00392

 MRCHDU: Convergence failed at  23  side 2    Res =  0.8368E+02
 Side 1  free  transition at x/c =  0.9103   72
 Side 2  free  transition at x/c =  0.1931   23

   4   rms: 0.2216E+00   max: 0.2041E+01   D at   23  2   RLX: 0.426
       a = -4.000      CL = -0.0475
      Cm = -0.1124     CD =  0.01037   =>   CDf =  0.00622    CDp =  0.00415

 MRCHDU: Convergence failed at  25  side 2    Res =  0.1362E+01
 MRCHDU: Convergence failed at  26  side 2    Res =  0.2827E+01
 MRCHDU: Convergence failed at  27  side 2    Res =  0.1334E+01
 MRCHDU: Convergence failed at  28  side 2    Res =  0.2442E+01
 MRCHDU: Convergence failed at  29  side 2    Res =  0.3083E+01
 MRCHDU: Convergence failed at  30  side 2    Res =  0.3385E+01
 MRCHDU: Convergence failed at  31  side 2    Res =  0.3414E+01
 MRCHDU: Convergence failed at  32  side 2    Res =  0.3314E+01
 MRCHDU: Convergence failed at  33  side 2    Res =  0.3187E+01
 MRCHDU: Convergence failed at  34  side 2    Res =  0.3075E+01
 MRCHDU: Convergence failed at  35  side 2    Res =  0.2981E+01
 MRCHDU: Convergence failed at  36  side 2    Res =  0.2908E+01
 MRCHDU: Convergence failed at  37  side 2    Res =  0.2852E+01
 MRCHDU: Convergence failed at  38  side 2    Res =  0.2786E+01
 MRCHDU: Convergence failed at  39  side 2    Res =  0.2226E+01
 MRCHDU: Convergence failed at  40  side 2    Res =  0.2345E+01
 MRCHDU: Convergence failed at  41  side 2    Res =  0.2473E+01
 MRCHDU: Convergence failed at  42  side 2    Res =  0.2598E+01
 MRCHDU: Convergence failed at  43  side 2    Res =  0.2720E+01
 MRCHDU: Convergence failed at  44  side 2    Res =  0.2842E+01
 MRCHDU: Convergence failed at  45  side 2    Res =  0.2960E+01
 MRCHDU: Convergence failed at  46  side 2    Res =  0.3096E+01
 MRCHDU: Convergence failed at  47  side 2    Res =  0.3234E+01
 MRCHDU: Convergence failed at  48  side 2    Res =  0.3354E+01
 MRCHDU: Convergence failed at  49  side 2    Res =  0.3485E+01
 MRCHDU: Convergence failed at  50  side 2    Res =  0.3606E+01
 MRCHDU: Convergence failed at  51  side 2    Res =  0.3746E+01
 MRCHDU: Convergence failed at  52  side 2    Res =  0.3869E+01
 MRCHDU: Convergence failed at  53  side 2    Res =  0.3587E+01
 MRCHDU: Convergence failed at  54  side 2    Res =  0.2830E+01
 MRCHDU: Convergence failed at  55  side 2    Res =  0.2930E+01
 MRCHDU: Convergence failed at  56  side 2    Res =  0.3044E+01
 MRCHDU: Convergence failed at  57  side 2    Res =  0.3146E+01
 MRCHDU: Convergence failed at  58  side 2    Res =  0.3253E+01
 MRCHDU: Convergence failed at  59  side 2    Res =  0.3359E+01
 MRCHDU: Convergence failed at  60  side 2    Res =  0.3463E+01
 MRCHDU: Convergence failed at  61  side 2    Res =  0.3573E+01
 MRCHDU: Convergence failed at  62  side 2    Res =  0.3696E+01
 MRCHDU: Convergence failed at  63  side 2    Res =  0.3805E+01
 MRCHDU: Convergence failed at  64  side 2    Res =  0.3928E+01
 MRCHDU: Convergence failed at  65  side 2    Res =  0.4053E+01
 MRCHDU: Convergence failed at  66  side 2    Res =  0.4186E+01
 MRCHDU: Convergence failed at  67  side 2    Res =  0.4319E+01
 MRCHDU: Convergence failed at  68  side 2    Res =  0.4440E+01
 MRCHDU: Convergence failed at  69  side 2    Res =  0.4610E+01
 MRCHDU: Convergence failed at  70  side 2    Res =  0.4728E+01
 MRCHDU: Convergence failed at  71  side 2    Res =  0.4895E+01
 MRCHDU: Convergence failed at  72  side 2    Res =  0.5068E+01
 MRCHDU: Convergence failed at  73  side 2    Res =  0.5297E+01
 MRCHDU: Convergence failed at  74  side 2    Res =  0.5436E+01
 MRCHDU: Convergence failed at  75  side 2    Res =  0.5678E+01
 MRCHDU: Convergence failed at  76  side 2    Res =  0.5863E+01
 MRCHDU: Convergence failed at  77  side 2    Res =  0.6071E+01
 MRCHDU: Convergence failed at  78  side 2    Res =  0.6324E+01
 MRCHDU: Convergence failed at  79  side 2    Res =  0.6898E+01
 MRCHDU: Convergence failed at  80  side 2    Res =  0.8498E+01
 MRCHDU: Convergence failed at  81  side 2    Res =  0.1478E+02
 MRCHDU: Convergence failed at  82  side 2    Res =  0.1983E+03
 MRCHDU: Convergence failed at  83  side 2    Res =  0.1247E+02
 Side 1  free  transition at x/c =  0.9117   72
 Side 2  free  transition at x/c =  0.5897   53

   5   rms: 0.4430E+00   max: 0.3074E+01   C at   53  2   RLX: 0.315
       a = -4.000      CL = -0.3568
      Cm =  0.0137     CD =  0.00597   =>   CDf =  0.00459    CDp =  0.00139

 Side 1  free  transition at x/c =  0.9122   72
 Side 2  free  transition at x/c =  0.4932   45

   6   rms: 0.1115E+01   max: 0.1974E+02   C at   45  2   RLX: 0.076
       a = -4.000      CL = -0.3295
      Cm =  0.0023     CD =  0.00697   =>   CDf =  0.00641    CDp =  0.00056

 Side 1  free  transition at x/c =  0.9120   72
 Side 2  free  transition at x/c =  0.4293   41

   7   rms: 0.9033E+00   max: 0.1625E+02   C at   41  2   RLX: 0.092
       a = -4.000      CL = -0.3015
      Cm = -0.0088     CD =  0.00727   =>   CDf =  0.00659    CDp =  0.00068

 Side 1  free  transition at x/c =  0.9117   72
 Side 2  free  transition at x/c =  0.3775   37

   8   rms: 0.6498E+00   max: 0.1144E+02   C at   37  2   RLX: 0.131
       a = -4.000      CL = -0.2664
      Cm = -0.0228     CD =  0.00757   =>   CDf =  0.00668    CDp =  0.00089

 Side 1  free  transition at x/c =  0.9114   72
 Side 2  free  transition at x/c =  0.3311   33

   9   rms: 0.3378E+00   max: 0.5006E+01   C at   33  2   RLX: 0.300
       a = -4.000      CL = -0.1992
      Cm = -0.0498     CD =  0.00811   =>   CDf =  0.00673    CDp =  0.00138

 Side 1  free  transition at x/c =  0.9107   72
 Side 2  free  transition at x/c =  0.2821   30

  10   rms: 0.2100E+00   max: 0.1801E+01   C at   30  2   RLX: 0.704
       a = -4.000      CL = -0.0900
      Cm = -0.0925     CD =  0.00938   =>   CDf =  0.00663    CDp =  0.00275

 Side 1  free  transition at x/c =  0.9101   72
 Side 2  free  transition at x/c =  0.2507   27

  11   rms: 0.6344E-01   max: 0.4588E+00   D at   29  2
       a = -4.000      CL = -0.0417
      Cm = -0.1106     CD =  0.01024   =>   CDf =  0.00631    CDp =  0.00393

 Side 1  free  transition at x/c =  0.9098   72
 Side 2  free  transition at x/c =  0.2393   27

  12   rms: 0.8685E-02   max: -.1188E+00   D at   28  2
       a = -4.000      CL = -0.0401
      Cm = -0.1108     CD =  0.01045   =>   CDf =  0.00618    CDp =  0.00427

 Side 1  free  transition at x/c =  0.9099   72
 Side 2  free  transition at x/c =  0.2397   27

  13   rms: 0.3330E-03   max: -.6834E-02   D at   28  2
       a = -4.000      CL = -0.0401
      Cm = -0.1108     CD =  0.01046   =>   CDf =  0.00618    CDp =  0.00428

 Side 1  free  transition at x/c =  0.9099   72
 Side 2  free  transition at x/c =  0.2397   27

  14   rms: 0.1785E-05   max: -.3867E-04   D at   28  2
       a = -4.000      CL = -0.0401
      Cm = -0.1108     CD =  0.01046   =>   CDf =  0.00618    CDp =  0.00428
 plradd ia,ip,cpol            1           0  4.04807768E-04

 Point added to stored polar  1
 Point written to save file  ys930_Re400k.base.pol                           
 Dump file unspecified or not available
 Calculating wake trajectory ...
 Calculating source influence matrix ...

 Solving BL system ...

 Side 1  free  transition at x/c =  0.9099   72
 Side 2  free  transition at x/c =  0.2397   27

   1   rms: 0.1419E+00   max: 0.1269E+01   D at   27  2   RLX: 0.484
       a = -3.500      CL = -0.0150
      Cm = -0.1108     CD =  0.01026   =>   CDf =  0.00618    CDp =  0.00408

 Side 1  free  transition at x/c =  0.9083   72
 Side 2  free  transition at x/c =  0.2501   27

   2   rms: 0.6693E-01   max: -.7571E+00   T at   27  2   RLX: 0.660
       a = -3.500      CL =  0.0082
      Cm = -0.1113     CD =  0.01131   =>   CDf =  0.00641    CDp =  0.00490

 Side 1  free  transition at x/c =  0.9074   72
 Side 2  free  transition at x/c =  0.2600   28

   3   rms: 0.2418E-01   max: 0.4008E+00   D at   28  2
       a = -3.500      CL =  0.0159
      Cm = -0.1113     CD =  0.01034   =>   CDf =  0.00619    CDp =  0.00415

 Side 1  free  transition at x/c =  0.9070   72
 Side 2  free  transition at x/c =  0.2641   28

   4   rms: 0.7063E-02   max: -.1007E+00   D at   29  2
       a = -3.500      CL =  0.0165
      Cm = -0.1114     CD =  0.01041   =>   CDf =  0.00626    CDp =  0.00415

 Side 1  free  transition at x/c =  0.9070   72
 Side 2  free  transition at x/c =  0.2648   28

   5   rms: 0.8360E-02   max: -.9498E-01   D at   28  2
       a = -3.500      CL =  0.0165
      Cm = -0.1114     CD =  0.01041   =>   CDf =  0.00629    CDp =  0.00412

 Side 1  free  transition at x/c =  0.9070   72
 Side 2  free  transition at x/c =  0.2649   28

   6   rms: 0.8114E-02   max: -.9170E-01   D at   28  2
       a = -3.500      CL =  0.0165
      Cm = -0.1114     CD =  0.01041   =>   CDf =  0.00629    CDp =  0.00412

 Side 1  free  transition at x/c =  0.9070   72
 Side 2  free  transition at x/c =  0.2649   28

   7   rms: 0.8127E-02   max: -.9189E-01   D at   28  2
       a = -3.500      CL =  0.0165
      Cm = -0.1114     CD =  0.01041   =>   CDf =  0.00629    CDp =  0.00412

 Side 1  free  transition at x/c =  0.9070   72
 Side 2  free  transition at x/c =  0.2649   28

   8   rms: 0.8126E-02   max: -.9188E-01   D at   28  2
       a = -3.500      CL =  0.0165
      Cm = -0.1114     CD =  0.01041   =>   CDf =  0.00629    CDp =  0.00412

 Side 1  free  transition at x/c =  0.9070   72
 Side 2  free  transition at x/c =  0.2649   28

   9   rms: 0.8126E-02   max: -.9188E-01   D at   28  2
       a = -3.500      CL =  0.0165
      Cm = -0.1114     CD =  0.01041   =>   CDf =  0.00629    CDp =  0.00412

 Side 1  free  transition at x/c =  0.9070   72
 Side 2  free  transition at x/c =  0.2649   28

  10   rms: 0.8126E-02   max: -.9188E-01   D at   28  2
       a = -3.500      CL =  0.0165
      Cm = -0.1114     CD =  0.01041   =>   CDf =  0.00629    CDp =  0.00412

 Side 1  free  transition at x/c =  0.9070   72
 Side 2  free  transition at x/c =  0.2649   28

  11   rms: 0.8126E-02   max: -.9188E-01   D at   28  2
       a = -3.500      CL =  0.0165
      Cm = -0.1114     CD =  0.01041   =>   CDf =  0.00629    CDp =  0.00412

 Side 1  free  transition at x/c =  0.9070   72
 Side 2  free  transition at x/c =  0.2649   28

  12   rms: 0.8126E-02   max: -.9188E-01   D at   28  2
       a = -3.500      CL =  0.0165
      Cm = -0.1114     CD =  0.01041   =>   CDf =  0.00629    CDp =  0.00412

 Side 1  free  transition at x/c =  0.9070   72
 Side 2  free  transition at x/c =  0.2649   28

  13   rms: 0.8125E-02   max: -.9188E-01   D at   28  2
       a = -3.500      CL =  0.0165
      Cm = -0.1114     CD =  0.01041   =>   CDf =  0.00629    CDp =  0.00412

 Side 1  free  transition at x/c =  0.9070   72
 Side 2  free  transition at x/c =  0.2649   28

  14   rms: 0.8126E-02   max: -.9189E-01   D at   28  2
       a = -3.500      CL =  0.0165
      Cm = -0.1114     CD =  0.01041   =>   CDf =  0.00629    CDp =  0.00412

 Side 1  free  transition at x/c =  0.9070   72
 Side 2  free  transition at x/c =  0.2649   28

  15   rms: 0.8126E-02   max: -.9188E-01   D at   28  2
       a = -3.500      CL =  0.0165
      Cm = -0.1114     CD =  0.01041   =>   CDf =  0.00629    CDp =  0.00412

 Side 1  free  transition at x/c =  0.9070   72
 Side 2  free  transition at x/c =  0.2649   28

  16   rms: 0.8126E-02   max: -.9188E-01   D at   28  2
       a = -3.500      CL =  0.0165
      Cm = -0.1114     CD =  0.01041   =>   CDf =  0.00629    CDp =  0.00412

 Side 1  free  transition at x/c =  0.9070   72
 Side 2  free  transition at x/c =  0.2649   28

  17   rms: 0.8126E-02   max: -.9188E-01   D at   28  2
       a = -3.500      CL =  0.0165
      Cm = -0.1114     CD =  0.01041   =>   CDf =  0.00629    CDp =  0.00412

 Side 1  free  transition at x/c =  0.9070   72
 Side 2  free  transition at x/c =  0.2649   28

  18   rms: 0.8126E-02   max: -.9188E-01   D at   28  2
       a = -3.500      CL =  0.0165
      Cm = -0.1114     CD =  0.01041   =>   CDf =  0.00629    CDp =  0.00412

 Side 1  free  transition at x/c =  0.9070   72
 Side 2  free  transition at x/c =  0.2649   28

  19   rms: 0.8126E-02   max: -.9188E-01   D at   28  2
       a = -3.500      CL =  0.0165
      Cm = -0.1114     CD =  0.01041   =>   CDf =  0.00629    CDp =  0.00412

 Side 1  free  transition at x/c =  0.9070   72
 Side 2  free  transition at x/c =  0.2649   28

  20   rms: 0.8126E-02   max: -.9188E-01   D at   28  2
       a = -3.500      CL =  0.0165
      Cm = -0.1114     CD =  0.01041   =>   CDf =  0.00629    CDp =  0.00412

 Side 1  free  transition at x/c =  0.9070   72
 Side 2  free  transition at x/c =  0.2649   28

  21   rms: 0.8126E-02   max: -.9188E-01   D at   28  2
       a = -3.500      CL =  0.0165
      Cm = -0.1114     CD =  0.01041   =>   CDf =  0.00629    CDp =  0.00412

 Side 1  free  transition at x/c =  0.9070   72
 Side 2  free  transition at x/c =  0.2649   28

  22   rms: 0.8126E-02   max: -.9188E-01   D at   28  2
       a = -3.500      CL =  0.0165
      Cm = -0.1114     CD =  0.01041   =>   CDf =  0.00629    CDp =  0.00412

 Side 1  free  transition at x/c =  0.9070   72
 Side 2  free  transition at x/c =  0.2649   28

  23   rms: 0.8126E-02   max: -.9188E-01   D at   28  2
       a = -3.500      CL =  0.0165
      Cm = -0.1114     CD =  0.01041   =>   CDf =  0.00629    CDp =  0.00412

 Side 1  free  transition at x/c =  0.9070   72
 Side 2  free  transition at x/c =  0.2649   28

  24   rms: 0.8126E-02   max: -.9188E-01   D at   28  2
       a = -3.500      CL =  0.0165
      Cm = -0.1114     CD =  0.01041   =>   CDf =  0.00629    CDp =  0.00412

 Side 1  free  transition at x/c =  0.9070   72
 Side 2  free  transition at x/c =  0.2649   28

  25   rms: 0.8126E-02   max: -.9188E-01   D at   28  2
       a = -3.500      CL =  0.0165
      Cm = -0.1114     CD =  0.01041   =>   CDf =  0.00629    CDp =  0.00412

 Side 1  free  transition at x/c =  0.9070   72
 Side 2  free  transition at x/c =  0.2649   28

  26   rms: 0.8126E-02   max: -.9188E-01   D at   28  2
       a = -3.500      CL =  0.0165
      Cm = -0.1114     CD =  0.01041   =>   CDf =  0.00629    CDp =  0.00412

 Side 1  free  transition at x/c =  0.9070   72
 Side 2  free  transition at x/c =  0.2649   28

  27   rms: 0.8126E-02   max: -.9188E-01   D at   28  2
       a = -3.500      CL =  0.0165
      Cm = -0.1114     CD =  0.01041   =>   CDf =  0.00629    CDp =  0.00412

 Side 1  free  transition at x/c =  0.9070   72
 Side 2  free  transition at x/c =  0.2649   28

  28   rms: 0.8126E-02   max: -.9188E-01   D at   28  2
       a = -3.500      CL =  0.0165
      Cm = -0.1114     CD =  0.01041   =>   CDf =  0.00629    CDp =  0.00412

 Side 1  free  transition at x/c =  0.9070   72
 Side 2  free  transition at x/c =  0.2649   28

  29   rms: 0.8126E-02   max: -.9188E-01   D at   28  2
       a = -3.500      CL =  0.0165
      Cm = -0.1114     CD =  0.01041   =>   CDf =  0.00629    CDp =  0.00412

 Side 1  free  transition at x/c =  0.9070   72
 Side 2  free  transition at x/c =  0.2649   28

  30   rms: 0.8126E-02   max: -.9189E-01   D at   28  2
       a = -3.500      CL =  0.0165
      Cm = -0.1114     CD =  0.01041   =>   CDf =  0.00629    CDp =  0.00412

 Side 1  free  transition at x/c =  0.9070   72
 Side 2  free  transition at x/c =  0.2649   28

  31   rms: 0.8126E-02   max: -.9188E-01   D at   28  2
       a = -3.500      CL =  0.0165
      Cm = -0.1114     CD =  0.01041   =>   CDf =  0.00629    CDp =  0.00412

 Side 1  free  transition at x/c =  0.9070   72
 Side 2  free  transition at x/c =  0.2649   28

  32   rms: 0.8126E-02   max: -.9188E-01   D at   28  2
       a = -3.500      CL =  0.0165
      Cm = -0.1114     CD =  0.01041   =>   CDf =  0.00629    CDp =  0.00412

 Side 1  free  transition at x/c =  0.9070   72
 Side 2  free  transition at x/c =  0.2649   28

  33   rms: 0.8126E-02   max: -.9188E-01   D at   28  2
       a = -3.500      CL =  0.0165
      Cm = -0.1114     CD =  0.01041   =>   CDf =  0.00629    CDp =  0.00412

 Side 1  free  transition at x/c =  0.9070   72
 Side 2  free  transition at x/c =  0.2649   28

  34   rms: 0.8126E-02   max: -.9188E-01   D at   28  2
       a = -3.500      CL =  0.0165
      Cm = -0.1114     CD =  0.01041   =>   CDf =  0.00629    CDp =  0.00412

 Side 1  free  transition at x/c =  0.9070   72
 Side 2  free  transition at x/c =  0.2649   28

  35   rms: 0.8126E-02   max: -.9188E-01   D at   28  2
       a = -3.500      CL =  0.0165
      Cm = -0.1114     CD =  0.01041   =>   CDf =  0.00629    CDp =  0.00412

 Side 1  free  transition at x/c =  0.9070   72
 Side 2  free  transition at x/c =  0.2649   28

  36   rms: 0.8126E-02   max: -.9188E-01   D at   28  2
       a = -3.500      CL =  0.0165
      Cm = -0.1114     CD =  0.01041   =>   CDf =  0.00629    CDp =  0.00412

 Side 1  free  transition at x/c =  0.9070   72
 Side 2  free  transition at x/c =  0.2649   28

  37   rms: 0.8126E-02   max: -.9188E-01   D at   28  2
       a = -3.500      CL =  0.0165
      Cm = -0.1114     CD =  0.01041   =>   CDf =  0.00629    CDp =  0.00412

 Side 1  free  transition at x/c =  0.9070   72
 Side 2  free  transition at x/c =  0.2649   28

  38   rms: 0.8126E-02   max: -.9188E-01   D at   28  2
       a = -3.500      CL =  0.0165
      Cm = -0.1114     CD =  0.01041   =>   CDf =  0.00629    CDp =  0.00412

 Side 1  free  transition at x/c =  0.9070   72
 Side 2  free  transition at x/c =  0.2649   28

  39   rms: 0.8126E-02   max: -.9188E-01   D at   28  2
       a = -3.500      CL =  0.0165
      Cm = -0.1114     CD =  0.01041   =>   CDf =  0.00629    CDp =  0.00412

 Side 1  free  transition at x/c =  0.9070   72
 Side 2  free  transition at x/c =  0.2649   28

  40   rms: 0.8126E-02   max: -.9188E-01   D at   28  2
       a = -3.500      CL =  0.0165
      Cm = -0.1114     CD =  0.01041   =>   CDf =  0.00629    CDp =  0.00412

 Side 1  free  transition at x/c =  0.9070   72
 Side 2  free  transition at x/c =  0.2649   28

  41   rms: 0.8126E-02   max: -.9188E-01   D at   28  2
       a = -3.500      CL =  0.0165
      Cm = -0.1114     CD =  0.01041   =>   CDf =  0.00629    CDp =  0.00412

 Side 1  free  transition at x/c =  0.9070   72
 Side 2  free  transition at x/c =  0.2649   28

  42   rms: 0.8126E-02   max: -.9188E-01   D at   28  2
       a = -3.500      CL =  0.0165
      Cm = -0.1114     CD =  0.01041   =>   CDf =  0.00629    CDp =  0.00412

 Side 1  free  transition at x/c =  0.9070   72
 Side 2  free  transition at x/c =  0.2649   28

  43   rms: 0.8126E-02   max: -.9188E-01   D at   28  2
       a = -3.500      CL =  0.0165
      Cm = -0.1114     CD =  0.01041   =>   CDf =  0.00629    CDp =  0.00412

 Side 1  free  transition at x/c =  0.9070   72
 Side 2  free  transition at x/c =  0.2649   28

  44   rms: 0.8126E-02   max: -.9188E-01   D at   28  2
       a = -3.500      CL =  0.0165
      Cm = -0.1114     CD =  0.01041   =>   CDf =  0.00629    CDp =  0.00412

 Side 1  free  transition at x/c =  0.9070   72
 Side 2  free  transition at x/c =  0.2649   28

  45   rms: 0.8126E-02   max: -.9188E-01   D at   28  2
       a = -3.500      CL =  0.0165
      Cm = -0.1114     CD =  0.01041   =>   CDf =  0.00629    CDp =  0.00412

 Side 1  free  transition at x/c =  0.9070   72
 Side 2  free  transition at x/c =  0.2649   28

  46   rms: 0.8126E-02   max: -.9188E-01   D at   28  2
       a = -3.500      CL =  0.0165
      Cm = -0.1114     CD =  0.01041   =>   CDf =  0.00629    CDp =  0.00412

 Side 1  free  transition at x/c =  0.9070   72
 Side 2  free  transition at x/c =  0.2649   28

  47   rms: 0.8126E-02   max: -.9188E-01   D at   28  2
       a = -3.500      CL =  0.0165
      Cm = -0.1114     CD =  0.01041   =>   CDf =  0.00629    CDp =  0.00412

 Side 1  free  transition at x/c =  0.9070   72
 Side 2  free  transition at x/c =  0.2649   28

  48   rms: 0.8126E-02   max: -.9188E-01   D at   28  2
       a = -3.500      CL =  0.0165
      Cm = -0.1114     CD =  0.01041   =>   CDf =  0.00629    CDp =  0.00412

 Side 1  free  transition at x/c =  0.9070   72
 Side 2  free  transition at x/c =  0.2649   28

  49   rms: 0.8126E-02   max: -.9188E-01   D at   28  2
       a = -3.500      CL =  0.0165
      Cm = -0.1114     CD =  0.01041   =>   CDf =  0.00629    CDp =  0.00412

 Side 1  free  transition at x/c =  0.9070   72
 Side 2  free  transition at x/c =  0.2649   28

  50   rms: 0.8126E-02   max: -.9188E-01   D at   28  2
       a = -3.500      CL =  0.0165
      Cm = -0.1114     CD =  0.01041   =>   CDf =  0.00629    CDp =  0.00412

 Side 1  free  transition at x/c =  0.9070   72
 Side 2  free  transition at x/c =  0.2649   28

  51   rms: 0.8126E-02   max: -.9188E-01   D at   28  2
       a = -3.500      CL =  0.0165
      Cm = -0.1114     CD =  0.01041   =>   CDf =  0.00629    CDp =  0.00412

 Side 1  free  transition at x/c =  0.9070   72
 Side 2  free  transition at x/c =  0.2649   28

  52   rms: 0.8126E-02   max: -.9188E-01   D at   28  2
       a = -3.500      CL =  0.0165
      Cm = -0.1114     CD =  0.01041   =>   CDf =  0.00629    CDp =  0.00412

 Side 1  free  transition at x/c =  0.9070   72
 Side 2  free  transition at x/c =  0.2649   28

  53   rms: 0.8126E-02   max: -.9188E-01   D at   28  2
       a = -3.500      CL =  0.0165
      Cm = -0.1114     CD =  0.01041   =>   CDf =  0.00629    CDp =  0.00412

 Side 1  free  transition at x/c =  0.9070   72
 Side 2  free  transition at x/c =  0.2649   28

  54   rms: 0.8126E-02   max: -.9189E-01   D at   28  2
       a = -3.500      CL =  0.0165
      Cm = -0.1114     CD =  0.01041   =>   CDf =  0.00629    CDp =  0.00412

 Side 1  free  transition at x/c =  0.9070   72
 Side 2  free  transition at x/c =  0.2649   28

  55   rms: 0.8126E-02   max: -.9188E-01   D at   28  2
       a = -3.500      CL =  0.0165
      Cm = -0.1114     CD =  0.01041   =>   CDf =  0.00629    CDp =  0.00412

 Side 1  free  transition at x/c =  0.9070   72
 Side 2  free  transition at x/c =  0.2649   28

  56   rms: 0.8126E-02   max: -.9188E-01   D at   28  2
       a = -3.500      CL =  0.0165
      Cm = -0.1114     CD =  0.01041   =>   CDf =  0.00629    CDp =  0.00412

 Side 1  free  transition at x/c =  0.9070   72
 Side 2  free  transition at x/c =  0.2649   28

  57   rms: 0.8126E-02   max: -.9188E-01   D at   28  2
       a = -3.500      CL =  0.0165
      Cm = -0.1114     CD =  0.01041   =>   CDf =  0.00629    CDp =  0.00412

 Side 1  free  transition at x/c =  0.9070   72
 Side 2  free  transition at x/c =  0.2649   28

  58   rms: 0.8126E-02   max: -.9188E-01   D at   28  2
       a = -3.500      CL =  0.0165
      Cm = -0.1114     CD =  0.01041   =>   CDf =  0.00629    CDp =  0.00412

 Side 1  free  transition at x/c =  0.9070   72
 Side 2  free  transition at x/c =  0.2649   28

  59   rms: 0.8126E-02   max: -.9189E-01   D at   28  2
       a = -3.500      CL =  0.0165
      Cm = -0.1114     CD =  0.01041   =>   CDf =  0.00629    CDp =  0.00412

 Side 1  free  transition at x/c =  0.9070   72
 Side 2  free  transition at x/c =  0.2649   28

  60   rms: 0.8126E-02   max: -.9188E-01   D at   28  2
       a = -3.500      CL =  0.0165
      Cm = -0.1114     CD =  0.01041   =>   CDf =  0.00629    CDp =  0.00412

 Side 1  free  transition at x/c =  0.9070   72
 Side 2  free  transition at x/c =  0.2649   28

  61   rms: 0.8126E-02   max: -.9188E-01   D at   28  2
       a = -3.500      CL =  0.0165
      Cm = -0.1114     CD =  0.01041   =>   CDf =  0.00629    CDp =  0.00412

 Side 1  free  transition at x/c =  0.9070   72
 Side 2  free  transition at x/c =  0.2649   28

  62   rms: 0.8126E-02   max: -.9188E-01   D at   28  2
       a = -3.500      CL =  0.0165
      Cm = -0.1114     CD =  0.01041   =>   CDf =  0.00629    CDp =  0.00412

 Side 1  free  transition at x/c =  0.9070   72
 Side 2  free  transition at x/c =  0.2649   28

  63   rms: 0.8126E-02   max: -.9189E-01   D at   28  2
       a = -3.500      CL =  0.0165
      Cm = -0.1114     CD =  0.01041   =>   CDf =  0.00629    CDp =  0.00412

 Side 1  free  transition at x/c =  0.9070   72
 Side 2  free  transition at x/c =  0.2649   28

  64   rms: 0.8126E-02   max: -.9188E-01   D at   28  2
       a = -3.500      CL =  0.0165
      Cm = -0.1114     CD =  0.01041   =>   CDf =  0.00629    CDp =  0.00412

 Side 1  free  transition at x/c =  0.9070   72
 Side 2  free  transition at x/c =  0.2649   28

  65   rms: 0.8126E-02   max: -.9188E-01   D at   28  2
       a = -3.500      CL =  0.0165
      Cm = -0.1114     CD =  0.01041   =>   CDf =  0.00629    CDp =  0.00412

 Side 1  free  transition at x/c =  0.9070   72
 Side 2  free  transition at x/c =  0.2649   28

  66   rms: 0.8126E-02   max: -.9188E-01   D at   28  2
       a = -3.500      CL =  0.0165
      Cm = -0.1114     CD =  0.01041   =>   CDf =  0.00629    CDp =  0.00412

 Side 1  free  transition at x/c =  0.9070   72
 Side 2  free  transition at x/c =  0.2649   28

  67   rms: 0.8126E-02   max: -.9188E-01   D at   28  2
       a = -3.500      CL =  0.0165
      Cm = -0.1114     CD =  0.01041   =>   CDf =  0.00629    CDp =  0.00412

 Side 1  free  transition at x/c =  0.9070   72
 Side 2  free  transition at x/c =  0.2649   28

  68   rms: 0.8126E-02   max: -.9188E-01   D at   28  2
       a = -3.500      CL =  0.0165
      Cm = -0.1114     CD =  0.01041   =>   CDf =  0.00629    CDp =  0.00412

 Side 1  free  transition at x/c =  0.9070   72
 Side 2  free  transition at x/c =  0.2649   28

  69   rms: 0.8126E-02   max: -.9188E-01   D at   28  2
       a = -3.500      CL =  0.0165
      Cm = -0.1114     CD =  0.01041   =>   CDf =  0.00629    CDp =  0.00412

 Side 1  free  transition at x/c =  0.9070   72
 Side 2  free  transition at x/c =  0.2649   28

  70   rms: 0.8126E-02   max: -.9188E-01   D at   28  2
       a = -3.500      CL =  0.0165
      Cm = -0.1114     CD =  0.01041   =>   CDf =  0.00629    CDp =  0.00412

 Side 1  free  transition at x/c =  0.9070   72
 Side 2  free  transition at x/c =  0.2649   28

  71   rms: 0.8126E-02   max: -.9188E-01   D at   28  2
       a = -3.500      CL =  0.0165
      Cm = -0.1114     CD =  0.01041   =>   CDf =  0.00629    CDp =  0.00412

 Side 1  free  transition at x/c =  0.9070   72
 Side 2  free  transition at x/c =  0.2649   28

  72   rms: 0.8126E-02   max: -.9188E-01   D at   28  2
       a = -3.500      CL =  0.0165
      Cm = -0.1114     CD =  0.01041   =>   CDf =  0.00629    CDp =  0.00412

 Side 1  free  transition at x/c =  0.9070   72
 Side 2  free  transition at x/c =  0.2649   28

  73   rms: 0.8126E-02   max: -.9188E-01   D at   28  2
       a = -3.500      CL =  0.0165
      Cm = -0.1114     CD =  0.01041   =>   CDf =  0.00629    CDp =  0.00412

 Side 1  free  transition at x/c =  0.9070   72
 Side 2  free  transition at x/c =  0.2649   28

  74   rms: 0.8126E-02   max: -.9188E-01   D at   28  2
       a = -3.500      CL =  0.0165
      Cm = -0.1114     CD =  0.01041   =>   CDf =  0.00629    CDp =  0.00412

 Side 1  free  transition at x/c =  0.9070   72
 Side 2  free  transition at x/c =  0.2649   28

  75   rms: 0.8126E-02   max: -.9188E-01   D at   28  2
       a = -3.500      CL =  0.0165
      Cm = -0.1114     CD =  0.01041   =>   CDf =  0.00629    CDp =  0.00412

 Side 1  free  transition at x/c =  0.9070   72
 Side 2  free  transition at x/c =  0.2649   28

  76   rms: 0.8126E-02   max: -.9188E-01   D at   28  2
       a = -3.500      CL =  0.0165
      Cm = -0.1114     CD =  0.01041   =>   CDf =  0.00629    CDp =  0.00412

 Side 1  free  transition at x/c =  0.9070   72
 Side 2  free  transition at x/c =  0.2649   28

  77   rms: 0.8126E-02   max: -.9188E-01   D at   28  2
       a = -3.500      CL =  0.0165
      Cm = -0.1114     CD =  0.01041   =>   CDf =  0.00629    CDp =  0.00412

 Side 1  free  transition at x/c =  0.9070   72
 Side 2  free  transition at x/c =  0.2649   28

  78   rms: 0.8126E-02   max: -.9188E-01   D at   28  2
       a = -3.500      CL =  0.0165
      Cm = -0.1114     CD =  0.01041   =>   CDf =  0.00629    CDp =  0.00412

 Side 1  free  transition at x/c =  0.9070   72
 Side 2  free  transition at x/c =  0.2649   28

  79   rms: 0.8126E-02   max: -.9188E-01   D at   28  2
       a = -3.500      CL =  0.0165
      Cm = -0.1114     CD =  0.01041   =>   CDf =  0.00629    CDp =  0.00412

 Side 1  free  transition at x/c =  0.9070   72
 Side 2  free  transition at x/c =  0.2649   28

  80   rms: 0.8126E-02   max: -.9188E-01   D at   28  2
       a = -3.500      CL =  0.0165
      Cm = -0.1114     CD =  0.01041   =>   CDf =  0.00629    CDp =  0.00412

 Side 1  free  transition at x/c =  0.9070   72
 Side 2  free  transition at x/c =  0.2649   28

  81   rms: 0.8126E-02   max: -.9188E-01   D at   28  2
       a = -3.500      CL =  0.0165
      Cm = -0.1114     CD =  0.01041   =>   CDf =  0.00629    CDp =  0.00412

 Side 1  free  transition at x/c =  0.9070   72
 Side 2  free  transition at x/c =  0.2649   28

  82   rms: 0.8126E-02   max: -.9188E-01   D at   28  2
       a = -3.500      CL =  0.0165
      Cm = -0.1114     CD =  0.01041   =>   CDf =  0.00629    CDp =  0.00412

 Side 1  free  transition at x/c =  0.9070   72
 Side 2  free  transition at x/c =  0.2649   28

  83   rms: 0.8126E-02   max: -.9188E-01   D at   28  2
       a = -3.500      CL =  0.0165
      Cm = -0.1114     CD =  0.01041   =>   CDf =  0.00629    CDp =  0.00412

 Side 1  free  transition at x/c =  0.9070   72
 Side 2  free  transition at x/c =  0.2649   28

  84   rms: 0.8126E-02   max: -.9188E-01   D at   28  2
       a = -3.500      CL =  0.0165
      Cm = -0.1114     CD =  0.01041   =>   CDf =  0.00629    CDp =  0.00412

 Side 1  free  transition at x/c =  0.9070   72
 Side 2  free  transition at x/c =  0.2649   28

  85   rms: 0.8126E-02   max: -.9188E-01   D at   28  2
       a = -3.500      CL =  0.0165
      Cm = -0.1114     CD =  0.01041   =>   CDf =  0.00629    CDp =  0.00412

 Side 1  free  transition at x/c =  0.9070   72
 Side 2  free  transition at x/c =  0.2649   28

  86   rms: 0.8126E-02   max: -.9188E-01   D at   28  2
       a = -3.500      CL =  0.0165
      Cm = -0.1114     CD =  0.01041   =>   CDf =  0.00629    CDp =  0.00412

 Side 1  free  transition at x/c =  0.9070   72
 Side 2  free  transition at x/c =  0.2649   28

  87   rms: 0.8126E-02   max: -.9188E-01   D at   28  2
       a = -3.500      CL =  0.0165
      Cm = -0.1114     CD =  0.01041   =>   CDf =  0.00629    CDp =  0.00412

 Side 1  free  transition at x/c =  0.9070   72
 Side 2  free  transition at x/c =  0.2649   28

  88   rms: 0.8126E-02   max: -.9189E-01   D at   28  2
       a = -3.500      CL =  0.0165
      Cm = -0.1114     CD =  0.01041   =>   CDf =  0.00629    CDp =  0.00412

 Side 1  free  transition at x/c =  0.9070   72
 Side 2  free  transition at x/c =  0.2649   28

  89   rms: 0.8126E-02   max: -.9188E-01   D at   28  2
       a = -3.500      CL =  0.0165
      Cm = -0.1114     CD =  0.01041   =>   CDf =  0.00629    CDp =  0.00412

 Side 1  free  transition at x/c =  0.9070   72
 Side 2  free  transition at x/c =  0.2649   28

  90   rms: 0.8126E-02   max: -.9188E-01   D at   28  2
       a = -3.500      CL =  0.0165
      Cm = -0.1114     CD =  0.01041   =>   CDf =  0.00629    CDp =  0.00412

 Side 1  free  transition at x/c =  0.9070   72
 Side 2  free  transition at x/c =  0.2649   28

  91   rms: 0.8126E-02   max: -.9188E-01   D at   28  2
       a = -3.500      CL =  0.0165
      Cm = -0.1114     CD =  0.01041   =>   CDf =  0.00629    CDp =  0.00412

 Side 1  free  transition at x/c =  0.9070   72
 Side 2  free  transition at x/c =  0.2649   28

  92   rms: 0.8126E-02   max: -.9188E-01   D at   28  2
       a = -3.500      CL =  0.0165
      Cm = -0.1114     CD =  0.01041   =>   CDf =  0.00629    CDp =  0.00412

 Side 1  free  transition at x/c =  0.9070   72
 Side 2  free  transition at x/c =  0.2649   28

  93   rms: 0.8126E-02   max: -.9188E-01   D at   28  2
       a = -3.500      CL =  0.0165
      Cm = -0.1114     CD =  0.01041   =>   CDf =  0.00629    CDp =  0.00412

 Side 1  free  transition at x/c =  0.9070   72
 Side 2  free  transition at x/c =  0.2649   28

  94   rms: 0.8126E-02   max: -.9188E-01   D at   28  2
       a = -3.500      CL =  0.0165
      Cm = -0.1114     CD =  0.01041   =>   CDf =  0.00629    CDp =  0.00412

 Side 1  free  transition at x/c =  0.9070   72
 Side 2  free  transition at x/c =  0.2649   28

  95   rms: 0.8126E-02   max: -.9188E-01   D at   28  2
       a = -3.500      CL =  0.0165
      Cm = -0.1114     CD =  0.01041   =>   CDf =  0.00629    CDp =  0.00412

 Side 1  free  transition at x/c =  0.9070   72
 Side 2  free  transition at x/c =  0.2649   28

  96   rms: 0.8126E-02   max: -.9188E-01   D at   28  2
       a = -3.500      CL =  0.0165
      Cm = -0.1114     CD =  0.01041   =>   CDf =  0.00629    CDp =  0.00412

 Side 1  free  transition at x/c =  0.9070   72
 Side 2  free  transition at x/c =  0.2649   28

  97   rms: 0.8126E-02   max: -.9189E-01   D at   28  2
       a = -3.500      CL =  0.0165
      Cm = -0.1114     CD =  0.01041   =>   CDf =  0.00629    CDp =  0.00412

 Side 1  free  transition at x/c =  0.9070   72
 Side 2  free  transition at x/c =  0.2649   28

  98   rms: 0.8126E-02   max: -.9188E-01   D at   28  2
       a = -3.500      CL =  0.0165
      Cm = -0.1114     CD =  0.01041   =>   CDf =  0.00629    CDp =  0.00412

 Side 1  free  transition at x/c =  0.9070   72
 Side 2  free  transition at x/c =  0.2649   28

  99   rms: 0.8126E-02   max: -.9188E-01   D at   28  2
       a = -3.500      CL =  0.0165
      Cm = -0.1114     CD =  0.01041   =>   CDf =  0.00629    CDp =  0.00412

 Side 1  free  transition at x/c =  0.9070   72
 Side 2  free  transition at x/c =  0.2649   28

 100   rms: 0.8126E-02   max: -.9188E-01   D at   28  2
       a = -3.500      CL =  0.0165
      Cm = -0.1114     CD =  0.01041   =>   CDf =  0.00629    CDp =  0.00412

 Side 1  free  transition at x/c =  0.9070   72
 Side 2  free  transition at x/c =  0.2649   28

 101   rms: 0.8126E-02   max: -.9188E-01   D at   28  2
       a = -3.500      CL =  0.0165
      Cm = -0.1114     CD =  0.01041   =>   CDf =  0.00629    CDp =  0.00412

 Side 1  free  transition at x/c =  0.9070   72
 Side 2  free  transition at x/c =  0.2649   28

 102   rms: 0.8126E-02   max: -.9188E-01   D at   28  2
       a = -3.500      CL =  0.0165
      Cm = -0.1114     CD =  0.01041   =>   CDf =  0.00629    CDp =  0.00412

 Side 1  free  transition at x/c =  0.9070   72
 Side 2  free  transition at x/c =  0.2649   28

 103   rms: 0.8126E-02   max: -.9188E-01   D at   28  2
       a = -3.500      CL =  0.0165
      Cm = -0.1114     CD =  0.01041   =>   CDf =  0.00629    CDp =  0.00412

 Side 1  free  transition at x/c =  0.9070   72
 Side 2  free  transition at x/c =  0.2649   28

 104   rms: 0.8126E-02   max: -.9188E-01   D at   28  2
       a = -3.500      CL =  0.0165
      Cm = -0.1114     CD =  0.01041   =>   CDf =  0.00629    CDp =  0.00412

 Side 1  free  transition at x/c =  0.9070   72
 Side 2  free  transition at x/c =  0.2649   28

 105   rms: 0.8126E-02   max: -.9188E-01   D at   28  2
       a = -3.500      CL =  0.0165
      Cm = -0.1114     CD =  0.01041   =>   CDf =  0.00629    CDp =  0.00412

 Side 1  free  transition at x/c =  0.9070   72
 Side 2  free  transition at x/c =  0.2649   28

 106   rms: 0.8126E-02   max: -.9188E-01   D at   28  2
       a = -3.500      CL =  0.0165
      Cm = -0.1114     CD =  0.01041   =>   CDf =  0.00629    CDp =  0.00412

 Side 1  free  transition at x/c =  0.9070   72
 Side 2  free  transition at x/c =  0.2649   28

 107   rms: 0.8126E-02   max: -.9188E-01   D at   28  2
       a = -3.500      CL =  0.0165
      Cm = -0.1114     CD =  0.01041   =>   CDf =  0.00629    CDp =  0.00412

 Side 1  free  transition at x/c =  0.9070   72
 Side 2  free  transition at x/c =  0.2649   28

 108   rms: 0.8126E-02   max: -.9188E-01   D at   28  2
       a = -3.500      CL =  0.0165
      Cm = -0.1114     CD =  0.01041   =>   CDf =  0.00629    CDp =  0.00412

 Side 1  free  transition at x/c =  0.9070   72
 Side 2  free  transition at x/c =  0.2649   28

 109   rms: 0.8126E-02   max: -.9188E-01   D at   28  2
       a = -3.500      CL =  0.0165
      Cm = -0.1114     CD =  0.01041   =>   CDf =  0.00629    CDp =  0.00412

 Side 1  free  transition at x/c =  0.9070   72
 Side 2  free  transition at x/c =  0.2649   28

 110   rms: 0.8126E-02   max: -.9188E-01   D at   28  2
       a = -3.500      CL =  0.0165
      Cm = -0.1114     CD =  0.01041   =>   CDf =  0.00629    CDp =  0.00412

 Side 1  free  transition at x/c =  0.9070   72
 Side 2  free  transition at x/c =  0.2649   28

 111   rms: 0.8126E-02   max: -.9188E-01   D at   28  2
       a = -3.500      CL =  0.0165
      Cm = -0.1114     CD =  0.01041   =>   CDf =  0.00629    CDp =  0.00412

 Side 1  free  transition at x/c =  0.9070   72
 Side 2  free  transition at x/c =  0.2649   28

 112   rms: 0.8126E-02   max: -.9188E-01   D at   28  2
       a = -3.500      CL =  0.0165
      Cm = -0.1114     CD =  0.01041   =>   CDf =  0.00629    CDp =  0.00412

 Side 1  free  transition at x/c =  0.9070   72
 Side 2  free  transition at x/c =  0.2649   28

 113   rms: 0.8126E-02   max: -.9188E-01   D at   28  2
       a = -3.500      CL =  0.0165
      Cm = -0.1114     CD =  0.01041   =>   CDf =  0.00629    CDp =  0.00412

 Side 1  free  transition at x/c =  0.9070   72
 Side 2  free  transition at x/c =  0.2649   28

 114   rms: 0.8126E-02   max: -.9188E-01   D at   28  2
       a = -3.500      CL =  0.0165
      Cm = -0.1114     CD =  0.01041   =>   CDf =  0.00629    CDp =  0.00412

 Side 1  free  transition at x/c =  0.9070   72
 Side 2  free  transition at x/c =  0.2649   28

 115   rms: 0.8126E-02   max: -.9188E-01   D at   28  2
       a = -3.500      CL =  0.0165
      Cm = -0.1114     CD =  0.01041   =>   CDf =  0.00629    CDp =  0.00412

 Side 1  free  transition at x/c =  0.9070   72
 Side 2  free  transition at x/c =  0.2649   28

 116   rms: 0.8126E-02   max: -.9188E-01   D at   28  2
       a = -3.500      CL =  0.0165
      Cm = -0.1114     CD =  0.01041   =>   CDf =  0.00629    CDp =  0.00412

 Side 1  free  transition at x/c =  0.9070   72
 Side 2  free  transition at x/c =  0.2649   28

 117   rms: 0.8126E-02   max: -.9189E-01   D at   28  2
       a = -3.500      CL =  0.0165
      Cm = -0.1114     CD =  0.01041   =>   CDf =  0.00629    CDp =  0.00412

 Side 1  free  transition at x/c =  0.9070   72
 Side 2  free  transition at x/c =  0.2649   28

 118   rms: 0.8126E-02   max: -.9188E-01   D at   28  2
       a = -3.500      CL =  0.0165
      Cm = -0.1114     CD =  0.01041   =>   CDf =  0.00629    CDp =  0.00412

 Side 1  free  transition at x/c =  0.9070   72
 Side 2  free  transition at x/c =  0.2649   28

 119   rms: 0.8126E-02   max: -.9188E-01   D at   28  2
       a = -3.500      CL =  0.0165
      Cm = -0.1114     CD =  0.01041   =>   CDf =  0.00629    CDp =  0.00412

 Side 1  free  transition at x/c =  0.9070   72
 Side 2  free  transition at x/c =  0.2649   28

 120   rms: 0.8126E-02   max: -.9189E-01   D at   28  2
       a = -3.500      CL =  0.0165
      Cm = -0.1114     CD =  0.01041   =>   CDf =  0.00629    CDp =  0.00412

 Side 1  free  transition at x/c =  0.9070   72
 Side 2  free  transition at x/c =  0.2649   28

 121   rms: 0.8126E-02   max: -.9188E-01   D at   28  2
       a = -3.500      CL =  0.0165
      Cm = -0.1114     CD =  0.01041   =>   CDf =  0.00629    CDp =  0.00412

 Side 1  free  transition at x/c =  0.9070   72
 Side 2  free  transition at x/c =  0.2649   28

 122   rms: 0.8126E-02   max: -.9188E-01   D at   28  2
       a = -3.500      CL =  0.0165
      Cm = -0.1114     CD =  0.01041   =>   CDf =  0.00629    CDp =  0.00412

 Side 1  free  transition at x/c =  0.9070   72
 Side 2  free  transition at x/c =  0.2649   28

 123   rms: 0.8126E-02   max: -.9188E-01   D at   28  2
       a = -3.500      CL =  0.0165
      Cm = -0.1114     CD =  0.01041   =>   CDf =  0.00629    CDp =  0.00412

 Side 1  free  transition at x/c =  0.9070   72
 Side 2  free  transition at x/c =  0.2649   28

 124   rms: 0.8126E-02   max: -.9188E-01   D at   28  2
       a = -3.500      CL =  0.0165
      Cm = -0.1114     CD =  0.01041   =>   CDf =  0.00629    CDp =  0.00412

 Side 1  free  transition at x/c =  0.9070   72
 Side 2  free  transition at x/c =  0.2649   28

 125   rms: 0.8126E-02   max: -.9188E-01   D at   28  2
       a = -3.500      CL =  0.0165
      Cm = -0.1114     CD =  0.01041   =>   CDf =  0.00629    CDp =  0.00412

 Side 1  free  transition at x/c =  0.9070   72
 Side 2  free  transition at x/c =  0.2649   28

 126   rms: 0.8127E-02   max: -.9189E-01   D at   28  2
       a = -3.500      CL =  0.0165
      Cm = -0.1114     CD =  0.01041   =>   CDf =  0.00629    CDp =  0.00412

 Side 1  free  transition at x/c =  0.9070   72
 Side 2  free  transition at x/c =  0.2649   28

 127   rms: 0.8126E-02   max: -.9188E-01   D at   28  2
       a = -3.500      CL =  0.0165
      Cm = -0.1114     CD =  0.01041   =>   CDf =  0.00629    CDp =  0.00412

 Side 1  free  transition at x/c =  0.9070   72
 Side 2  free  transition at x/c =  0.2649   28

 128   rms: 0.8126E-02   max: -.9188E-01   D at   28  2
       a = -3.500      CL =  0.0165
      Cm = -0.1114     CD =  0.01041   =>   CDf =  0.00629    CDp =  0.00412

 Side 1  free  transition at x/c =  0.9070   72
 Side 2  free  transition at x/c =  0.2649   28

 129   rms: 0.8126E-02   max: -.9188E-01   D at   28  2
       a = -3.500      CL =  0.0165
      Cm = -0.1114     CD =  0.01041   =>   CDf =  0.00629    CDp =  0.00412

 Side 1  free  transition at x/c =  0.9070   72
 Side 2  free  transition at x/c =  0.2649   28

 130   rms: 0.8126E-02   max: -.9188E-01   D at   28  2
       a = -3.500      CL =  0.0165
      Cm = -0.1114     CD =  0.01041   =>   CDf =  0.00629    CDp =  0.00412

 Side 1  free  transition at x/c =  0.9070   72
 Side 2  free  transition at x/c =  0.2649   28

 131   rms: 0.8126E-02   max: -.9188E-01   D at   28  2
       a = -3.500      CL =  0.0165
      Cm = -0.1114     CD =  0.01041   =>   CDf =  0.00629    CDp =  0.00412

 Side 1  free  transition at x/c =  0.9070   72
 Side 2  free  transition at x/c =  0.2649   28

 132   rms: 0.8126E-02   max: -.9188E-01   D at   28  2
       a = -3.500      CL =  0.0165
      Cm = -0.1114     CD =  0.01041   =>   CDf =  0.00629    CDp =  0.00412

 Side 1  free  transition at x/c =  0.9070   72
 Side 2  free  transition at x/c =  0.2649   28

 133   rms: 0.8126E-02   max: -.9188E-01   D at   28  2
       a = -3.500      CL =  0.0165
      Cm = -0.1114     CD =  0.01041   =>   CDf =  0.00629    CDp =  0.00412

 Side 1  free  transition at x/c =  0.9070   72
 Side 2  free  transition at x/c =  0.2649   28

 134   rms: 0.8126E-02   max: -.9188E-01   D at   28  2
       a = -3.500      CL =  0.0165
      Cm = -0.1114     CD =  0.01041   =>   CDf =  0.00629    CDp =  0.00412

 Side 1  free  transition at x/c =  0.9070   72
 Side 2  free  transition at x/c =  0.2649   28

 135   rms: 0.8126E-02   max: -.9188E-01   D at   28  2
       a = -3.500      CL =  0.0165
      Cm = -0.1114     CD =  0.01041   =>   CDf =  0.00629    CDp =  0.00412

 Side 1  free  transition at x/c =  0.9070   72
 Side 2  free  transition at x/c =  0.2649   28

 136   rms: 0.8126E-02   max: -.9188E-01   D at   28  2
       a = -3.500      CL =  0.0165
      Cm = -0.1114     CD =  0.01041   =>   CDf =  0.00629    CDp =  0.00412

 Side 1  free  transition at x/c =  0.9070   72
 Side 2  free  transition at x/c =  0.2649   28

 137   rms: 0.8126E-02   max: -.9188E-01   D at   28  2
       a = -3.500      CL =  0.0165
      Cm = -0.1114     CD =  0.01041   =>   CDf =  0.00629    CDp =  0.00412

 Side 1  free  transition at x/c =  0.9070   72
 Side 2  free  transition at x/c =  0.2649   28

 138   rms: 0.8126E-02   max: -.9188E-01   D at   28  2
       a = -3.500      CL =  0.0165
      Cm = -0.1114     CD =  0.01041   =>   CDf =  0.00629    CDp =  0.00412

 Side 1  free  transition at x/c =  0.9070   72
 Side 2  free  transition at x/c =  0.2649   28

 139   rms: 0.8126E-02   max: -.9188E-01   D at   28  2
       a = -3.500      CL =  0.0165
      Cm = -0.1114     CD =  0.01041   =>   CDf =  0.00629    CDp =  0.00412

 Side 1  free  transition at x/c =  0.9070   72
 Side 2  free  transition at x/c =  0.2649   28

 140   rms: 0.8126E-02   max: -.9189E-01   D at   28  2
       a = -3.500      CL =  0.0165
      Cm = -0.1114     CD =  0.01041   =>   CDf =  0.00629    CDp =  0.00412

 Side 1  free  transition at x/c =  0.9070   72
 Side 2  free  transition at x/c =  0.2649   28

 141   rms: 0.8126E-02   max: -.9188E-01   D at   28  2
       a = -3.500      CL =  0.0165
      Cm = -0.1114     CD =  0.01041   =>   CDf =  0.00629    CDp =  0.00412

 Side 1  free  transition at x/c =  0.9070   72
 Side 2  free  transition at x/c =  0.2649   28

 142   rms: 0.8126E-02   max: -.9188E-01   D at   28  2
       a = -3.500      CL =  0.0165
      Cm = -0.1114     CD =  0.01041   =>   CDf =  0.00629    CDp =  0.00412

 Side 1  free  transition at x/c =  0.9070   72
 Side 2  free  transition at x/c =  0.2649   28

 143   rms: 0.8126E-02   max: -.9188E-01   D at   28  2
       a = -3.500      CL =  0.0165
      Cm = -0.1114     CD =  0.01041   =>   CDf =  0.00629    CDp =  0.00412

 Side 1  free  transition at x/c =  0.9070   72
 Side 2  free  transition at x/c =  0.2649   28

 144   rms: 0.8126E-02   max: -.9188E-01   D at   28  2
       a = -3.500      CL =  0.0165
      Cm = -0.1114     CD =  0.01041   =>   CDf =  0.00629    CDp =  0.00412

 Side 1  free  transition at x/c =  0.9070   72
 Side 2  free  transition at x/c =  0.2649   28

 145   rms: 0.8127E-02   max: -.9189E-01   D at   28  2
       a = -3.500      CL =  0.0165
      Cm = -0.1114     CD =  0.01041   =>   CDf =  0.00629    CDp =  0.00412

 Side 1  free  transition at x/c =  0.9070   72
 Side 2  free  transition at x/c =  0.2649   28

 146   rms: 0.8126E-02   max: -.9188E-01   D at   28  2
       a = -3.500      CL =  0.0165
      Cm = -0.1114     CD =  0.01041   =>   CDf =  0.00629    CDp =  0.00412

 Side 1  free  transition at x/c =  0.9070   72
 Side 2  free  transition at x/c =  0.2649   28

 147   rms: 0.8126E-02   max: -.9188E-01   D at   28  2
       a = -3.500      CL =  0.0165
      Cm = -0.1114     CD =  0.01041   =>   CDf =  0.00629    CDp =  0.00412

 Side 1  free  transition at x/c =  0.9070   72
 Side 2  free  transition at x/c =  0.2649   28

 148   rms: 0.8126E-02   max: -.9188E-01   D at   28  2
       a = -3.500      CL =  0.0165
      Cm = -0.1114     CD =  0.01041   =>   CDf =  0.00629    CDp =  0.00412

 Side 1  free  transition at x/c =  0.9070   72
 Side 2  free  transition at x/c =  0.2649   28

 149   rms: 0.8126E-02   max: -.9188E-01   D at   28  2
       a = -3.500      CL =  0.0165
      Cm = -0.1114     CD =  0.01041   =>   CDf =  0.00629    CDp =  0.00412

 Side 1  free  transition at x/c =  0.9070   72
 Side 2  free  transition at x/c =  0.2649   28

 150   rms: 0.8126E-02   max: -.9188E-01   D at   28  2
       a = -3.500      CL =  0.0165
      Cm = -0.1114     CD =  0.01041   =>   CDf =  0.00629    CDp =  0.00412

 Side 1  free  transition at x/c =  0.9070   72
 Side 2  free  transition at x/c =  0.2649   28

 151   rms: 0.8126E-02   max: -.9188E-01   D at   28  2
       a = -3.500      CL =  0.0165
      Cm = -0.1114     CD =  0.01041   =>   CDf =  0.00629    CDp =  0.00412

 Side 1  free  transition at x/c =  0.9070   72
 Side 2  free  transition at x/c =  0.2649   28

 152   rms: 0.8126E-02   max: -.9189E-01   D at   28  2
       a = -3.500      CL =  0.0165
      Cm = -0.1114     CD =  0.01041   =>   CDf =  0.00629    CDp =  0.00412

 Side 1  free  transition at x/c =  0.9070   72
 Side 2  free  transition at x/c =  0.2649   28

 153   rms: 0.8126E-02   max: -.9188E-01   D at   28  2
       a = -3.500      CL =  0.0165
      Cm = -0.1114     CD =  0.01041   =>   CDf =  0.00629    CDp =  0.00412

 Side 1  free  transition at x/c =  0.9070   72
 Side 2  free  transition at x/c =  0.2649   28

 154   rms: 0.8126E-02   max: -.9188E-01   D at   28  2
       a = -3.500      CL =  0.0165
      Cm = -0.1114     CD =  0.01041   =>   CDf =  0.00629    CDp =  0.00412

 Side 1  free  transition at x/c =  0.9070   72
 Side 2  free  transition at x/c =  0.2649   28

 155   rms: 0.8126E-02   max: -.9188E-01   D at   28  2
       a = -3.500      CL =  0.0165
      Cm = -0.1114     CD =  0.01041   =>   CDf =  0.00629    CDp =  0.00412
 VISCAL:  Convergence failed
 Calculating wake trajectory ...
 Calculating source influence matrix ...

 Solving BL system ...

 Side 1  free  transition at x/c =  0.9070   72
 Side 2  free  transition at x/c =  0.2649   28

   1   rms: 0.8672E-01   max: 0.5902E+00   C at   28  2   RLX: 0.870
       a = -3.000      CL =  0.0683
      Cm = -0.1122     CD =  0.01053   =>   CDf =  0.00630    CDp =  0.00423

 MRCHDU: Convergence failed at  30  side 2    Res =  0.2169E+01
 MRCHDU: Convergence failed at  31  side 2    Res =  0.3447E+01
 MRCHDU: Convergence failed at  32  side 2    Res =  0.2008E+01
 MRCHDU: Convergence failed at  33  side 2    Res =  0.1962E+01
 MRCHDU: Convergence failed at  34  side 2    Res =  0.2031E+01
 MRCHDU: Convergence failed at  35  side 2    Res =  0.2120E+01
 MRCHDU: Convergence failed at  36  side 2    Res =  0.2221E+01
 MRCHDU: Convergence failed at  37  side 2    Res =  0.2446E+01
 MRCHDU: Convergence failed at  38  side 2    Res =  0.2574E+01
 MRCHDU: Convergence failed at  39  side 2    Res =  0.2719E+01
 MRCHDU: Convergence failed at  40  side 2    Res =  0.2889E+01
 MRCHDU: Convergence failed at  41  side 2    Res =  0.3083E+01
 MRCHDU: Convergence failed at  42  side 2    Res =  0.3295E+01
 MRCHDU: Convergence failed at  43  side 2    Res =  0.3519E+01
 MRCHDU: Convergence failed at  44  side 2    Res =  0.3756E+01
 MRCHDU: Convergence failed at  45  side 2    Res =  0.4022E+01
 MRCHDU: Convergence failed at  46  side 2    Res =  0.4295E+01
 MRCHDU: Convergence failed at  47  side 2    Res =  0.4593E+01
 MRCHDU: Convergence failed at  48  side 2    Res =  0.5075E+01
 MRCHDU: Convergence failed at  49  side 2    Res =  0.5403E+01
 MRCHDU: Convergence failed at  50  side 2    Res =  0.5765E+01
 MRCHDU: Convergence failed at  51  side 2    Res =  0.6185E+01
 MRCHDU: Convergence failed at  52  side 2    Res =  0.6611E+01
 MRCHDU: Convergence failed at  53  side 2    Res =  0.7057E+01
 MRCHDU: Convergence failed at  54  side 2    Res =  0.7548E+01
 MRCHDU: Convergence failed at  55  side 2    Res =  0.8090E+01
 MRCHDU: Convergence failed at  56  side 2    Res =  0.8704E+01
 MRCHDU: Convergence failed at  57  side 2    Res =  0.9340E+01
 MRCHDU: Convergence failed at  58  side 2    Res =  0.1007E+02
 MRCHDU: Convergence failed at  59  side 2    Res =  0.1084E+02
 MRCHDU: Convergence failed at  60  side 2    Res =  0.1167E+02
 MRCHDU: Convergence failed at  61  side 2    Res =  0.1262E+02
 MRCHDU: Convergence failed at  62  side 2    Res =  0.1371E+02
 MRCHDU: Convergence failed at  63  side 2    Res =  0.1502E+02
 MRCHDU: Convergence failed at  64  side 2    Res =  0.1644E+02
 MRCHDU: Convergence failed at  65  side 2    Res =  0.1835E+02
 MRCHDU: Convergence failed at  66  side 2    Res =  0.2033E+02
 MRCHDU: Convergence failed at  67  side 2    Res =  0.2314E+02
 MRCHDU: Convergence failed at  68  side 2    Res =  0.2598E+02
 MRCHDU: Convergence failed at  69  side 2    Res =  0.2989E+02
 MRCHDU: Convergence failed at  70  side 2    Res =  0.3524E+02
 MRCHDU: Convergence failed at  71  side 2    Res =  0.4210E+02
 MRCHDU: Convergence failed at  72  side 2    Res =  0.5233E+02
 MRCHDU: Convergence failed at  73  side 2    Res =  0.6718E+02
 MRCHDU: Convergence failed at  74  side 2    Res =  0.9890E+02
 MRCHDU: Convergence failed at  75  side 2    Res =  0.2414E+03
 MRCHDU: Convergence failed at  76  side 2    Res =  0.1124E+05
 MRCHDU: Convergence failed at  77  side 2    Res =  0.2359E+03
 MRCHDU: Convergence failed at  78  side 2    Res =  0.9868E+02
 MRCHDU: Convergence failed at  79  side 2    Res =  0.4892E+02
 MRCHDU: Convergence failed at  80  side 2    Res =  0.2820E+02
 MRCHDU: Convergence failed at  81  side 2    Res =  0.1159E+02
 MRCHDU: Convergence failed at  82  side 2    Res =  0.1483E+02
 MRCHDU: Convergence failed at  83  side 2    Res =  0.1647E+02
 Side 1  free  transition at x/c =  0.9048   72
 Side 2  free  transition at x/c =  0.2781   29

   2   rms: 0.3466E+00   max: 0.1212E+01   D at   83  2
       a = -3.000      CL =  0.1599
      Cm = -0.1243     CD =  0.00763   =>   CDf =  0.00360    CDp =  0.00403

 Side 1  free  transition at x/c =  0.9136   73
 Side 2  free  transition at x/c =  0.2732   28

   3   rms: 0.3099E+00   max: -.1682E+01   D at   71  2   RLX: 0.297
       a = -3.000      CL =  0.1639
      Cm = -0.1385     CD =  0.01521   =>   CDf =  0.00535    CDp =  0.00986

 Side 1  free  transition at x/c =  0.9082   73
 Side 2  free  transition at x/c =  0.2755   28

   4   rms: 0.3798E+00   max: -.1902E+01   D at   62  2   RLX: 0.263
       a = -3.000      CL =  0.1654
      Cm = -0.1398     CD =  0.01280   =>   CDf =  0.00537    CDp =  0.00743

 Side 1  free  transition at x/c =  0.9084   73
 Side 2  free  transition at x/c =  0.2786   29

   5   rms: 0.4419E+00   max: -.2363E+01   D at   63  2   RLX: 0.212
       a = -3.000      CL =  0.1623
      Cm = -0.1377     CD =  0.01169   =>   CDf =  0.00555    CDp =  0.00615

 MRCHDU: Convergence failed at  70  side 2    Res =  0.9366E+00
 Side 1  free  transition at x/c =  0.9087   73
 Side 2  free  transition at x/c =  0.2812   29

   6   rms: 0.4676E+00   max: -.2522E+01   D at   62  2   RLX: 0.198
       a = -3.000      CL =  0.1493
      Cm = -0.1326     CD =  0.01147   =>   CDf =  0.00557    CDp =  0.00590

 MRCHDU: Convergence failed at  55  side 2    Res =  0.6220E-01
 Side 1  free  transition at x/c =  0.9086   73
 Side 2  free  transition at x/c =  0.2829   29
 idif Ue xi dudx           1  0.43087566      2.47824192E-03   173.86343    
 Uenew xinew           2  2.79595573E-02  1.60813332E-04

   7   rms: 0.5762E+00   max: -.2597E+01   D at   76  2   RLX: 0.193
       a = -3.000      CL =  0.0709
      Cm = -0.1167     CD =  0.01111   =>   CDf =  0.00566    CDp =  0.00545

 MRCHDU: Convergence failed at  74  side 2    Res =  0.2356E+00
 MRCHDU: Convergence failed at  75  side 2    Res =  0.1595E+00
 MRCHDU: Convergence failed at  76  side 2    Res =  0.2218E+00
 MRCHDU: Convergence failed at  77  side 2    Res =  0.5394E+00
 MRCHDU: Convergence failed at  78  side 2    Res =  0.4222E+00
 Side 1  free  transition at x/c =  0.9028   71
 Side 2  free  transition at x/c =  0.2772   29

   8   rms: 0.2577E+00   max: 0.2380E+01   T at    2  2   RLX: 0.369
       a = -3.000      CL = -0.0048
      Cm = -0.0864     CD =  0.01122   =>   CDf =  0.00666    CDp =  0.00456

 Side 1  free  transition at x/c =  0.8979   71
 Side 2  free  transition at x/c =  0.2730   29

   9   rms: 0.1803E+00   max: -.1257E+01   D at   83  2   RLX: 0.398
       a = -3.000      CL = -0.0519
      Cm = -0.0791     CD =  0.01125   =>   CDf =  0.00640    CDp =  0.00485

 Side 1  free  transition at x/c =  0.8936   71
 Side 2  free  transition at x/c =  0.2673   29

  10   rms: 0.1076E+00   max: -.7788E+00   D at   81  2   RLX: 0.642
       a = -3.000      CL = -0.0179
      Cm = -0.0903     CD =  0.01081   =>   CDf =  0.00637    CDp =  0.00443

 Side 1  free  transition at x/c =  0.8958   71
 Side 2  free  transition at x/c =  0.2702   29

  11   rms: 0.7960E-01   max: -.3913E+00   D at   80  2
       a = -3.000      CL =  0.0571
      Cm = -0.1087     CD =  0.01035   =>   CDf =  0.00630    CDp =  0.00405

 Side 1  free  transition at x/c =  0.9017   71
 Side 2  free  transition at x/c =  0.2772   29

  12   rms: 0.2897E-01   max: -.1559E+00   D at   73  1
       a = -3.000      CL =  0.0735
      Cm = -0.1120     CD =  0.01024   =>   CDf =  0.00654    CDp =  0.00370

 Side 1  free  transition at x/c =  0.9044   72
 Side 2  free  transition at x/c =  0.2803   29

  13   rms: 0.2132E-01   max: -.3463E+00   T at    2  1
       a = -3.000      CL =  0.0734
      Cm = -0.1120     CD =  0.01019   =>   CDf =  0.00634    CDp =  0.00385

 Side 1  free  transition at x/c =  0.9044   72
 Side 2  free  transition at x/c =  0.2803   29

  14   rms: 0.7390E-03   max: 0.6524E-02   D at   29  2
       a = -3.000      CL =  0.0734
      Cm = -0.1120     CD =  0.01019   =>   CDf =  0.00631    CDp =  0.00388

 Side 1  free  transition at x/c =  0.9044   72
 Side 2  free  transition at x/c =  0.2802   29

  15   rms: 0.4388E-05   max: 0.3502E-04   D at    6  1
       a = -3.000      CL =  0.0734
      Cm = -0.1120     CD =  0.01019   =>   CDf =  0.00631    CDp =  0.00388
 plradd ia,ip,cpol            2           0  4.25403519E-03

 Point added to stored polar  1
 Point written to save file  ys930_Re400k.base.pol                           
 Dump file unspecified or not available
 Calculating wake trajectory ...
 Calculating source influence matrix ...

 Solving BL system ...

 Side 1  free  transition at x/c =  0.9044   72
 Side 2  free  transition at x/c =  0.2802   29

   1   rms: 0.8342E-01   max: -.3866E+00   T at   29  2
       a = -2.500      CL =  0.1133
      Cm = -0.1093     CD =  0.01013   =>   CDf =  0.00631    CDp =  0.00382

 Side 1  free  transition at x/c =  0.8981   72
 Side 2  free  transition at x/c =  0.2922   30

   2   rms: 0.5191E-01   max: -.2903E+00   T at   30  2
       a = -2.500      CL =  0.1185
      Cm = -0.1103     CD =  0.00997   =>   CDf =  0.00641    CDp =  0.00357

 MRCHDU: Convergence failed at  72  side 1    Res =  0.1814E-04
 Side 1  free  transition at x/c =  0.8994   72
 Side 2  free  transition at x/c =  0.3000   30

   3   rms: 0.9606E-02   max: 0.1267E+00   C at   30  2
       a = -2.500      CL =  0.1192
      Cm = -0.1104     CD =  0.01015   =>   CDf =  0.00623    CDp =  0.00392

 Side 1  free  transition at x/c =  0.8994   72
 Side 2  free  transition at x/c =  0.2963   30

   4   rms: 0.1297E-02   max: -.1701E-01   D at   30  2
       a = -2.500      CL =  0.1193
      Cm = -0.1104     CD =  0.01016   =>   CDf =  0.00627    CDp =  0.00389

 Side 1  free  transition at x/c =  0.8994   72
 Side 2  free  transition at x/c =  0.2964   30

   5   rms: 0.9792E-05   max: 0.1058E-03   C at   30  2
       a = -2.500      CL =  0.1193
      Cm = -0.1104     CD =  0.01016   =>   CDf =  0.00626    CDp =  0.00389
 plradd ia,ip,cpol            3           0  6.61956072E-02

 Point added to stored polar  1
 Point written to save file  ys930_Re400k.base.pol                           
 Dump file unspecified or not available
 Calculating wake trajectory ...
 Calculating source influence matrix ...

 Solving BL system ...

 Side 1  free  transition at x/c =  0.8994   72
 Side 2  free  transition at x/c =  0.2964   30

   1   rms: 0.8613E-01   max: -.4191E+00   T at   30  2
       a = -2.000      CL =  0.1697
      Cm = -0.1098     CD =  0.01004   =>   CDf =  0.00627    CDp =  0.00377

 Side 1  free  transition at x/c =  0.8954   72
 Side 2  free  transition at x/c =  0.3144   31

   2   rms: 0.2125E-01   max: -.2088E+00   C at   31  2
       a = -2.000      CL =  0.1723
      Cm = -0.1103     CD =  0.01003   =>   CDf =  0.00627    CDp =  0.00376

 Side 1  free  transition at x/c =  0.8958   72
 Side 2  free  transition at x/c =  0.3214   32

   3   rms: 0.6333E-02   max: -.7879E-01   D at   31  2
       a = -2.000      CL =  0.1723
      Cm = -0.1103     CD =  0.01003   =>   CDf =  0.00622    CDp =  0.00381

 Side 1  free  transition at x/c =  0.8958   72
 Side 2  free  transition at x/c =  0.3219   32

   4   rms: 0.3884E-03   max: 0.5194E-02   C at   32  2
       a = -2.000      CL =  0.1723
      Cm = -0.1103     CD =  0.01003   =>   CDf =  0.00619    CDp =  0.00384

 Side 1  free  transition at x/c =  0.8958   72
 Side 2  free  transition at x/c =  0.3218   32

   5   rms: 0.1645E-05   max: -.1049E-04   C at   32  2
       a = -2.000      CL =  0.1723
      Cm = -0.1103     CD =  0.01003   =>   CDf =  0.00620    CDp =  0.00384
 plradd ia,ip,cpol            4           0  0.11820909    

 Point added to stored polar  1
 Point written to save file  ys930_Re400k.base.pol                           
 Dump file unspecified or not available
 Calculating wake trajectory ...
 Calculating source influence matrix ...

 Solving BL system ...

 Side 1  free  transition at x/c =  0.8958   72
 Side 2  free  transition at x/c =  0.3218   32

   1   rms: 0.1012E+00   max: -.7822E+00   C at   32  2   RLX: 0.639
       a = -1.500      CL =  0.2070
      Cm = -0.1104     CD =  0.00987   =>   CDf =  0.00633    CDp =  0.00354

 Side 1  free  transition at x/c =  0.8940   73
 Side 2  free  transition at x/c =  0.3408   32

   2   rms: 0.1133E+00   max: -.1726E+01   T at    2  1   RLX: 0.290
       a = -1.500      CL =  0.2139
      Cm = -0.1106     CD =  0.00998   =>   CDf =  0.00619    CDp =  0.00379

 Side 1  free  transition at x/c =  0.8937   73
 Side 2  free  transition at x/c =  0.3462   33

   3   rms: 0.4825E-01   max: -.4704E+00   C at   33  2
       a = -1.500      CL =  0.2270
      Cm = -0.1106     CD =  0.00973   =>   CDf =  0.00618    CDp =  0.00355

 Side 1  free  transition at x/c =  0.8930   73
 Side 2  free  transition at x/c =  0.3602   34

   4   rms: 0.3818E-01   max: -.3991E+00   C at   34  2
       a = -1.500      CL =  0.2271
      Cm = -0.1106     CD =  0.00972   =>   CDf =  0.00618    CDp =  0.00353

 Side 1  free  transition at x/c =  0.8931   73
 Side 2  free  transition at x/c =  0.3722   34

   5   rms: 0.5357E-02   max: -.6538E-01   C at   34  2
       a = -1.500      CL =  0.2277
      Cm = -0.1106     CD =  0.00981   =>   CDf =  0.00604    CDp =  0.00378

 Side 1  free  transition at x/c =  0.8931   73
 Side 2  free  transition at x/c =  0.3681   34

   6   rms: 0.1337E-02   max: -.2247E-01   C at   34  2
       a = -1.500      CL =  0.2278
      Cm = -0.1106     CD =  0.00982   =>   CDf =  0.00604    CDp =  0.00378

 Side 1  free  transition at x/c =  0.8931   73
 Side 2  free  transition at x/c =  0.3687   34

   7   rms: 0.8171E-05   max: -.1034E-03   D at   36  2
       a = -1.500      CL =  0.2278
      Cm = -0.1106     CD =  0.00982   =>   CDf =  0.00604    CDp =  0.00379
 plradd ia,ip,cpol            5           0  0.59974265    

 Point added to stored polar  1
 Point written to save file  ys930_Re400k.base.pol                           
 Dump file unspecified or not available
 Calculating wake trajectory ...
 Calculating source influence matrix ...

 Solving BL system ...

 Side 1  free  transition at x/c =  0.8931   73
 Side 2  free  transition at x/c =  0.3687   34

   1   rms: 0.1177E+00   max: -.1496E+01   C at   34  2   RLX: 0.334
       a = -1.000      CL =  0.2466
      Cm = -0.1108     CD =  0.00976   =>   CDf =  0.00604    CDp =  0.00372

 Side 1  free  transition at x/c =  0.8922   73
 Side 2  free  transition at x/c =  0.3891   36

   2   rms: 0.1045E+00   max: -.1411E+01   C at   36  2   RLX: 0.354
       a = -1.000      CL =  0.2599
      Cm = -0.1110     CD =  0.00969   =>   CDf =  0.00600    CDp =  0.00369

 Side 1  free  transition at x/c =  0.8917   73
 Side 2  free  transition at x/c =  0.4021   37

   3   rms: 0.8299E-01   max: -.1138E+01   C at   37  2   RLX: 0.439
       a = -1.000      CL =  0.2707
      Cm = -0.1111     CD =  0.00966   =>   CDf =  0.00597    CDp =  0.00369

 Side 1  free  transition at x/c =  0.8913   72
 Side 2  free  transition at x/c =  0.4160   38

   4   rms: 0.6136E-01   max: -.9250E+00   C at   38  2   RLX: 0.541
       a = -1.000      CL =  0.2731
      Cm = -0.1103     CD =  0.00968   =>   CDf =  0.00592    CDp =  0.00376

 Side 1  free  transition at x/c =  0.8900   72
 Side 2  free  transition at x/c =  0.4284   39

   5   rms: 0.4715E-01   max: -.7493E+00   C at   39  2   RLX: 0.667
       a = -1.000      CL =  0.2751
      Cm = -0.1099     CD =  0.00968   =>   CDf =  0.00586    CDp =  0.00382

 Side 1  free  transition at x/c =  0.8894   72
 Side 2  free  transition at x/c =  0.4415   40

   6   rms: 0.3034E-01   max: -.5105E+00   C at   40  2   RLX: 0.979
       a = -1.000      CL =  0.2761
      Cm = -0.1097     CD =  0.00966   =>   CDf =  0.00580    CDp =  0.00386

 Side 1  free  transition at x/c =  0.8892   72
 Side 2  free  transition at x/c =  0.4548   41

   7   rms: 0.1203E-01   max: -.2099E+00   C at   41  2
       a = -1.000      CL =  0.2763
      Cm = -0.1097     CD =  0.00967   =>   CDf =  0.00574    CDp =  0.00394

 Side 1  free  transition at x/c =  0.8892   72
 Side 2  free  transition at x/c =  0.4590   41

   8   rms: 0.2722E-03   max: -.3472E-02   D at   43  2
       a = -1.000      CL =  0.2763
      Cm = -0.1097     CD =  0.00968   =>   CDf =  0.00569    CDp =  0.00398

 Side 1  free  transition at x/c =  0.8892   72
 Side 2  free  transition at x/c =  0.4589   41

   9   rms: 0.1427E-05   max: -.1125E-04   D at   43  2
       a = -1.000      CL =  0.2763
      Cm = -0.1097     CD =  0.00968   =>   CDf =  0.00570    CDp =  0.00398
 plradd ia,ip,cpol            6           0  0.57289511    

 Point added to stored polar  1
 Point written to save file  ys930_Re400k.base.pol                           
 Dump file unspecified or not available
 Calculating wake trajectory ...
 Calculating source influence matrix ...

 Solving BL system ...

 Side 1  free  transition at x/c =  0.8892   72
 Side 2  free  transition at x/c =  0.4589   41

   1   rms: 0.1717E+00   max: -.2806E+01   C at   41  2   RLX: 0.178
       a = -0.500      CL =  0.2831
      Cm = -0.1092     CD =  0.00967   =>   CDf =  0.00570    CDp =  0.00397

 Side 1  free  transition at x/c =  0.8880   72
 Side 2  free  transition at x/c =  0.4761   42

   2   rms: 0.1311E+00   max: -.2106E+01   C at   42  2   RLX: 0.237
       a = -0.500      CL =  0.2920
      Cm = -0.1089     CD =  0.00968   =>   CDf =  0.00564    CDp =  0.00404

 Side 1  free  transition at x/c =  0.8869   72
 Side 2  free  transition at x/c =  0.4980   44

   3   rms: 0.1255E+00   max: -.2085E+01   C at   44  2   RLX: 0.240
       a = -0.500      CL =  0.2986
      Cm = -0.1086     CD =  0.00963   =>   CDf =  0.00556    CDp =  0.00408

 Side 1  free  transition at x/c =  0.8861   72
 Side 2  free  transition at x/c =  0.5137   45

   4   rms: 0.9878E-01   max: -.1656E+01   C at   45  2   RLX: 0.302
       a = -0.500      CL =  0.3055
      Cm = -0.1084     CD =  0.00961   =>   CDf =  0.00550    CDp =  0.00411

 Side 1  free  transition at x/c =  0.8854   72
 Side 2  free  transition at x/c =  0.5317   46

   5   rms: 0.7303E-01   max: -.1241E+01   C at   46  2   RLX: 0.403
       a = -0.500      CL =  0.3120
      Cm = -0.1083     CD =  0.00958   =>   CDf =  0.00543    CDp =  0.00415

 Side 1  free  transition at x/c =  0.8848   72
 Side 2  free  transition at x/c =  0.5545   48

   6   rms: 0.5936E-01   max: -.1033E+01   C at   48  2   RLX: 0.484
       a = -0.500      CL =  0.3162
      Cm = -0.1081     CD =  0.00951   =>   CDf =  0.00534    CDp =  0.00417

 Side 1  free  transition at x/c =  0.8843   72
 Side 2  free  transition at x/c =  0.5723   49

   7   rms: 0.3240E-01   max: -.5623E+00   C at   49  2   RLX: 0.889
       a = -0.500      CL =  0.3204
      Cm = -0.1079     CD =  0.00947   =>   CDf =  0.00529    CDp =  0.00417

 Side 1  free  transition at x/c =  0.8840   73
 Side 2  free  transition at x/c =  0.5994   50

   8   rms: 0.2508E-02   max: 0.2649E-01   D at   49  2
       a = -0.500      CL =  0.3206
      Cm = -0.1078     CD =  0.00944   =>   CDf =  0.00518    CDp =  0.00426

 Side 1  free  transition at x/c =  0.8839   73
 Side 2  free  transition at x/c =  0.6013   50

   9   rms: 0.2485E-03   max: -.2644E-02   D at    5  1
       a = -0.500      CL =  0.3206
      Cm = -0.1078     CD =  0.00944   =>   CDf =  0.00518    CDp =  0.00426

 Side 1  free  transition at x/c =  0.8839   73
 Side 2  free  transition at x/c =  0.6012   50

  10   rms: 0.3318E-05   max: -.4433E-04   C at   50  2
       a = -0.500      CL =  0.3206
      Cm = -0.1078     CD =  0.00944   =>   CDf =  0.00518    CDp =  0.00426
 plradd ia,ip,cpol            7           0  0.55946404    

 Point added to stored polar  1
 Point written to save file  ys930_Re400k.base.pol                           
 Dump file unspecified or not available
 Calculating wake trajectory ...
 Calculating source influence matrix ...

 Solving BL system ...

 Side 1  free  transition at x/c =  0.8839   73
 Side 2  free  transition at x/c =  0.6012   50

   1   rms: 0.2130E+00   max: -.3503E+01   C at   50  2   RLX: 0.143
       a =  0.000      CL =  0.3276
      Cm = -0.1076     CD =  0.00939   =>   CDf =  0.00518    CDp =  0.00421

 Side 1  free  transition at x/c =  0.8833   73
 Side 2  free  transition at x/c =  0.6280   52

   2   rms: 0.1689E+00   max: -.2725E+01   C at   52  2   RLX: 0.184
       a =  0.000      CL =  0.3354
      Cm = -0.1074     CD =  0.00933   =>   CDf =  0.00508    CDp =  0.00425

 Side 1  free  transition at x/c =  0.8827   73
 Side 2  free  transition at x/c =  0.6650   55

   3   rms: 0.1438E+00   max: -.2331E+01   C at   55  2   RLX: 0.215
       a =  0.000      CL =  0.3423
      Cm = -0.1070     CD =  0.00923   =>   CDf =  0.00495    CDp =  0.00428

 Side 1  free  transition at x/c =  0.8821   73
 Side 2  free  transition at x/c =  0.6976   57

   4   rms: 0.6117E-01   max: -.7241E+00   C at   57  2   RLX: 0.691
       a =  0.000      CL =  0.3627
      Cm = -0.1069     CD =  0.00917   =>   CDf =  0.00485    CDp =  0.00432

 Side 1  free  transition at x/c =  0.8807   73
 Side 2  free  transition at x/c =  0.7874   64

   5   rms: 0.6633E-01   max: -.1096E+01   C at   64  2   RLX: 0.456
       a =  0.000      CL =  0.3633
      Cm = -0.1055     CD =  0.00891   =>   CDf =  0.00455    CDp =  0.00436

 Side 1  free  transition at x/c =  0.8805   73
 Side 2  free  transition at x/c =  0.7925   64

   6   rms: 0.2794E-01   max: -.4446E+00   C at   64  2
       a =  0.000      CL =  0.3686
      Cm = -0.1060     CD =  0.00890   =>   CDf =  0.00454    CDp =  0.00436

 Side 1  free  transition at x/c =  0.8802   73
 Side 2  free  transition at x/c =  0.8094   66

   7   rms: 0.5120E-02   max: 0.8410E-01   C at   66  2
       a =  0.000      CL =  0.3686
      Cm = -0.1060     CD =  0.00891   =>   CDf =  0.00444    CDp =  0.00446

 Side 1  free  transition at x/c =  0.8802   73
 Side 2  free  transition at x/c =  0.8061   66

   8   rms: 0.1575E-03   max: -.2708E-02   C at   66  2
       a =  0.000      CL =  0.3686
      Cm = -0.1060     CD =  0.00891   =>   CDf =  0.00446    CDp =  0.00445

 Side 1  free  transition at x/c =  0.8802   73
 Side 2  free  transition at x/c =  0.8062   66

   9   rms: 0.1519E-05   max: -.2520E-04   C at   66  2
       a =  0.000      CL =  0.3686
      Cm = -0.1060     CD =  0.00891   =>   CDf =  0.00446    CDp =  0.00445
 plradd ia,ip,cpol            8           0  0.51912910    

 Point added to stored polar  1
 Point written to save file  ys930_Re400k.base.pol                           
 Dump file unspecified or not available
 Calculating wake trajectory ...
 Calculating source influence matrix ...

 Solving BL system ...

 Side 1  free  transition at x/c =  0.8802   73
 Side 2  free  transition at x/c =  0.8062   66

   1   rms: 0.3064E+00   max: -.5129E+01   C at   66  2   RLX: 0.097
       a =  0.500      CL =  0.3731
      Cm = -0.1057     CD =  0.00883   =>   CDf =  0.00446    CDp =  0.00437

 Side 1  free  transition at x/c =  0.8799   73
 Side 2  free  transition at x/c =  0.8262   67

   2   rms: 0.2552E+00   max: -.4167E+01   C at   67  2   RLX: 0.120
       a =  0.500      CL =  0.3791
      Cm = -0.1057     CD =  0.00880   =>   CDf =  0.00439    CDp =  0.00440

 Side 1  free  transition at x/c =  0.8796   73
 Side 2  free  transition at x/c =  0.8555   69

   3   rms: 0.2189E+00   max: -.3469E+01   C at   69  2   RLX: 0.144
       a =  0.500      CL =  0.3863
      Cm = -0.1057     CD =  0.00875   =>   CDf =  0.00431    CDp =  0.00444

 Side 1  free  transition at x/c =  0.8794   73
 Side 2  free  transition at x/c =  0.8949   72

   4   rms: 0.2096E+00   max: -.3004E+01   C at   72  2   RLX: 0.166
       a =  0.500      CL =  0.4005
      Cm = -0.1072     CD =  0.00868   =>   CDf =  0.00421    CDp =  0.00447

 Side 1  free  transition at x/c =  0.8795   73
 Side 2  free  transition at x/c =  0.9324   75

   5   rms: 0.1479E+00   max: -.1364E+01   C at   75  2   RLX: 0.367
       a =  0.500      CL =  0.4422
      Cm = -0.1137     CD =  0.00853   =>   CDf =  0.00417    CDp =  0.00436

 Side 1  free  transition at x/c =  0.8805   73
 Side 2  free  transition at x/c =  0.9532   76

   6   rms: 0.3673E-01   max: 0.3441E+00   C at   76  2
       a =  0.500      CL =  0.4444
      Cm = -0.1098     CD =  0.00879   =>   CDf =  0.00412    CDp =  0.00467

 Side 1  free  transition at x/c =  0.8782   72
 Side 2 forced transition at x/c =  1.0000   80

   7   rms: 0.1202E+00   max: 0.1453E+01   C at   80  2   RLX: 0.991
       a =  0.500      CL =  0.5313
      Cm = -0.1283     CD =  0.00784   =>   CDf =  0.00411    CDp =  0.00373

 MRCHDU: Convergence failed at  75  side 1    Res =  0.8362E+01
 MRCHDU: Convergence failed at  76  side 1    Res =  0.8672E+01
 MRCHDU: Convergence failed at  77  side 1    Res =  0.9461E+01
 MRCHDU: Convergence failed at  78  side 1    Res =  0.5900E+02
 MRCHDU: Convergence failed at  79  side 1    Res =  0.3704E+02
 MRCHDU: Convergence failed at  80  side 1    Res =  0.2327E+02
 MRCHDU: Convergence failed at  81  side 1    Res =  0.3390E+02
 MRCHDU: Convergence failed at  82  side 1    Res =  0.4578E+02
 MRCHDU: Convergence failed at  83  side 1    Res =  0.4033E+03
 Side 1  free  transition at x/c =  0.8932   75
 Side 2  free  transition at x/c =  0.9722   77

   8   rms: 0.4784E+00   max: 0.2802E+01   D at   81  2   RLX: 0.535
       a =  0.500      CL =  0.4600
      Cm = -0.1236     CD =  0.00508   =>   CDf =  0.00397    CDp =  0.00111

 Side 1  free  transition at x/c =  0.8761   73
 Side 2 forced transition at x/c =  1.0000   79

   9   rms: 0.8759E+00   max: -.6577E+01   T at   73  1   RLX: 0.076
       a =  0.500      CL =  0.5029
[...]
       a =  7.500      CL =  1.2177
      Cm = -0.2264     CD =*********   =>   CDf =  0.00281    CDp =*********

 MRCHDU: Convergence failed at  92  side 2    Res =  0.9595E-02
 MRCHDU: Convergence failed at  93  side 2    Res =  0.9227E-01
 MRCHDU: Convergence failed at  94  side 2    Res =  0.4745E-01
 MRCHDU: Convergence failed at  95  side 2    Res =  0.4314E-01
 MRCHDU: Convergence failed at  96  side 2    Res =  0.4913E-02
 MRCHDU: Convergence failed at  97  side 2    Res =  0.1609E-02
 MRCHDU: Convergence failed at  98  side 2    Res =  0.5120E-02
 Side 1  free  transition at x/c =  0.0169   10
 Side 2 forced transition at x/c =  1.0000   77

 124   rms: 0.3502E+03   max: 0.5598E+04   T at   97  2   RLX: 0.000
       a =  7.500      CL =  1.2191
      Cm = -0.2266     CD =834.40955   =>   CDf =  0.00281    CDp =834.40674

 MRCHDU: Convergence failed at  92  side 2    Res =  0.9497E-02
 MRCHDU: Convergence failed at  93  side 2    Res =  0.9283E-01
 MRCHDU: Convergence failed at  94  side 2    Res =  0.4722E-01
 MRCHDU: Convergence failed at  95  side 2    Res =  0.2021E+00
 MRCHDU: Convergence failed at  96  side 2    Res =  0.3827E-01
 MRCHDU: Convergence failed at  97  side 2    Res =  0.2654E-01
 Side 1  free  transition at x/c =  0.0169   10
 Side 2 forced transition at x/c =  1.0000   77

 125   rms: 0.1027E+03   max: -.1319E+04   C at   97  2   RLX: 0.000
       a =  7.500      CL =  1.2211
      Cm = -0.2268     CD =*********   =>   CDf =  0.00281    CDp =*********

 MRCHDU: Convergence failed at  92  side 2    Res =  0.9350E-02
 MRCHDU: Convergence failed at  93  side 2    Res =  0.9369E-01
 MRCHDU: Convergence failed at  94  side 2    Res =  0.4734E-01
 MRCHDU: Convergence failed at  95  side 2    Res =  0.4398E-01
 MRCHDU: Convergence failed at  96  side 2    Res =  0.2156E-01
 MRCHDU: Convergence failed at  97  side 2    Res =  0.5380E-02
 Side 1  free  transition at x/c =  0.0169   10
 Side 2 forced transition at x/c =  1.0000   77

 126   rms: 0.7288E+03   max: 0.1288E+05   C at   98  2   RLX: 0.000
       a =  7.500      CL =  1.2218
      Cm = -0.2269     CD =*********   =>   CDf =  0.00282    CDp =*********

 MRCHDU: Convergence failed at  92  side 2    Res =  0.9305E-02
 MRCHDU: Convergence failed at  93  side 2    Res =  0.9395E-01
 MRCHDU: Convergence failed at  94  side 2    Res =  0.4735E-01
 MRCHDU: Convergence failed at  95  side 2    Res =  0.4764E-01
 MRCHDU: Convergence failed at  96  side 2    Res =  0.3617E-01
 MRCHDU: Convergence failed at  97  side 2    Res =  0.1254E-01
 Side 1  free  transition at x/c =  0.0169   10
 Side 2 forced transition at x/c =  1.0000   77

 127   rms: 0.1377E+03   max: -.1744E+04   T at   97  2   RLX: 0.000
       a =  7.500      CL =  1.2234
      Cm = -0.2270     CD =*********   =>   CDf =  0.00282    CDp =*********

 MRCHDU: Convergence failed at  92  side 2    Res =  0.9192E-02
 MRCHDU: Convergence failed at  93  side 2    Res =  0.9462E-01
 MRCHDU: Convergence failed at  94  side 2    Res =  0.4749E-01
 MRCHDU: Convergence failed at  95  side 2    Res =  0.4692E-01
 MRCHDU: Convergence failed at  96  side 2    Res =  0.2165E-01
 MRCHDU: Convergence failed at  97  side 2    Res =  0.2732E-02
 MRCHDU: Convergence failed at  98  side 2    Res =  0.5799E-02
 Side 1  free  transition at x/c =  0.0169   10
 Side 2 forced transition at x/c =  1.0000   77

 128   rms: 0.1104E+04   max: 0.1760E+05   T at   97  2   RLX: 0.000
       a =  7.500      CL =  1.2238
      Cm = -0.2271     CD =421.23685   =>   CDf =  0.00282    CDp =421.23404

 MRCHDU: Convergence failed at  92  side 2    Res =  0.9162E-02
 MRCHDU: Convergence failed at  93  side 2    Res =  0.9479E-01
 MRCHDU: Convergence failed at  94  side 2    Res =  0.4722E-01
 MRCHDU: Convergence failed at  95  side 2    Res =  0.6443E-01
 MRCHDU: Convergence failed at  96  side 2    Res =  0.1233E+01
 MRCHDU: Convergence failed at  97  side 2    Res =  0.6967E-01
 Side 1  free  transition at x/c =  0.0169   10
 Side 2 forced transition at x/c =  1.0000   77

 129   rms: 0.7621E+02   max: -.1075E+04   C at   97  2   RLX: 0.000
       a =  7.500      CL =  1.2264
      Cm = -0.2274     CD =*********   =>   CDf =  0.00282    CDp =*********

 MRCHDU: Convergence failed at  92  side 2    Res =  0.8979E-02
 MRCHDU: Convergence failed at  93  side 2    Res =  0.9587E-01
 MRCHDU: Convergence failed at  94  side 2    Res =  0.4756E-01
 MRCHDU: Convergence failed at  95  side 2    Res =  0.6160E-01
 MRCHDU: Convergence failed at  96  side 2    Res =  0.1201E+00
 MRCHDU: Convergence failed at  97  side 2    Res =  0.1533E-01
 Side 1  free  transition at x/c =  0.0169   10
 Side 2 forced transition at x/c =  1.0000   77

 130   rms: 0.6225E+03   max: -.8834E+04   T at   99  2   RLX: 0.000
       a =  7.500      CL =  1.2267
      Cm = -0.2274     CD =*********   =>   CDf =  0.00283    CDp =*********

 MRCHDU: Convergence failed at  92  side 2    Res =  0.8955E-02
 MRCHDU: Convergence failed at  93  side 2    Res =  0.9603E-01
 MRCHDU: Convergence failed at  94  side 2    Res =  0.4735E-01
 MRCHDU: Convergence failed at  95  side 2    Res =  0.6683E-01
 MRCHDU: Convergence failed at  96  side 2    Res =  0.5352E-01
 MRCHDU: Convergence failed at  97  side 2    Res =  0.3155E-02
 MRCHDU: Convergence failed at  98  side 2    Res =  0.7184E-02
 Side 1  free  transition at x/c =  0.0169   10
 Side 2 forced transition at x/c =  1.0000   77

 131   rms: 0.1259E+03   max: 0.2037E+04   T at   99  2   RLX: 0.001
       a =  7.500      CL =  1.2306
      Cm = -0.2278     CD =*********   =>   CDf =  0.00283    CDp =*********

 MRCHDU: Convergence failed at  92  side 2    Res =  0.8671E-02
 MRCHDU: Convergence failed at  93  side 2    Res =  0.9765E-01
 MRCHDU: Convergence failed at  94  side 2    Res =  0.4795E-01
 MRCHDU: Convergence failed at  95  side 2    Res =  0.6129E-01
 MRCHDU: Convergence failed at  96  side 2    Res =  0.4497E+00
 MRCHDU: Convergence failed at  97  side 2    Res =  0.4118E-01
 Side 1  free  transition at x/c =  0.0169   10
 Side 2 forced transition at x/c =  1.0000   77

 132   rms: 0.1348E+03   max: -.1811E+04   T at   99  2   RLX: 0.000
       a =  7.500      CL =  1.2321
      Cm = -0.2280     CD =*********   =>   CDf =  0.00283    CDp =*********

 MRCHDU: Convergence failed at  92  side 2    Res =  0.8570E-02
 MRCHDU: Convergence failed at  93  side 2    Res =  0.9826E-01
 MRCHDU: Convergence failed at  94  side 2    Res =  0.4806E-01
 MRCHDU: Convergence failed at  95  side 2    Res =  0.6109E-01
 MRCHDU: Convergence failed at  96  side 2    Res =  0.7871E-01
 MRCHDU: Convergence failed at  97  side 2    Res =  0.7311E-02
 Side 1  free  transition at x/c =  0.0168   10
 Side 2 forced transition at x/c =  1.0000   77

 133   rms: 0.1562E+03   max: 0.2368E+04   T at   99  2   RLX: 0.001
       a =  7.500      CL =  1.2353
      Cm = -0.2284     CD =830.83459   =>   CDf =  0.00284    CDp =830.83179

 MRCHDU: Convergence failed at  92  side 2    Res =  0.8338E-02
 MRCHDU: Convergence failed at  93  side 2    Res =  0.9960E-01
 MRCHDU: Convergence failed at  94  side 2    Res =  0.4876E-01
 MRCHDU: Convergence failed at  95  side 2    Res =  0.5247E-01
 MRCHDU: Convergence failed at  96  side 2    Res =  0.1963E+01
 Side 1  free  transition at x/c =  0.0168   10
 Side 2 forced transition at x/c =  1.0000   77

 134   rms: 0.3397E+03   max: -.5515E+04   C at   97  2   RLX: 0.000
       a =  7.500      CL =  1.2359
      Cm = -0.2285     CD =824.86560   =>   CDf =  0.00284    CDp =824.86273

 MRCHDU: Convergence failed at  92  side 2    Res =  0.8302E-02
 MRCHDU: Convergence failed at  93  side 2    Res =  0.9982E-01
 MRCHDU: Convergence failed at  94  side 2    Res =  0.4881E-01
 MRCHDU: Convergence failed at  95  side 2    Res =  0.5205E-01
 MRCHDU: Convergence failed at  96  side 2    Res =  0.5511E-01
 MRCHDU: Convergence failed at  97  side 2    Res =  0.1238E+00
 Side 1  free  transition at x/c =  0.0168   10
 Side 2 forced transition at x/c =  1.0000   77

 135   rms: 0.8967E+02   max: -.1225E+04   C at   97  2   RLX: 0.000
       a =  7.500      CL =  1.2379
      Cm = -0.2287     CD =*********   =>   CDf =  0.00284    CDp =*********

 MRCHDU: Convergence failed at  92  side 2    Res =  0.8143E-02
 MRCHDU: Convergence failed at  93  side 2    Res =  0.1008E+00
 MRCHDU: Convergence failed at  94  side 2    Res =  0.3104E+00
 MRCHDU: Convergence failed at  95  side 2    Res =  0.1996E+00
 MRCHDU: Convergence failed at  96  side 2    Res =  0.8770E+00
 MRCHDU: Convergence failed at  97  side 2    Res =  0.7005E-01
 Side 1  free  transition at x/c =  0.0168   10
 Side 2 forced transition at x/c =  1.0000   77

 136   rms: 0.2953E+03   max: 0.5464E+04   T at   99  2   RLX: 0.000
       a =  7.500      CL =  1.2391
      Cm = -0.2288     CD =183.62347   =>   CDf =  0.00285    CDp =183.62062

 MRCHDU: Convergence failed at  92  side 2    Res =  0.7480E-02
 MRCHDU: Convergence failed at  93  side 2    Res =  0.1868E+00
 MRCHDU: Convergence failed at  94  side 2    Res =  0.1494E+00
 MRCHDU: Convergence failed at  95  side 2    Res =  0.5829E+00
 MRCHDU: Convergence failed at  96  side 2    Res =  0.1388E+00
 Side 1  free  transition at x/c =  0.0168   10
 Side 2 forced transition at x/c =  1.0000   77

 137   rms: 0.6397E+02   max: -.9512E+03   C at   97  2   RLX: 0.001
       a =  7.500      CL =  1.2416
      Cm = -0.2291     CD =*********   =>   CDf =  0.00285    CDp =*********

 MRCHDU: Convergence failed at  92  side 2    Res =  0.7082E-02
 MRCHDU: Convergence failed at  93  side 2    Res =  0.1413E+00
 MRCHDU: Convergence failed at  94  side 2    Res =  0.1616E+00
 MRCHDU: Convergence failed at  95  side 2    Res =  0.1409E+00
 MRCHDU: Convergence failed at  96  side 2    Res =  0.3113E+00
 MRCHDU: Convergence failed at  97  side 2    Res =  0.5810E+00
 Side 1  free  transition at x/c =  0.0168   10
 Side 2 forced transition at x/c =  1.0000   77

 138   rms: 0.9161E+02   max: -.1661E+04   T at   99  2   RLX: 0.000
       a =  7.500      CL =  1.2437
      Cm = -0.2293     CD =*********   =>   CDf =  0.00286    CDp =*********

 MRCHDU: Convergence failed at  92  side 2    Res =  0.7757E-02
 MRCHDU: Convergence failed at  93  side 2    Res =  0.1359E+00
 MRCHDU: Convergence failed at  94  side 2    Res =  0.1402E+00
 MRCHDU: Convergence failed at  95  side 2    Res =  0.1610E+00
 MRCHDU: Convergence failed at  96  side 2    Res =  0.3839E+00
 MRCHDU: Convergence failed at  97  side 2    Res =  0.2603E+00
 Side 1  free  transition at x/c =  0.0168   10
 Side 2 forced transition at x/c =  1.0000   77

 139   rms: 0.1057E+03   max: 0.2291E+04   T at   99  2   RLX: 0.001
       a =  7.500      CL =  1.2454
      Cm = -0.2295     CD =524.93121   =>   CDf =  0.00286    CDp =524.92834

 MRCHDU: Convergence failed at  92  side 2    Res =  0.5696E-02
 MRCHDU: Convergence failed at  93  side 2    Res =  0.3012E+00
 MRCHDU: Convergence failed at  94  side 2    Res =  0.1168E+00
 MRCHDU: Convergence failed at  95  side 2    Res =  0.1715E+00
 MRCHDU: Convergence failed at  96  side 2    Res =  0.7461E-01
 MRCHDU: Convergence failed at  97  side 2    Res =  0.2083E+00
 Side 1  free  transition at x/c =  0.0168   10
 Side 2 forced transition at x/c =  1.0000   77

 140   rms: 0.6548E+02   max: -.9417E+03   T at   99  2   RLX: 0.001
       a =  7.500      CL =  1.2482
      Cm = -0.2298     CD =*********   =>   CDf =  0.00286    CDp =*********

 MRCHDU: Convergence failed at  92  side 2    Res =  0.5435E-02
 MRCHDU: Convergence failed at  93  side 2    Res =  0.1292E+00
 MRCHDU: Convergence failed at  94  side 2    Res =  0.1611E+00
 MRCHDU: Convergence failed at  95  side 2    Res =  0.1396E+00
 MRCHDU: Convergence failed at  96  side 2    Res =  0.6568E-01
 MRCHDU: Convergence failed at  97  side 2    Res =  0.5750E-02
 MRCHDU: Convergence failed at  98  side 2    Res =  0.1541E-01
 Side 1  free  transition at x/c =  0.0168   10
 Side 2 forced transition at x/c =  1.0000   77

 141   rms: 0.1250E+04   max: -.2043E+05   T at   99  2   RLX: 0.000
       a =  7.500      CL =  1.2483
      Cm = -0.2298     CD =*********   =>   CDf =  0.00287    CDp =*********

 MRCHDU: Convergence failed at  92  side 2    Res =  0.5372E-02
 MRCHDU: Convergence failed at  93  side 2    Res =  0.1292E+00
 MRCHDU: Convergence failed at  94  side 2    Res =  0.1588E+00
 MRCHDU: Convergence failed at  95  side 2    Res =  0.1397E+00
 MRCHDU: Convergence failed at  96  side 2    Res =  0.5077E-01
 MRCHDU: Convergence failed at  97  side 2    Res =  0.3262E-02
 MRCHDU: Convergence failed at  98  side 2    Res =  0.4146E-02
 Side 1  free  transition at x/c =  0.0168   10
 Side 2 forced transition at x/c =  1.0000   77

 142   rms: 0.1002E+03   max: 0.1682E+04   T at   99  2   RLX: 0.001
       a =  7.500      CL =  1.2530
      Cm = -0.2304     CD =*********   =>   CDf =  0.00287    CDp =*********

 MRCHDU: Convergence failed at  92  side 2    Res =  0.5222E-02
 MRCHDU: Convergence failed at  93  side 2    Res =  0.1276E+00
 MRCHDU: Convergence failed at  94  side 2    Res =  0.1887E+00
 MRCHDU: Convergence failed at  95  side 2    Res =  0.1387E+00
 MRCHDU: Convergence failed at  96  side 2    Res =  0.1057E+01
 MRCHDU: Convergence failed at  97  side 2    Res =  0.6925E-01
 Side 1  free  transition at x/c =  0.0167   10
 Side 2 forced transition at x/c =  1.0000   77

 143   rms: 0.5947E+03   max: -.1016E+05   T at   99  2   RLX: 0.000
       a =  7.500      CL =  1.2534
      Cm = -0.2304     CD =*********   =>   CDf =  0.00288    CDp =*********

 MRCHDU: Convergence failed at  92  side 2    Res =  0.5362E-02
 MRCHDU: Convergence failed at  93  side 2    Res =  0.1332E+00
 MRCHDU: Convergence failed at  94  side 2    Res =  0.1666E+00
 MRCHDU: Convergence failed at  95  side 2    Res =  0.1390E+00
 MRCHDU: Convergence failed at  96  side 2    Res =  0.5679E+01
 MRCHDU: Convergence failed at  97  side 2    Res =  0.2235E-01
 MRCHDU: Convergence failed at  98  side 2    Res =  0.1057E+01
 MRCHDU: Convergence failed at  99  side 2    Res =  0.1539E-01
 Side 1  free  transition at x/c =  0.0167   10
 Side 2 forced transition at x/c =  1.0000   77

 144   rms: 0.6135E+02   max: -.1170E+04   T at   99  2   RLX: 0.000
       a =  7.500      CL =  1.2555
      Cm = -0.2306     CD =*********   =>   CDf =  0.00288    CDp =*********

 MRCHDU: Convergence failed at  92  side 2    Res =  0.5165E-02
 MRCHDU: Convergence failed at  93  side 2    Res =  0.1395E+00
 MRCHDU: Convergence failed at  94  side 2    Res =  0.1692E+00
 MRCHDU: Convergence failed at  95  side 2    Res =  0.1400E+00
 MRCHDU: Convergence failed at  96  side 2    Res =  0.3900E+00
 MRCHDU: Convergence failed at  97  side 2    Res =  0.1866E-01
 MRCHDU: Convergence failed at  98  side 2    Res =  0.3750E-02
 MRCHDU: Convergence failed at  99  side 2    Res =  0.3065E-02
 Side 1  free  transition at x/c =  0.0167   10
 Side 2 forced transition at x/c =  1.0000   77

 145   rms: 0.1452E+03   max: -.2705E+04   T at   99  2   RLX: 0.000
       a =  7.500      CL =  1.2564
      Cm = -0.2307     CD =+Infinity   =>   CDf =  0.00288    CDp =+Infinity

 MRCHDU: Convergence failed at  92  side 2    Res =  0.5042E-02
 MRCHDU: Convergence failed at  93  side 2    Res =  0.1400E+00
 MRCHDU: Convergence failed at  94  side 2    Res =  0.1620E+00
 MRCHDU: Convergence failed at  95  side 2    Res =  0.1401E+00
 MRCHDU: Convergence failed at  96  side 2    Res =  0.1226E+01
 MRCHDU: Convergence failed at  97  side 2    Res =  0.1269E-01
 MRCHDU: Convergence failed at  98  side 2    Res =  0.1448E-02
 MRCHDU: Convergence failed at  99  side 2    Res =  0.4847E-03
 Side 1  free  transition at x/c =  0.0167   10
 Side 2 forced transition at x/c =  1.0000   77

 146   rms: 0.3508E+03   max: -.5828E+04   T at   98  2   RLX: 0.000
       a =  7.500      CL =  1.2567
      Cm = -0.2308     CD =+Infinity   =>   CDf =  0.00288    CDp =+Infinity

 MRCHDU: Convergence failed at  92  side 2    Res =  0.4891E-02
 MRCHDU: Convergence failed at  93  side 2    Res =  0.1402E+00
 MRCHDU: Convergence failed at  94  side 2    Res =  0.1693E+00
 MRCHDU: Convergence failed at  95  side 2    Res =  0.1404E+00
 MRCHDU: Convergence failed at  96  side 2    Res =  0.5873E+00
 MRCHDU: Convergence failed at  97  side 2    Res =  0.7003E-02
 Side 1  free  transition at x/c =  0.0167   10
 Side 2 forced transition at x/c =  1.0000   77

 147   rms: 0.5826E+03   max: -.9039E+04   T at   98  2   RLX: 0.000
       a =  7.500      CL =  1.2568
      Cm = -0.2308     CD =+Infinity   =>   CDf =  0.00288    CDp =+Infinity

 MRCHDU: Convergence failed at  92  side 2    Res =  0.4605E-02
 MRCHDU: Convergence failed at  93  side 2    Res =  0.1400E+00
 MRCHDU: Convergence failed at  94  side 2    Res =  0.9742E+00
 MRCHDU: Convergence failed at  95  side 2    Res =  0.1410E+00
 MRCHDU: Convergence failed at  96  side 2    Res =  0.1395E+00
 MRCHDU: Convergence failed at  97  side 2    Res =  0.2775E-02
 Side 1  free  transition at x/c =  0.0167   10
 Side 2 forced transition at x/c =  1.0000   77

 148   rms: 0.4283E+03   max: -.7176E+04   T at   99  2   RLX: 0.000
       a =  7.500      CL =  1.2569
      Cm = -0.2308     CD =+Infinity   =>   CDf =  0.00288    CDp =+Infinity

 MRCHDU: Convergence failed at  92  side 2    Res =  0.4212E-02
 MRCHDU: Convergence failed at  93  side 2    Res =  0.1372E+00
 MRCHDU: Convergence failed at  94  side 2    Res =  0.2613E+00
 MRCHDU: Convergence failed at  95  side 2    Res =  0.1414E+00
 MRCHDU: Convergence failed at  96  side 2    Res =  0.1383E+00
 MRCHDU: Convergence failed at  97  side 2    Res =  0.1151E-02
 Side 1  free  transition at x/c =  0.0167   10
 Side 2 forced transition at x/c =  1.0000   77

 149   rms: 0.5111E+03   max: -.9685E+04   T at   99  2   RLX: 0.000
       a =  7.500      CL =  1.2569
      Cm = -0.2308     CD =+Infinity   =>   CDf =  0.00288    CDp =+Infinity

 MRCHDU: Convergence failed at  92  side 2    Res =  0.3828E-02
 MRCHDU: Convergence failed at  93  side 2    Res =  0.1307E+00
 MRCHDU: Convergence failed at  94  side 2    Res =  0.3426E+00
 MRCHDU: Convergence failed at  95  side 2    Res =  0.1412E+00
 MRCHDU: Convergence failed at  96  side 2    Res =  0.1570E+00
 MRCHDU: Convergence failed at  97  side 2    Res =  0.5978E-03
 Side 1  free  transition at x/c =  0.0167   10
 Side 2 forced transition at x/c =  1.0000   77

 150   rms: 0.6701E+03   max: -.1269E+05   T at   99  2   RLX: 0.000
       a =  7.500      CL =  1.2569
      Cm = -0.2307     CD =+Infinity   =>   CDf =  0.00288    CDp =+Infinity

 MRCHDU: Convergence failed at  92  side 2    Res =  0.3419E-02
 MRCHDU: Convergence failed at  93  side 2    Res =  0.1245E+00
 MRCHDU: Convergence failed at  94  side 2    Res =  0.1662E+00
 MRCHDU: Convergence failed at  95  side 2    Res =  0.1412E+00
 MRCHDU: Convergence failed at  96  side 2    Res =  0.1526E+00
 MRCHDU: Convergence failed at  97  side 2    Res =  0.3200E-03
 Side 1  free  transition at x/c =  0.0167   10
 Side 2 forced transition at x/c =  1.0000   77

 151   rms: 0.8812E+03   max: -.1615E+05   T at   99  2   RLX: 0.000
       a =  7.500      CL =  1.2568
      Cm = -0.2307     CD =+Infinity   =>   CDf =  0.00288    CDp =+Infinity

 MRCHDU: Convergence failed at  92  side 2    Res =  0.2972E-02
 MRCHDU: Convergence failed at  93  side 2    Res =  0.1182E+00
 MRCHDU: Convergence failed at  94  side 2    Res =  0.1266E+00
 MRCHDU: Convergence failed at  95  side 2    Res =  0.1413E+00
 MRCHDU: Convergence failed at  96  side 2    Res =  0.2035E+00
 MRCHDU: Convergence failed at  97  side 2    Res =  0.1684E-03
 Side 1  free  transition at x/c =  0.0167   10
 Side 2 forced transition at x/c =  1.0000   77

 152   rms: 0.1159E+04   max: -.1978E+05   T at   99  2   RLX: 0.000
       a =  7.500      CL =  1.2566
      Cm = -0.2307     CD =+Infinity   =>   CDf =  0.00288    CDp =+Infinity


[TIMEOUT]
