
 ===================================================
  XFOIL Version 6.99
  Copyright (C) 2000   Mark Drela, Harold Youngren

  This software comes with ABSOLUTELY NO WARRANTY,
    subject to the GNU General Public License.

  Caveat computor
 ===================================================

 File  xfoil.def  not found

   QUIT    Exit program

  .OPER    Direct operating point(s)
  .MDES    Complex mapping design routine
  .QDES    Surface speed design routine
  .GDES    Geometry design routine

   SAVE f  Write airfoil to labeled coordinate file
   PSAV f  Write airfoil to plain coordinate file
   ISAV f  Write airfoil to ISES coordinate file
   MSAV f  Write airfoil to MSES coordinate file
   REVE    Reverse written-airfoil node ordering

   LOAD f  Read buffer airfoil from coordinate file
   NACA i  Set NACA 4,5-digit airfoil and buffer airfoil
   INTE    Set buffer airfoil by interpolating two airfoils
   NORM    Buffer airfoil normalization toggle
   XYCM rr Change CM reference location, currently  0.25000 0.00000

   BEND    Display structural properties of current airfoil

   PCOP    Set current-airfoil panel nodes directly from buffer airfoil points
   PANE    Set current-airfoil panel nodes ( 160 ) based on curvature
  .PPAR    Show/change paneling

  .PLOP    Plotting options

   WDEF f  Write  current-settings file
   RDEF f  Reread current-settings file
   NAME s  Specify new airfoil name
   NINC    Increment name version number

   Z       Zoom    | (available in all menus)
   U       Unzoom  | 

 XFOIL   c>  
 Labeled airfoil file.  Name:  Zv(15-35)16                                     

 Number of input coordinate points: 208
 Counterclockwise ordering
 Max thickness =     0.156454  at x =   0.198
 Max camber    =    -0.008600  at x =   0.458

  LE  x,y  =  -0.00043   0.00488  |   Chord =   1.00044
  TE  x,y  =   1.00000   0.00000  |

 Current airfoil nodes set from buffer airfoil nodes ( 208 )

 XFOIL   c>  
 XFOIL   c>  
 Sharp trailing edge

 Paneling parameters used...
   Number of panel nodes       160
   Panel bunching parameter    1.000
   TE/LE panel density ratio   0.150
   Refined-area/LE panel density ratio    0.200
   Top    side refined area x/c limits  1.000 1.000
   Bottom side refined area x/c limits  1.000 1.000

 XFOIL   c>  
.OPERi   c>  
 Xtr/c     =  1.0000    top    side
 Xtr/c     =  1.0000    bottom side
 Ncrit     =    9.00   ( 0.070 % turb. level )
 Vacc      =  0.0100

 Klag  =  5.6000     Uxwt  =    1.00
 A     =  6.7000     B     =  0.7500       KCt = 0.01485
 CtiniK=  1.8000     CtiniX=  3.3000

..VPAR   c>  
..VPAR   c>  
.OPERi   c>  
 M  =    0.0000
 Re =    500000

.OPERv   c>  
.OPERv   c>  
.OPERv   c>  
 Polar  1 newly created for accumulation
 Airfoil archived with polar: Zv(15-35)16                                     

Enter  polar save filename  OR  <return> for no file   s>  
 New polar save file available

Enter  polar dump filename  OR  <return> for no file   s>  
 Polar dump file will NOT be written

 Polar accumulation enabled

.OPERva   c>   Calculating unit vorticity distributions ...
 Calculating wake trajectory ...
 Calculating source influence matrix ...

 Solving BL system ...

 Initializing BL ...
    side            1  ...
 MRCHUE: Inverse mode at  32     Hk =   4.317
 MRCHUE: Inverse mode at  33     Hk =   5.609
 MRCHUE: Inverse mode at  34     Hk =   6.914
 MRCHUE: Inverse mode at  35     Hk =   8.235
 MRCHUE: Inverse mode at  36     Hk =   9.565
 MRCHUE: Inverse mode at  37     Hk =   5.491
 MRCHUE: Inverse mode at  38     Hk =   2.500
    side            2  ...
 MRCHUE: Inverse mode at  46     Hk =   4.594
 MRCHUE: Inverse mode at  47     Hk =   5.734
 MRCHUE: Inverse mode at  48     Hk =   6.865
 MRCHUE: Inverse mode at  49     Hk =   7.994
 MRCHUE: Inverse mode at  50     Hk =   6.380
 MRCHUE: Inverse mode at  51     Hk =   2.500
 MRCHUE: Inverse mode at  88     Hk =   2.500

 Side 1  free  transition at x/c =  0.2533   37
 Side 2  free  transition at x/c =  0.2650   50

   1   rms: 0.1552E+00   max: -.1148E+01   T at   37  1   RLX: 0.436
       a = -4.000      CL = -0.5192
      Cm =  0.0235     CD =  0.01168   =>   CDf =  0.00821    CDp =  0.00347

 Side 1  free  transition at x/c =  0.2640   37
 Side 2  free  transition at x/c =  0.2793   51

   2   rms: 0.1116E+00   max: -.7996E+00   T at   37  1   RLX: 0.625
       a = -4.000      CL = -0.5137
      Cm =  0.0222     CD =  0.01110   =>   CDf =  0.00810    CDp =  0.00300

 Side 1  free  transition at x/c =  0.2828   38
 Side 2  free  transition at x/c =  0.3022   52

   3   rms: 0.6898E-01   max: -.8855E+00   C at   52  2   RLX: 0.565
       a = -4.000      CL = -0.5047
      Cm =  0.0205     CD =  0.01092   =>   CDf =  0.00785    CDp =  0.00307

 Side 1  free  transition at x/c =  0.3021   39
 Side 2  free  transition at x/c =  0.3144   53

   4   rms: 0.4727E-01   max: -.4452E+00   T at   39  1
       a = -4.000      CL = -0.4953
      Cm =  0.0188     CD =  0.01067   =>   CDf =  0.00770    CDp =  0.00298

 Side 1  free  transition at x/c =  0.3997   44
 Side 2  free  transition at x/c =  0.3308   54

   5   rms: 0.1034E+00   max: -.2227E+01   C at   44  1   RLX: 0.225
       a = -4.000      CL = -0.4876
      Cm =  0.0180     CD =  0.01047   =>   CDf =  0.00725    CDp =  0.00322

 Side 1  free  transition at x/c =  0.4067   44
 Side 2  free  transition at x/c =  0.3316   54

   6   rms: 0.4103E-01   max: -.8017E+00   C at   44  1   RLX: 0.624
       a = -4.000      CL = -0.4895
      Cm =  0.0181     CD =  0.01040   =>   CDf =  0.00722    CDp =  0.00319

 Side 1  free  transition at x/c =  0.4306   46
 Side 2  free  transition at x/c =  0.3335   54

   7   rms: 0.1016E-01   max: 0.1885E+00   D at   39  1
       a = -4.000      CL = -0.4902
      Cm =  0.0181     CD =  0.01034   =>   CDf =  0.00707    CDp =  0.00327

 Side 1  free  transition at x/c =  0.4100   45
 Side 2  free  transition at x/c =  0.3347   54

   8   rms: 0.4377E-02   max: 0.7038E-01   C at   45  1
       a = -4.000      CL = -0.4907
      Cm =  0.0182     CD =  0.01042   =>   CDf =  0.00711    CDp =  0.00331

 Side 1  free  transition at x/c =  0.4054   44
 Side 2  free  transition at x/c =  0.3346   54

   9   rms: 0.6041E-03   max: 0.1326E-01   C at   44  1
       a = -4.000      CL = -0.4907
      Cm =  0.0182     CD =  0.01042   =>   CDf =  0.00713    CDp =  0.00329

 Side 1  free  transition at x/c =  0.4050   44
 Side 2  free  transition at x/c =  0.3346   54

  10   rms: 0.2309E-05   max: 0.4294E-04   C at   44  1
       a = -4.000      CL = -0.4907
      Cm =  0.0182     CD =  0.01042   =>   CDf =  0.00713    CDp =  0.00329
 plradd ia,ip,cpol            1           0  6.24970570E-02

 Point added to stored polar  1
 Point written to save file  zv15_35_Re500k.base.pol                         
 Dump file unspecified or not available
 Calculating wake trajectory ...
 Calculating source influence matrix ...

 Solving BL system ...

 Side 1  free  transition at x/c =  0.4050   44
 Side 2  free  transition at x/c =  0.3346   54

   1   rms: 0.1891E+00   max: 0.3885E+01   C at   44  1   RLX: 0.386
       a = -3.500      CL = -0.4706
      Cm =  0.0186     CD =  0.01047   =>   CDf =  0.00720    CDp =  0.00327

 Side 1  free  transition at x/c =  0.3527   43
 Side 2  free  transition at x/c =  0.3421   53

   2   rms: 0.9042E-01   max: 0.1559E+01   C at   43  1   RLX: 0.903
       a = -3.500      CL = -0.4405
      Cm =  0.0190     CD =  0.01074   =>   CDf =  0.00733    CDp =  0.00341

 Side 1  free  transition at x/c =  0.3085   41
 Side 2  free  transition at x/c =  0.3575   54

   3   rms: 0.1289E-01   max: -.1691E+00   D at   43  1
       a = -3.500      CL = -0.4383
      Cm =  0.0192     CD =  0.01057   =>   CDf =  0.00743    CDp =  0.00315

 Side 1  free  transition at x/c =  0.3058   41
 Side 2  free  transition at x/c =  0.3582   54

   4   rms: 0.8240E-03   max: 0.1020E-01   C at   41  1
       a = -3.500      CL = -0.4382
      Cm =  0.0192     CD =  0.01058   =>   CDf =  0.00745    CDp =  0.00313

 Side 1  free  transition at x/c =  0.3054   41
 Side 2  free  transition at x/c =  0.3581   54

   5   rms: 0.8398E-05   max: 0.1070E-03   C at   41  1
       a = -3.500      CL = -0.4382
      Cm =  0.0192     CD =  0.01058   =>   CDf =  0.00745    CDp =  0.00312
 plradd ia,ip,cpol            2           0  6.89918995E-02

 Point added to stored polar  1
 Point written to save file  zv15_35_Re500k.base.pol                         
 Dump file unspecified or not available
 Calculating wake trajectory ...
 Calculating source influence matrix ...

 Solving BL system ...

 Side 1  free  transition at x/c =  0.3054   41
 Side 2  free  transition at x/c =  0.3581   54

   1   rms: 0.1061E+00   max: 0.9699E+00   C at   41  1   RLX: 0.608
       a = -3.000      CL = -0.4054
      Cm =  0.0197     CD =  0.01071   =>   CDf =  0.00751    CDp =  0.00320

 Side 1  free  transition at x/c =  0.2835   40
 Side 2  free  transition at x/c =  0.3715   54

   2   rms: 0.3696E-01   max: 0.2021E+00   D at   41  1
       a = -3.000      CL = -0.3842
      Cm =  0.0201     CD =  0.01051   =>   CDf =  0.00754    CDp =  0.00297

 Side 1  free  transition at x/c =  0.2767   40
 Side 2  free  transition at x/c =  0.3801   54

   3   rms: 0.5019E-02   max: -.8620E-01   C at   54  2
       a = -3.000      CL = -0.3837
      Cm =  0.0200     CD =  0.01057   =>   CDf =  0.00756    CDp =  0.00300

 Side 1  free  transition at x/c =  0.2767   40
 Side 2  free  transition at x/c =  0.3814   54

   4   rms: 0.5515E-02   max: -.1071E+00   C at   54  2
       a = -3.000      CL = -0.3836
      Cm =  0.0200     CD =  0.01057   =>   CDf =  0.00757    CDp =  0.00300

 Side 1  free  transition at x/c =  0.2767   40
 Side 2  free  transition at x/c =  0.3814   54

   5   rms: 0.5528E-02   max: -.1075E+00   C at   54  2
       a = -3.000      CL = -0.3836
      Cm =  0.0200     CD =  0.01057   =>   CDf =  0.00757    CDp =  0.00300

 Side 1  free  transition at x/c =  0.2767   40
 Side 2  free  transition at x/c =  0.3814   54

   6   rms: 0.5526E-02   max: -.1075E+00   C at   54  2
       a = -3.000      CL = -0.3836
      Cm =  0.0200     CD =  0.01057   =>   CDf =  0.00757    CDp =  0.00300

 Side 1  free  transition at x/c =  0.2767   40
 Side 2  free  transition at x/c =  0.3814   54

   7   rms: 0.5526E-02   max: -.1075E+00   C at   54  2
       a = -3.000      CL = -0.3836
      Cm =  0.0200     CD =  0.01057   =>   CDf =  0.00757    CDp =  0.00300

 Side 1  free  transition at x/c =  0.2767   40
 Side 2  free  transition at x/c =  0.3814   54

   8   rms: 0.5526E-02   max: -.1075E+00   C at   54  2
       a = -3.000      CL = -0.3836
      Cm =  0.0200     CD =  0.01057   =>   CDf =  0.00757    CDp =  0.00300

 Side 1  free  transition at x/c =  0.2767   40
 Side 2  free  transition at x/c =  0.3814   54

   9   rms: 0.5526E-02   max: -.1075E+00   C at   54  2
       a = -3.000      CL = -0.3836
      Cm =  0.0200     CD =  0.01057   =>   CDf =  0.00757    CDp =  0.00300

 Side 1  free  transition at x/c =  0.2767   40
 Side 2  free  transition at x/c =  0.3814   54

  10   rms: 0.5526E-02   max: -.1075E+00   C at   54  2
       a = -3.000      CL = -0.3836
      Cm =  0.0200     CD =  0.01057   =>   CDf =  0.00757    CDp =  0.00300

 Side 1  free  transition at x/c =  0.2767   40
 Side 2  free  transition at x/c =  0.3814   54

  11   rms: 0.5526E-02   max: -.1075E+00   C at   54  2
       a = -3.000      CL = -0.3836
      Cm =  0.0200     CD =  0.01057   =>   CDf =  0.00757    CDp =  0.00300

 Side 1  free  transition at x/c =  0.2767   40
 Side 2  free  transition at x/c =  0.3814   54

  12   rms: 0.5526E-02   max: -.1075E+00   C at   54  2
       a = -3.000      CL = -0.3836
      Cm =  0.0200     CD =  0.01057   =>   CDf =  0.00757    CDp =  0.00300

 Side 1  free  transition at x/c =  0.2767   40
 Side 2  free  transition at x/c =  0.3814   54

  13   rms: 0.5526E-02   max: -.1075E+00   C at   54  2
       a = -3.000      CL = -0.3836
      Cm =  0.0200     CD =  0.01057   =>   CDf =  0.00757    CDp =  0.00300

 Side 1  free  transition at x/c =  0.2767   40
 Side 2  free  transition at x/c =  0.3814   54

  14   rms: 0.5526E-02   max: -.1075E+00   C at   54  2
       a = -3.000      CL = -0.3836
      Cm =  0.0200     CD =  0.01057   =>   CDf =  0.00757    CDp =  0.00300

 Side 1  free  transition at x/c =  0.2767   40
 Side 2  free  transition at x/c =  0.3814   54

  15   rms: 0.5526E-02   max: -.1075E+00   C at   54  2
       a = -3.000      CL = -0.3836
      Cm =  0.0200     CD =  0.01057   =>   CDf =  0.00757    CDp =  0.00300

 Side 1  free  transition at x/c =  0.2767   40
 Side 2  free  transition at x/c =  0.3814   54

  16   rms: 0.5526E-02   max: -.1075E+00   C at   54  2
       a = -3.000      CL = -0.3836
      Cm =  0.0200     CD =  0.01057   =>   CDf =  0.00757    CDp =  0.00300

 Side 1  free  transition at x/c =  0.2767   40
 Side 2  free  transition at x/c =  0.3814   54

  17   rms: 0.5526E-02   max: -.1075E+00   C at   54  2
       a = -3.000      CL = -0.3836
      Cm =  0.0200     CD =  0.01057   =>   CDf =  0.00757    CDp =  0.00300

 Side 1  free  transition at x/c =  0.2767   40
 Side 2  free  transition at x/c =  0.3814   54

  18   rms: 0.5526E-02   max: -.1075E+00   C at   54  2
       a = -3.000      CL = -0.3836
      Cm =  0.0200     CD =  0.01057   =>   CDf =  0.00757    CDp =  0.00300

 Side 1  free  transition at x/c =  0.2767   40
 Side 2  free  transition at x/c =  0.3814   54

  19   rms: 0.5526E-02   max: -.1075E+00   C at   54  2
       a = -3.000      CL = -0.3836
      Cm =  0.0200     CD =  0.01057   =>   CDf =  0.00757    CDp =  0.00300

 Side 1  free  transition at x/c =  0.2767   40
 Side 2  free  transition at x/c =  0.3814   54

  20   rms: 0.5526E-02   max: -.1075E+00   C at   54  2
       a = -3.000      CL = -0.3836
      Cm =  0.0200     CD =  0.01057   =>   CDf =  0.00757    CDp =  0.00300

 Side 1  free  transition at x/c =  0.2767   40
 Side 2  free  transition at x/c =  0.3814   54

  21   rms: 0.5526E-02   max: -.1075E+00   C at   54  2
       a = -3.000      CL = -0.3836
      Cm =  0.0200     CD =  0.01057   =>   CDf =  0.00757    CDp =  0.00300

 Side 1  free  transition at x/c =  0.2767   40
 Side 2  free  transition at x/c =  0.3814   54

  22   rms: 0.5526E-02   max: -.1075E+00   C at   54  2
       a = -3.000      CL = -0.3836
      Cm =  0.0200     CD =  0.01057   =>   CDf =  0.00757    CDp =  0.00300

 Side 1  free  transition at x/c =  0.2767   40
 Side 2  free  transition at x/c =  0.3814   54

  23   rms: 0.5526E-02   max: -.1075E+00   C at   54  2
       a = -3.000      CL = -0.3836
      Cm =  0.0200     CD =  0.01057   =>   CDf =  0.00757    CDp =  0.00300

 Side 1  free  transition at x/c =  0.2767   40
 Side 2  free  transition at x/c =  0.3814   54

  24   rms: 0.5526E-02   max: -.1075E+00   C at   54  2
       a = -3.000      CL = -0.3836
      Cm =  0.0200     CD =  0.01057   =>   CDf =  0.00757    CDp =  0.00300

 Side 1  free  transition at x/c =  0.2767   40
 Side 2  free  transition at x/c =  0.3814   54

  25   rms: 0.5526E-02   max: -.1075E+00   C at   54  2
       a = -3.000      CL = -0.3836
      Cm =  0.0200     CD =  0.01057   =>   CDf =  0.00757    CDp =  0.00300

 Side 1  free  transition at x/c =  0.2767   40
 Side 2  free  transition at x/c =  0.3814   54

  26   rms: 0.5526E-02   max: -.1075E+00   C at   54  2
       a = -3.000      CL = -0.3836
      Cm =  0.0200     CD =  0.01057   =>   CDf =  0.00757    CDp =  0.00300

 Side 1  free  transition at x/c =  0.2767   40
 Side 2  free  transition at x/c =  0.3814   54

  27   rms: 0.5526E-02   max: -.1075E+00   C at   54  2
       a = -3.000      CL = -0.3836
      Cm =  0.0200     CD =  0.01057   =>   CDf =  0.00757    CDp =  0.00300

 Side 1  free  transition at x/c =  0.2767   40
 Side 2  free  transition at x/c =  0.3814   54

  28   rms: 0.5526E-02   max: -.1075E+00   C at   54  2
       a = -3.000      CL = -0.3836
      Cm =  0.0200     CD =  0.01057   =>   CDf =  0.00757    CDp =  0.00300

 Side 1  free  transition at x/c =  0.2767   40
 Side 2  free  transition at x/c =  0.3814   54

  29   rms: 0.5526E-02   max: -.1075E+00   C at   54  2
       a = -3.000      CL = -0.3836
      Cm =  0.0200     CD =  0.01057   =>   CDf =  0.00757    CDp =  0.00300

 Side 1  free  transition at x/c =  0.2767   40
 Side 2  free  transition at x/c =  0.3814   54

  30   rms: 0.5526E-02   max: -.1075E+00   C at   54  2
       a = -3.000      CL = -0.3836
      Cm =  0.0200     CD =  0.01057   =>   CDf =  0.00757    CDp =  0.00300

 Side 1  free  transition at x/c =  0.2767   40
 Side 2  free  transition at x/c =  0.3814   54

  31   rms: 0.5526E-02   max: -.1075E+00   C at   54  2
       a = -3.000      CL = -0.3836
      Cm =  0.0200     CD =  0.01057   =>   CDf =  0.00757    CDp =  0.00300

 Side 1  free  transition at x/c =  0.2767   40
 Side 2  free  transition at x/c =  0.3814   54

  32   rms: 0.5526E-02   max: -.1075E+00   C at   54  2
       a = -3.000      CL = -0.3836
      Cm =  0.0200     CD =  0.01057   =>   CDf =  0.00757    CDp =  0.00300

 Side 1  free  transition at x/c =  0.2767   40
 Side 2  free  transition at x/c =  0.3814   54

  33   rms: 0.5526E-02   max: -.1075E+00   C at   54  2
       a = -3.000      CL = -0.3836
      Cm =  0.0200     CD =  0.01057   =>   CDf =  0.00757    CDp =  0.00300

 Side 1  free  transition at x/c =  0.2767   40
 Side 2  free  transition at x/c =  0.3814   54

  34   rms: 0.5526E-02   max: -.1075E+00   C at   54  2
       a = -3.000      CL = -0.3836
      Cm =  0.0200     CD =  0.01057   =>   CDf =  0.00757    CDp =  0.00300

 Side 1  free  transition at x/c =  0.2767   40
 Side 2  free  transition at x/c =  0.3814   54

  35   rms: 0.5526E-02   max: -.1075E+00   C at   54  2
       a = -3.000      CL = -0.3836
      Cm =  0.0200     CD =  0.01057   =>   CDf =  0.00757    CDp =  0.00300

 Side 1  free  transition at x/c =  0.2767   40
 Side 2  free  transition at x/c =  0.3814   54

  36   rms: 0.5526E-02   max: -.1075E+00   C at   54  2
       a = -3.000      CL = -0.3836
      Cm =  0.0200     CD =  0.01057   =>   CDf =  0.00757    CDp =  0.00300

 Side 1  free  transition at x/c =  0.2767   40
 Side 2  free  transition at x/c =  0.3814   54

  37   rms: 0.5526E-02   max: -.1075E+00   C at   54  2
       a = -3.000      CL = -0.3836
      Cm =  0.0200     CD =  0.01057   =>   CDf =  0.00757    CDp =  0.00300

 Side 1  free  transition at x/c =  0.2767   40
 Side 2  free  transition at x/c =  0.3814   54

  38   rms: 0.5526E-02   max: -.1075E+00   C at   54  2
       a = -3.000      CL = -0.3836
      Cm =  0.0200     CD =  0.01057   =>   CDf =  0.00757    CDp =  0.00300

 Side 1  free  transition at x/c =  0.2767   40
 Side 2  free  transition at x/c =  0.3814   54

  39   rms: 0.5526E-02   max: -.1075E+00   C at   54  2
       a = -3.000      CL = -0.3836
      Cm =  0.0200     CD =  0.01057   =>   CDf =  0.00757    CDp =  0.00300

 Side 1  free  transition at x/c =  0.2767   40
 Side 2  free  transition at x/c =  0.3814   54

  40   rms: 0.5526E-02   max: -.1075E+00   C at   54  2
       a = -3.000      CL = -0.3836
      Cm =  0.0200     CD =  0.01057   =>   CDf =  0.00757    CDp =  0.00300

 Side 1  free  transition at x/c =  0.2767   40
 Side 2  free  transition at x/c =  0.3814   54

  41   rms: 0.5526E-02   max: -.1075E+00   C at   54  2
       a = -3.000      CL = -0.3836
      Cm =  0.0200     CD =  0.01057   =>   CDf =  0.00757    CDp =  0.00300

 Side 1  free  transition at x/c =  0.2767   40
 Side 2  free  transition at x/c =  0.3814   54

  42   rms: 0.5526E-02   max: -.1075E+00   C at   54  2
       a = -3.000      CL = -0.3836
      Cm =  0.0200     CD =  0.01057   =>   CDf =  0.00757    CDp =  0.00300

 Side 1  free  transition at x/c =  0.2767   40
 Side 2  free  transition at x/c =  0.3814   54

  43   rms: 0.5526E-02   max: -.1075E+00   C at   54  2
       a = -3.000      CL = -0.3836
      Cm =  0.0200     CD =  0.01057   =>   CDf =  0.00757    CDp =  0.00300

 Side 1  free  transition at x/c =  0.2767   40
 Side 2  free  transition at x/c =  0.3814   54

  44   rms: 0.5526E-02   max: -.1075E+00   C at   54  2
       a = -3.000      CL = -0.3836
      Cm =  0.0200     CD =  0.01057   =>   CDf =  0.00757    CDp =  0.00300

 Side 1  free  transition at x/c =  0.2767   40
 Side 2  free  transition at x/c =  0.3814   54

  45   rms: 0.5526E-02   max: -.1075E+00   C at   54  2
       a = -3.000      CL = -0.3836
      Cm =  0.0200     CD =  0.01057   =>   CDf =  0.00757    CDp =  0.00300

 Side 1  free  transition at x/c =  0.2767   40
 Side 2  free  transition at x/c =  0.3814   54

  46   rms: 0.5526E-02   max: -.1075E+00   C at   54  2
       a = -3.000      CL = -0.3836
      Cm =  0.0200     CD =  0.01057   =>   CDf =  0.00757    CDp =  0.00300

 Side 1  free  transition at x/c =  0.2767   40
 Side 2  free  transition at x/c =  0.3814   54

  47   rms: 0.5526E-02   max: -.1075E+00   C at   54  2
       a = -3.000      CL = -0.3836
      Cm =  0.0200     CD =  0.01057   =>   CDf =  0.00757    CDp =  0.00300

 Side 1  free  transition at x/c =  0.2767   40
 Side 2  free  transition at x/c =  0.3814   54

  48   rms: 0.5526E-02   max: -.1075E+00   C at   54  2
       a = -3.000      CL = -0.3836
      Cm =  0.0200     CD =  0.01057   =>   CDf =  0.00757    CDp =  0.00300

 Side 1  free  transition at x/c =  0.2767   40
 Side 2  free  transition at x/c =  0.3814   54

  49   rms: 0.5526E-02   max: -.1075E+00   C at   54  2
       a = -3.000      CL = -0.3836
      Cm =  0.0200     CD =  0.01057   =>   CDf =  0.00757    CDp =  0.00300

 Side 1  free  transition at x/c =  0.2767   40
 Side 2  free  transition at x/c =  0.3814   54

  50   rms: 0.5526E-02   max: -.1075E+00   C at   54  2
       a = -3.000      CL = -0.3836
      Cm =  0.0200     CD =  0.01057   =>   CDf =  0.00757    CDp =  0.00300

 Side 1  free  transition at x/c =  0.2767   40
 Side 2  free  transition at x/c =  0.3814   54

  51   rms: 0.5526E-02   max: -.1075E+00   C at   54  2
       a = -3.000      CL = -0.3836
      Cm =  0.0200     CD =  0.01057   =>   CDf =  0.00757    CDp =  0.00300

 Side 1  free  transition at x/c =  0.2767   40
 Side 2  free  transition at x/c =  0.3814   54

  52   rms: 0.5526E-02   max: -.1075E+00   C at   54  2
       a = -3.000      CL = -0.3836
      Cm =  0.0200     CD =  0.01057   =>   CDf =  0.00757    CDp =  0.00300

 Side 1  free  transition at x/c =  0.2767   40
 Side 2  free  transition at x/c =  0.3814   54

  53   rms: 0.5526E-02   max: -.1075E+00   C at   54  2
       a = -3.000      CL = -0.3836
      Cm =  0.0200     CD =  0.01057   =>   CDf =  0.00757    CDp =  0.00300

 Side 1  free  transition at x/c =  0.2767   40
 Side 2  free  transition at x/c =  0.3814   54

  54   rms: 0.5526E-02   max: -.1075E+00   C at   54  2
       a = -3.000      CL = -0.3836
      Cm =  0.0200     CD =  0.01057   =>   CDf =  0.00757    CDp =  0.00300

 Side 1  free  transition at x/c =  0.2767   40
 Side 2  free  transition at x/c =  0.3814   54

  55   rms: 0.5526E-02   max: -.1075E+00   C at   54  2
       a = -3.000      CL = -0.3836
      Cm =  0.0200     CD =  0.01057   =>   CDf =  0.00757    CDp =  0.00300

 Side 1  free  transition at x/c =  0.2767   40
 Side 2  free  transition at x/c =  0.3814   54

  56   rms: 0.5526E-02   max: -.1075E+00   C at   54  2
       a = -3.000      CL = -0.3836
      Cm =  0.0200     CD =  0.01057   =>   CDf =  0.00757    CDp =  0.00300

 Side 1  free  transition at x/c =  0.2767   40
 Side 2  free  transition at x/c =  0.3814   54

  57   rms: 0.5526E-02   max: -.1075E+00   C at   54  2
       a = -3.000      CL = -0.3836
      Cm =  0.0200     CD =  0.01057   =>   CDf =  0.00757    CDp =  0.00300

 Side 1  free  transition at x/c =  0.2767   40
 Side 2  free  transition at x/c =  0.3814   54

  58   rms: 0.5526E-02   max: -.1075E+00   C at   54  2
       a = -3.000      CL = -0.3836
      Cm =  0.0200     CD =  0.01057   =>   CDf =  0.00757    CDp =  0.00300

 Side 1  free  transition at x/c =  0.2767   40
 Side 2  free  transition at x/c =  0.3814   54

  59   rms: 0.5526E-02   max: -.1075E+00   C at   54  2
       a = -3.000      CL = -0.3836
      Cm =  0.0200     CD =  0.01057   =>   CDf =  0.00757    CDp =  0.00300

 Side 1  free  transition at x/c =  0.2767   40
 Side 2  free  transition at x/c =  0.3814   54

  60   rms: 0.5526E-02   max: -.1075E+00   C at   54  2
       a = -3.000      CL = -0.3836
      Cm =  0.0200     CD =  0.01057   =>   CDf =  0.00757    CDp =  0.00300

 Side 1  free  transition at x/c =  0.2767   40
 Side 2  free  transition at x/c =  0.3814   54

  61   rms: 0.5526E-02   max: -.1075E+00   C at   54  2
       a = -3.000      CL = -0.3836
      Cm =  0.0200     CD =  0.01057   =>   CDf =  0.00757    CDp =  0.00300

 Side 1  free  transition at x/c =  0.2767   40
 Side 2  free  transition at x/c =  0.3814   54

  62   rms: 0.5526E-02   max: -.1075E+00   C at   54  2
       a = -3.000      CL = -0.3836
      Cm =  0.0200     CD =  0.01057   =>   CDf =  0.00757    CDp =  0.00300

 Side 1  free  transition at x/c =  0.2767   40
 Side 2  free  transition at x/c =  0.3814   54

  63   rms: 0.5526E-02   max: -.1075E+00   C at   54  2
       a = -3.000      CL = -0.3836
      Cm =  0.0200     CD =  0.01057   =>   CDf =  0.00757    CDp =  0.00300

 Side 1  free  transition at x/c =  0.2767   40
 Side 2  free  transition at x/c =  0.3814   54

  64   rms: 0.5526E-02   max: -.1075E+00   C at   54  2
       a = -3.000      CL = -0.3836
      Cm =  0.0200     CD =  0.01057   =>   CDf =  0.00757    CDp =  0.00300

 Side 1  free  transition at x/c =  0.2767   40
 Side 2  free  transition at x/c =  0.3814   54

  65   rms: 0.5526E-02   max: -.1075E+00   C at   54  2
       a = -3.000      CL = -0.3836
      Cm =  0.0200     CD =  0.01057   =>   CDf =  0.00757    CDp =  0.00300

 Side 1  free  transition at x/c =  0.2767   40
 Side 2  free  transition at x/c =  0.3814   54

  66   rms: 0.5526E-02   max: -.1075E+00   C at   54  2
       a = -3.000      CL = -0.3836
      Cm =  0.0200     CD =  0.01057   =>   CDf =  0.00757    CDp =  0.00300

 Side 1  free  transition at x/c =  0.2767   40
 Side 2  free  transition at x/c =  0.3814   54

  67   rms: 0.5526E-02   max: -.1075E+00   C at   54  2
       a = -3.000      CL = -0.3836
      Cm =  0.0200     CD =  0.01057   =>   CDf =  0.00757    CDp =  0.00300

 Side 1  free  transition at x/c =  0.2767   40
 Side 2  free  transition at x/c =  0.3814   54

  68   rms: 0.5526E-02   max: -.1075E+00   C at   54  2
       a = -3.000      CL = -0.3836
      Cm =  0.0200     CD =  0.01057   =>   CDf =  0.00757    CDp =  0.00300

 Side 1  free  transition at x/c =  0.2767   40
 Side 2  free  transition at x/c =  0.3814   54

  69   rms: 0.5526E-02   max: -.1075E+00   C at   54  2
       a = -3.000      CL = -0.3836
      Cm =  0.0200     CD =  0.01057   =>   CDf =  0.00757    CDp =  0.00300

 Side 1  free  transition at x/c =  0.2767   40
 Side 2  free  transition at x/c =  0.3814   54

  70   rms: 0.5526E-02   max: -.1075E+00   C at   54  2
       a = -3.000      CL = -0.3836
      Cm =  0.0200     CD =  0.01057   =>   CDf =  0.00757    CDp =  0.00300

 Side 1  free  transition at x/c =  0.2767   40
 Side 2  free  transition at x/c =  0.3814   54

  71   rms: 0.5526E-02   max: -.1075E+00   C at   54  2
       a = -3.000      CL = -0.3836
      Cm =  0.0200     CD =  0.01057   =>   CDf =  0.00757    CDp =  0.00300

 Side 1  free  transition at x/c =  0.2767   40
 Side 2  free  transition at x/c =  0.3814   54

  72   rms: 0.5526E-02   max: -.1075E+00   C at   54  2
       a = -3.000      CL = -0.3836
      Cm =  0.0200     CD =  0.01057   =>   CDf =  0.00757    CDp =  0.00300

 Side 1  free  transition at x/c =  0.2767   40
 Side 2  free  transition at x/c =  0.3814   54

  73   rms: 0.5526E-02   max: -.1075E+00   C at   54  2
       a = -3.000      CL = -0.3836
      Cm =  0.0200     CD =  0.01057   =>   CDf =  0.00757    CDp =  0.00300

 Side 1  free  transition at x/c =  0.2767   40
 Side 2  free  transition at x/c =  0.3814   54

  74   rms: 0.5526E-02   max: -.1075E+00   C at   54  2
       a = -3.000      CL = -0.3836
      Cm =  0.0200     CD =  0.01057   =>   CDf =  0.00757    CDp =  0.00300

 Side 1  free  transition at x/c =  0.2767   40
 Side 2  free  transition at x/c =  0.3814   54

  75   rms: 0.5526E-02   max: -.1075E+00   C at   54  2
       a = -3.000      CL = -0.3836
      Cm =  0.0200     CD =  0.01057   =>   CDf =  0.00757    CDp =  0.00300

 Side 1  free  transition at x/c =  0.2767   40
 Side 2  free  transition at x/c =  0.3814   54

  76   rms: 0.5526E-02   max: -.1075E+00   C at   54  2
       a = -3.000      CL = -0.3836
      Cm =  0.0200     CD =  0.01057   =>   CDf =  0.00757    CDp =  0.00300

 Side 1  free  transition at x/c =  0.2767   40
 Side 2  free  transition at x/c =  0.3814   54

  77   rms: 0.5526E-02   max: -.1075E+00   C at   54  2
       a = -3.000      CL = -0.3836
      Cm =  0.0200     CD =  0.01057   =>   CDf =  0.00757    CDp =  0.00300

 Side 1  free  transition at x/c =  0.2767   40
 Side 2  free  transition at x/c =  0.3814   54

  78   rms: 0.5526E-02   max: -.1075E+00   C at   54  2
       a = -3.000      CL = -0.3836
      Cm =  0.0200     CD =  0.01057   =>   CDf =  0.00757    CDp =  0.00300

 Side 1  free  transition at x/c =  0.2767   40
 Side 2  free  transition at x/c =  0.3814   54

  79   rms: 0.5526E-02   max: -.1075E+00   C at   54  2
       a = -3.000      CL = -0.3836
      Cm =  0.0200     CD =  0.01057   =>   CDf =  0.00757    CDp =  0.00300

 Side 1  free  transition at x/c =  0.2767   40
 Side 2  free  transition at x/c =  0.3814   54

  80   rms: 0.5526E-02   max: -.1075E+00   C at   54  2
       a = -3.000      CL = -0.3836
      Cm =  0.0200     CD =  0.01057   =>   CDf =  0.00757    CDp =  0.00300

 Side 1  free  transition at x/c =  0.2767   40
 Side 2  free  transition at x/c =  0.3814   54

  81   rms: 0.5526E-02   max: -.1075E+00   C at   54  2
       a = -3.000      CL = -0.3836
      Cm =  0.0200     CD =  0.01057   =>   CDf =  0.00757    CDp =  0.00300

 Side 1  free  transition at x/c =  0.2767   40
 Side 2  free  transition at x/c =  0.3814   54

  82   rms: 0.5526E-02   max: -.1075E+00   C at   54  2
       a = -3.000      CL = -0.3836
      Cm =  0.0200     CD =  0.01057   =>   CDf =  0.00757    CDp =  0.00300

 Side 1  free  transition at x/c =  0.2767   40
 Side 2  free  transition at x/c =  0.3814   54

  83   rms: 0.5526E-02   max: -.1075E+00   C at   54  2
       a = -3.000      CL = -0.3836
      Cm =  0.0200     CD =  0.01057   =>   CDf =  0.00757    CDp =  0.00300

 Side 1  free  transition at x/c =  0.2767   40
 Side 2  free  transition at x/c =  0.3814   54

  84   rms: 0.5526E-02   max: -.1075E+00   C at   54  2
       a = -3.000      CL = -0.3836
      Cm =  0.0200     CD =  0.01057   =>   CDf =  0.00757    CDp =  0.00300

 Side 1  free  transition at x/c =  0.2767   40
 Side 2  free  transition at x/c =  0.3814   54

  85   rms: 0.5526E-02   max: -.1075E+00   C at   54  2
       a = -3.000      CL = -0.3836
      Cm =  0.0200     CD =  0.01057   =>   CDf =  0.00757    CDp =  0.00300

 Side 1  free  transition at x/c =  0.2767   40
 Side 2  free  transition at x/c =  0.3814   54

  86   rms: 0.5526E-02   max: -.1075E+00   C at   54  2
       a = -3.000      CL = -0.3836
      Cm =  0.0200     CD =  0.01057   =>   CDf =  0.00757    CDp =  0.00300

 Side 1  free  transition at x/c =  0.2767   40
 Side 2  free  transition at x/c =  0.3814   54

  87   rms: 0.5526E-02   max: -.1075E+00   C at   54  2
       a = -3.000      CL = -0.3836
      Cm =  0.0200     CD =  0.01057   =>   CDf =  0.00757    CDp =  0.00300

 Side 1  free  transition at x/c =  0.2767   40
 Side 2  free  transition at x/c =  0.3814   54

  88   rms: 0.5526E-02   max: -.1075E+00   C at   54  2
       a = -3.000      CL = -0.3836
      Cm =  0.0200     CD =  0.01057   =>   CDf =  0.00757    CDp =  0.00300

 Side 1  free  transition at x/c =  0.2767   40
 Side 2  free  transition at x/c =  0.3814   54

  89   rms: 0.5526E-02   max: -.1075E+00   C at   54  2
       a = -3.000      CL = -0.3836
      Cm =  0.0200     CD =  0.01057   =>   CDf =  0.00757    CDp =  0.00300

 Side 1  free  transition at x/c =  0.2767   40
 Side 2  free  transition at x/c =  0.3814   54

  90   rms: 0.5526E-02   max: -.1075E+00   C at   54  2
       a = -3.000      CL = -0.3836
      Cm =  0.0200     CD =  0.01057   =>   CDf =  0.00757    CDp =  0.00300

 Side 1  free  transition at x/c =  0.2767   40
 Side 2  free  transition at x/c =  0.3814   54

  91   rms: 0.5526E-02   max: -.1075E+00   C at   54  2
       a = -3.000      CL = -0.3836
      Cm =  0.0200     CD =  0.01057   =>   CDf =  0.00757    CDp =  0.00300

 Side 1  free  transition at x/c =  0.2767   40
 Side 2  free  transition at x/c =  0.3814   54

  92   rms: 0.5526E-02   max: -.1075E+00   C at   54  2
       a = -3.000      CL = -0.3836
      Cm =  0.0200     CD =  0.01057   =>   CDf =  0.00757    CDp =  0.00300

 Side 1  free  transition at x/c =  0.2767   40
 Side 2  free  transition at x/c =  0.3814   54

  93   rms: 0.5526E-02   max: -.1075E+00   C at   54  2
       a = -3.000      CL = -0.3836
      Cm =  0.0200     CD =  0.01057   =>   CDf =  0.00757    CDp =  0.00300

 Side 1  free  transition at x/c =  0.2767   40
 Side 2  free  transition at x/c =  0.3814   54

  94   rms: 0.5526E-02   max: -.1075E+00   C at   54  2
       a = -3.000      CL = -0.3836
      Cm =  0.0200     CD =  0.01057   =>   CDf =  0.00757    CDp =  0.00300

 Side 1  free  transition at x/c =  0.2767   40
 Side 2  free  transition at x/c =  0.3814   54

  95   rms: 0.5526E-02   max: -.1075E+00   C at   54  2
       a = -3.000      CL = -0.3836
      Cm =  0.0200     CD =  0.01057   =>   CDf =  0.00757    CDp =  0.00300

 Side 1  free  transition at x/c =  0.2767   40
 Side 2  free  transition at x/c =  0.3814   54

  96   rms: 0.5526E-02   max: -.1075E+00   C at   54  2
       a = -3.000      CL = -0.3836
      Cm =  0.0200     CD =  0.01057   =>   CDf =  0.00757    CDp =  0.00300

 Side 1  free  transition at x/c =  0.2767   40
 Side 2  free  transition at x/c =  0.3814   54

  97   rms: 0.5526E-02   max: -.1075E+00   C at   54  2
       a = -3.000      CL = -0.3836
      Cm =  0.0200     CD =  0.01057   =>   CDf =  0.00757    CDp =  0.00300

 Side 1  free  transition at x/c =  0.2767   40
 Side 2  free  transition at x/c =  0.3814   54

  98   rms: 0.5526E-02   max: -.1075E+00   C at   54  2
       a = -3.000      CL = -0.3836
      Cm =  0.0200     CD =  0.01057   =>   CDf =  0.00757    CDp =  0.00300

 Side 1  free  transition at x/c =  0.2767   40
 Side 2  free  transition at x/c =  0.3814   54

  99   rms: 0.5526E-02   max: -.1075E+00   C at   54  2
       a = -3.000      CL = -0.3836
      Cm =  0.0200     CD =  0.01057   =>   CDf =  0.00757    CDp =  0.00300

 Side 1  free  transition at x/c =  0.2767   40
 Side 2  free  transition at x/c =  0.3814   54

 100   rms: 0.5526E-02   max: -.1075E+00   C at   54  2
       a = -3.000      CL = -0.3836
      Cm =  0.0200     CD =  0.01057   =>   CDf =  0.00757    CDp =  0.00300

 Side 1  free  transition at x/c =  0.2767   40
 Side 2  free  transition at x/c =  0.3814   54

 101   rms: 0.5526E-02   max: -.1075E+00   C at   54  2
       a = -3.000      CL = -0.3836
      Cm =  0.0200     CD =  0.01057   =>   CDf =  0.00757    CDp =  0.00300

 Side 1  free  transition at x/c =  0.2767   40
 Side 2  free  transition at x/c =  0.3814   54

 102   rms: 0.5526E-02   max: -.1075E+00   C at   54  2
       a = -3.000      CL = -0.3836
      Cm =  0.0200     CD =  0.01057   =>   CDf =  0.00757    CDp =  0.00300

 Side 1  free  transition at x/c =  0.2767   40
 Side 2  free  transition at x/c =  0.3814   54

 103   rms: 0.5526E-02   max: -.1075E+00   C at   54  2
       a = -3.000      CL = -0.3836
      Cm =  0.0200     CD =  0.01057   =>   CDf =  0.00757    CDp =  0.00300

 Side 1  free  transition at x/c =  0.2767   40
 Side 2  free  transition at x/c =  0.3814   54

 104   rms: 0.5526E-02   max: -.1075E+00   C at   54  2
       a = -3.000      CL = -0.3836
      Cm =  0.0200     CD =  0.01057   =>   CDf =  0.00757    CDp =  0.00300

 Side 1  free  transition at x/c =  0.2767   40
 Side 2  free  transition at x/c =  0.3814   54

 105   rms: 0.5526E-02   max: -.1075E+00   C at   54  2
       a = -3.000      CL = -0.3836
      Cm =  0.0200     CD =  0.01057   =>   CDf =  0.00757    CDp =  0.00300

 Side 1  free  transition at x/c =  0.2767   40
 Side 2  free  transition at x/c =  0.3814   54

 106   rms: 0.5526E-02   max: -.1075E+00   C at   54  2
       a = -3.000      CL = -0.3836
      Cm =  0.0200     CD =  0.01057   =>   CDf =  0.00757    CDp =  0.00300

 Side 1  free  transition at x/c =  0.2767   40
 Side 2  free  transition at x/c =  0.3814   54

 107   rms: 0.5526E-02   max: -.1075E+00   C at   54  2
       a = -3.000      CL = -0.3836
      Cm =  0.0200     CD =  0.01057   =>   CDf =  0.00757    CDp =  0.00300

 Side 1  free  transition at x/c =  0.2767   40
 Side 2  free  transition at x/c =  0.3814   54

 108   rms: 0.5526E-02   max: -.1075E+00   C at   54  2
       a = -3.000      CL = -0.3836
      Cm =  0.0200     CD =  0.01057   =>   CDf =  0.00757    CDp =  0.00300

 Side 1  free  transition at x/c =  0.2767   40
 Side 2  free  transition at x/c =  0.3814   54

 109   rms: 0.5526E-02   max: -.1075E+00   C at   54  2
       a = -3.000      CL = -0.3836
      Cm =  0.0200     CD =  0.01057   =>   CDf =  0.00757    CDp =  0.00300

 Side 1  free  transition at x/c =  0.2767   40
 Side 2  free  transition at x/c =  0.3814   54

 110   rms: 0.5526E-02   max: -.1075E+00   C at   54  2
       a = -3.000      CL = -0.3836
      Cm =  0.0200     CD =  0.01057   =>   CDf =  0.00757    CDp =  0.00300

 Side 1  free  transition at x/c =  0.2767   40
 Side 2  free  transition at x/c =  0.3814   54

 111   rms: 0.5526E-02   max: -.1075E+00   C at   54  2
       a = -3.000      CL = -0.3836
      Cm =  0.0200     CD =  0.01057   =>   CDf =  0.00757    CDp =  0.00300

 Side 1  free  transition at x/c =  0.2767   40
 Side 2  free  transition at x/c =  0.3814   54

 112   rms: 0.5526E-02   max: -.1075E+00   C at   54  2
       a = -3.000      CL = -0.3836
      Cm =  0.0200     CD =  0.01057   =>   CDf =  0.00757    CDp =  0.00300

 Side 1  free  transition at x/c =  0.2767   40
 Side 2  free  transition at x/c =  0.3814   54

 113   rms: 0.5526E-02   max: -.1075E+00   C at   54  2
       a = -3.000      CL = -0.3836
      Cm =  0.0200     CD =  0.01057   =>   CDf =  0.00757    CDp =  0.00300

 Side 1  free  transition at x/c =  0.2767   40
 Side 2  free  transition at x/c =  0.3814   54

 114   rms: 0.5526E-02   max: -.1075E+00   C at   54  2
       a = -3.000      CL = -0.3836
      Cm =  0.0200     CD =  0.01057   =>   CDf =  0.00757    CDp =  0.00300

 Side 1  free  transition at x/c =  0.2767   40
 Side 2  free  transition at x/c =  0.3814   54

 115   rms: 0.5526E-02   max: -.1075E+00   C at   54  2
       a = -3.000      CL = -0.3836
      Cm =  0.0200     CD =  0.01057   =>   CDf =  0.00757    CDp =  0.00300

 Side 1  free  transition at x/c =  0.2767   40
 Side 2  free  transition at x/c =  0.3814   54

 116   rms: 0.5526E-02   max: -.1075E+00   C at   54  2
       a = -3.000      CL = -0.3836
      Cm =  0.0200     CD =  0.01057   =>   CDf =  0.00757    CDp =  0.00300

 Side 1  free  transition at x/c =  0.2767   40
 Side 2  free  transition at x/c =  0.3814   54

 117   rms: 0.5526E-02   max: -.1075E+00   C at   54  2
       a = -3.000      CL = -0.3836
      Cm =  0.0200     CD =  0.01057   =>   CDf =  0.00757    CDp =  0.00300

 Side 1  free  transition at x/c =  0.2767   40
 Side 2  free  transition at x/c =  0.3814   54

 118   rms: 0.5526E-02   max: -.1075E+00   C at   54  2
       a = -3.000      CL = -0.3836
      Cm =  0.0200     CD =  0.01057   =>   CDf =  0.00757    CDp =  0.00300

 Side 1  free  transition at x/c =  0.2767   40
 Side 2  free  transition at x/c =  0.3814   54

 119   rms: 0.5526E-02   max: -.1075E+00   C at   54  2
       a = -3.000      CL = -0.3836
      Cm =  0.0200     CD =  0.01057   =>   CDf =  0.00757    CDp =  0.00300

 Side 1  free  transition at x/c =  0.2767   40
 Side 2  free  transition at x/c =  0.3814   54

 120   rms: 0.5526E-02   max: -.1075E+00   C at   54  2
       a = -3.000      CL = -0.3836
      Cm =  0.0200     CD =  0.01057   =>   CDf =  0.00757    CDp =  0.00300

 Side 1  free  transition at x/c =  0.2767   40
 Side 2  free  transition at x/c =  0.3814   54

 121   rms: 0.5526E-02   max: -.1075E+00   C at   54  2
       a = -3.000      CL = -0.3836
      Cm =  0.0200     CD =  0.01057   =>   CDf =  0.00757    CDp =  0.00300

 Side 1  free  transition at x/c =  0.2767   40
 Side 2  free  transition at x/c =  0.3814   54

 122   rms: 0.5526E-02   max: -.1075E+00   C at   54  2
       a = -3.000      CL = -0.3836
      Cm =  0.0200     CD =  0.01057   =>   CDf =  0.00757    CDp =  0.00300

 Side 1  free  transition at x/c =  0.2767   40
 Side 2  free  transition at x/c =  0.3814   54

 123   rms: 0.5526E-02   max: -.1075E+00   C at   54  2
       a = -3.000      CL = -0.3836
      Cm =  0.0200     CD =  0.01057   =>   CDf =  0.00757    CDp =  0.00300

 Side 1  free  transition at x/c =  0.2767   40
 Side 2  free  transition at x/c =  0.3814   54

 124   rms: 0.5526E-02   max: -.1075E+00   C at   54  2
       a = -3.000      CL = -0.3836
      Cm =  0.0200     CD =  0.01057   =>   CDf =  0.00757    CDp =  0.00300

 Side 1  free  transition at x/c =  0.2767   40
 Side 2  free  transition at x/c =  0.3814   54

 125   rms: 0.5526E-02   max: -.1075E+00   C at   54  2
       a = -3.000      CL = -0.3836
      Cm =  0.0200     CD =  0.01057   =>   CDf =  0.00757    CDp =  0.00300

 Side 1  free  transition at x/c =  0.2767   40
 Side 2  free  transition at x/c =  0.3814   54

 126   rms: 0.5526E-02   max: -.1075E+00   C at   54  2
       a = -3.000      CL = -0.3836
      Cm =  0.0200     CD =  0.01057   =>   CDf =  0.00757    CDp =  0.00300

 Side 1  free  transition at x/c =  0.2767   40
 Side 2  free  transition at x/c =  0.3814   54

 127   rms: 0.5526E-02   max: -.1075E+00   C at   54  2
       a = -3.000      CL = -0.3836
      Cm =  0.0200     CD =  0.01057   =>   CDf =  0.00757    CDp =  0.00300

 Side 1  free  transition at x/c =  0.2767   40
 Side 2  free  transition at x/c =  0.3814   54

 128   rms: 0.5526E-02   max: -.1075E+00   C at   54  2
       a = -3.000      CL = -0.3836
      Cm =  0.0200     CD =  0.01057   =>   CDf =  0.00757    CDp =  0.00300

 Side 1  free  transition at x/c =  0.2767   40
 Side 2  free  transition at x/c =  0.3814   54

 129   rms: 0.5526E-02   max: -.1075E+00   C at   54  2
       a = -3.000      CL = -0.3836
      Cm =  0.0200     CD =  0.01057   =>   CDf =  0.00757    CDp =  0.00300

 Side 1  free  transition at x/c =  0.2767   40
 Side 2  free  transition at x/c =  0.3814   54

 130   rms: 0.5526E-02   max: -.1075E+00   C at   54  2
       a = -3.000      CL = -0.3836
      Cm =  0.0200     CD =  0.01057   =>   CDf =  0.00757    CDp =  0.00300

 Side 1  free  transition at x/c =  0.2767   40
 Side 2  free  transition at x/c =  0.3814   54

 131   rms: 0.5526E-02   max: -.1075E+00   C at   54  2
       a = -3.000      CL = -0.3836
      Cm =  0.0200     CD =  0.01057   =>   CDf =  0.00757    CDp =  0.00300

 Side 1  free  transition at x/c =  0.2767   40
 Side 2  free  transition at x/c =  0.3814   54

 132   rms: 0.5526E-02   max: -.1075E+00   C at   54  2
       a = -3.000      CL = -0.3836
      Cm =  0.0200     CD =  0.01057   =>   CDf =  0.00757    CDp =  0.00300

 Side 1  free  transition at x/c =  0.2767   40
 Side 2  free  transition at x/c =  0.3814   54

 133   rms: 0.5526E-02   max: -.1075E+00   C at   54  2
       a = -3.000      CL = -0.3836
      Cm =  0.0200     CD =  0.01057   =>   CDf =  0.00757    CDp =  0.00300

 Side 1  free  transition at x/c =  0.2767   40
 Side 2  free  transition at x/c =  0.3814   54

 134   rms: 0.5526E-02   max: -.1075E+00   C at   54  2
       a = -3.000      CL = -0.3836
      Cm =  0.0200     CD =  0.01057   =>   CDf =  0.00757    CDp =  0.00300

 Side 1  free  transition at x/c =  0.2767   40
 Side 2  free  transition at x/c =  0.3814   54

 135   rms: 0.5526E-02   max: -.1075E+00   C at   54  2
       a = -3.000      CL = -0.3836
      Cm =  0.0200     CD =  0.01057   =>   CDf =  0.00757    CDp =  0.00300

 Side 1  free  transition at x/c =  0.2767   40
 Side 2  free  transition at x/c =  0.3814   54

 136   rms: 0.5526E-02   max: -.1075E+00   C at   54  2
       a = -3.000      CL = -0.3836
      Cm =  0.0200     CD =  0.01057   =>   CDf =  0.00757    CDp =  0.00300

 Side 1  free  transition at x/c =  0.2767   40
 Side 2  free  transition at x/c =  0.3814   54

 137   rms: 0.5526E-02   max: -.1075E+00   C at   54  2
       a = -3.000      CL = -0.3836
      Cm =  0.0200     CD =  0.01057   =>   CDf =  0.00757    CDp =  0.00300

 Side 1  free  transition at x/c =  0.2767   40
 Side 2  free  transition at x/c =  0.3814   54

 138   rms: 0.5526E-02   max: -.1075E+00   C at   54  2
       a = -3.000      CL = -0.3836
      Cm =  0.0200     CD =  0.01057   =>   CDf =  0.00757    CDp =  0.00300

 Side 1  free  transition at x/c =  0.2767   40
 Side 2  free  transition at x/c =  0.3814   54

 139   rms: 0.5526E-02   max: -.1075E+00   C at   54  2
       a = -3.000      CL = -0.3836
      Cm =  0.0200     CD =  0.01057   =>   CDf =  0.00757    CDp =  0.00300

 Side 1  free  transition at x/c =  0.2767   40
 Side 2  free  transition at x/c =  0.3814   54

 140   rms: 0.5526E-02   max: -.1075E+00   C at   54  2
       a = -3.000      CL = -0.3836
      Cm =  0.0200     CD =  0.01057   =>   CDf =  0.00757    CDp =  0.00300

 Side 1  free  transition at x/c =  0.2767   40
 Side 2  free  transition at x/c =  0.3814   54

 141   rms: 0.5526E-02   max: -.1075E+00   C at   54  2
       a = -3.000      CL = -0.3836
      Cm =  0.0200     CD =  0.01057   =>   CDf =  0.00757    CDp =  0.00300

 Side 1  free  transition at x/c =  0.2767   40
 Side 2  free  transition at x/c =  0.3814   54

 142   rms: 0.5526E-02   max: -.1075E+00   C at   54  2
       a = -3.000      CL = -0.3836
      Cm =  0.0200     CD =  0.01057   =>   CDf =  0.00757    CDp =  0.00300

 Side 1  free  transition at x/c =  0.2767   40
 Side 2  free  transition at x/c =  0.3814   54

 143   rms: 0.5526E-02   max: -.1075E+00   C at   54  2
       a = -3.000      CL = -0.3836
      Cm =  0.0200     CD =  0.01057   =>   CDf =  0.00757    CDp =  0.00300

 Side 1  free  transition at x/c =  0.2767   40
 Side 2  free  transition at x/c =  0.3814   54

 144   rms: 0.5526E-02   max: -.1075E+00   C at   54  2
       a = -3.000      CL = -0.3836
      Cm =  0.0200     CD =  0.01057   =>   CDf =  0.00757    CDp =  0.00300

 Side 1  free  transition at x/c =  0.2767   40
 Side 2  free  transition at x/c =  0.3814   54

 145   rms: 0.5526E-02   max: -.1075E+00   C at   54  2
       a = -3.000      CL = -0.3836
      Cm =  0.0200     CD =  0.01057   =>   CDf =  0.00757    CDp =  0.00300

 Side 1  free  transition at x/c =  0.2767   40
 Side 2  free  transition at x/c =  0.3814   54

 146   rms: 0.5526E-02   max: -.1075E+00   C at   54  2
       a = -3.000      CL = -0.3836
      Cm =  0.0200     CD =  0.01057   =>   CDf =  0.00757    CDp =  0.00300

 Side 1  free  transition at x/c =  0.2767   40
 Side 2  free  transition at x/c =  0.3814   54

 147   rms: 0.5526E-02   max: -.1075E+00   C at   54  2
       a = -3.000      CL = -0.3836
      Cm =  0.0200     CD =  0.01057   =>   CDf =  0.00757    CDp =  0.00300

 Side 1  free  transition at x/c =  0.2767   40
 Side 2  free  transition at x/c =  0.3814   54

 148   rms: 0.5526E-02   max: -.1075E+00   C at   54  2
       a = -3.000      CL = -0.3836
      Cm =  0.0200     CD =  0.01057   =>   CDf =  0.00757    CDp =  0.00300

 Side 1  free  transition at x/c =  0.2767   40
 Side 2  free  transition at x/c =  0.3814   54

 149   rms: 0.5526E-02   max: -.1075E+00   C at   54  2
       a = -3.000      CL = -0.3836
      Cm =  0.0200     CD =  0.01057   =>   CDf =  0.00757    CDp =  0.00300

 Side 1  free  transition at x/c =  0.2767   40
 Side 2  free  transition at x/c =  0.3814   54

 150   rms: 0.5526E-02   max: -.1075E+00   C at   54  2
       a = -3.000      CL = -0.3836
      Cm =  0.0200     CD =  0.01057   =>   CDf =  0.00757    CDp =  0.00300

 Side 1  free  transition at x/c =  0.2767   40
 Side 2  free  transition at x/c =  0.3814   54

 151   rms: 0.5526E-02   max: -.1075E+00   C at   54  2
       a = -3.000      CL = -0.3836
      Cm =  0.0200     CD =  0.01057   =>   CDf =  0.00757    CDp =  0.00300

 Side 1  free  transition at x/c =  0.2767   40
 Side 2  free  transition at x/c =  0.3814   54

 152   rms: 0.5526E-02   max: -.1075E+00   C at   54  2
       a = -3.000      CL = -0.3836
      Cm =  0.0200     CD =  0.01057   =>   CDf =  0.00757    CDp =  0.00300

 Side 1  free  transition at x/c =  0.2767   40
 Side 2  free  transition at x/c =  0.3814   54

 153   rms: 0.5526E-02   max: -.1075E+00   C at   54  2
       a = -3.000      CL = -0.3836
      Cm =  0.0200     CD =  0.01057   =>   CDf =  0.00757    CDp =  0.00300

 Side 1  free  transition at x/c =  0.2767   40
 Side 2  free  transition at x/c =  0.3814   54

 154   rms: 0.5526E-02   max: -.1075E+00   C at   54  2
       a = -3.000      CL = -0.3836
      Cm =  0.0200     CD =  0.01057   =>   CDf =  0.00757    CDp =  0.00300

 Side 1  free  transition at x/c =  0.2767   40
 Side 2  free  transition at x/c =  0.3814   54

 155   rms: 0.5526E-02   max: -.1075E+00   C at   54  2
       a = -3.000      CL = -0.3836
      Cm =  0.0200     CD =  0.01057   =>   CDf =  0.00757    CDp =  0.00300
 VISCAL:  Convergence failed
 Calculating wake trajectory ...
 Calculating source influence matrix ...

 Solving BL system ...

 Side 1  free  transition at x/c =  0.2767   40
 Side 2  free  transition at x/c =  0.3814   54

   1   rms: 0.8159E-01   max: 0.3952E+00   C at   40  1
       a = -2.500      CL = -0.3266
      Cm =  0.0205     CD =  0.01075   =>   CDf =  0.00762    CDp =  0.00313

 Side 1  free  transition at x/c =  0.2627   40
 Side 2  free  transition at x/c =  0.4076   55

   2   rms: 0.9602E-02   max: -.9714E-01   D at   40  1
       a = -2.500      CL = -0.3293
      Cm =  0.0209     CD =  0.01051   =>   CDf =  0.00757    CDp =  0.00294

 Side 1  free  transition at x/c =  0.2629   40
 Side 2  free  transition at x/c =  0.4075   55

   3   rms: 0.5929E-03   max: 0.7615E-02   C at   55  2
       a = -2.500      CL = -0.3293
      Cm =  0.0209     CD =  0.01051   =>   CDf =  0.00754    CDp =  0.00297

 Side 1  free  transition at x/c =  0.2628   40
 Side 2  free  transition at x/c =  0.4072   55

   4   rms: 0.2363E-05   max: -.1697E-04   C at   55  2
       a = -2.500      CL = -0.3293
      Cm =  0.0209     CD =  0.01051   =>   CDf =  0.00754    CDp =  0.00297
 plradd ia,ip,cpol            3           0  7.60569796E-02

 Point added to stored polar  1
 Point written to save file  zv15_35_Re500k.base.pol                         
 Dump file unspecified or not available
 Calculating wake trajectory ...
 Calculating source influence matrix ...

 Solving BL system ...

 Side 1  free  transition at x/c =  0.2628   40
 Side 2  free  transition at x/c =  0.4072   55

   1   rms: 0.8110E-01   max: 0.4086E+00   D at   55  2
       a = -2.000      CL = -0.2748
      Cm =  0.0217     CD =  0.01034   =>   CDf =  0.00758    CDp =  0.00276

 Side 1  free  transition at x/c =  0.2530   41
 Side 2  free  transition at x/c =  0.4223   55

   2   rms: 0.3185E-01   max: -.3151E+00   C at   55  2
       a = -2.000      CL = -0.2745
      Cm =  0.0217     CD =  0.01029   =>   CDf =  0.00772    CDp =  0.00257

 Side 1  free  transition at x/c =  0.2537   41
 Side 2  free  transition at x/c =  0.4415   56

   3   rms: 0.1510E-01   max: -.1663E+00   D at   56  2
       a = -2.000      CL = -0.2734
      Cm =  0.0215     CD =  0.01053   =>   CDf =  0.00750    CDp =  0.00304

 Side 1  free  transition at x/c =  0.2536   41
 Side 2  free  transition at x/c =  0.4330   55

   4   rms: 0.4813E-02   max: -.6169E-01   D at   56  2
       a = -2.000      CL = -0.2743
      Cm =  0.0217     CD =  0.01045   =>   CDf =  0.00752    CDp =  0.00293

 Side 1  free  transition at x/c =  0.2536   41
 Side 2  free  transition at x/c =  0.4325   55

   5   rms: 0.1061E-03   max: 0.1782E-02   C at   55  2
       a = -2.000      CL = -0.2743
      Cm =  0.0217     CD =  0.01045   =>   CDf =  0.00752    CDp =  0.00294

 Side 1  free  transition at x/c =  0.2536   41
 Side 2  free  transition at x/c =  0.4325   55

   6   rms: 0.1088E-05   max: 0.1208E-04   D at    4  1
       a = -2.000      CL = -0.2743
      Cm =  0.0217     CD =  0.01045   =>   CDf =  0.00752    CDp =  0.00294
 plradd ia,ip,cpol            4           0  8.37467909E-02

 Point added to stored polar  1
 Point written to save file  zv15_35_Re500k.base.pol                         
 Dump file unspecified or not available
 Calculating wake trajectory ...
 Calculating source influence matrix ...

 Solving BL system ...

 Side 1  free  transition at x/c =  0.2536   41
 Side 2  free  transition at x/c =  0.4325   55

   1   rms: 0.7952E-01   max: -.3215E+00   C at   55  2
       a = -1.500      CL = -0.2191
      Cm =  0.0224     CD =  0.01049   =>   CDf =  0.00752    CDp =  0.00297

 Side 1  free  transition at x/c =  0.2468   41
 Side 2  free  transition at x/c =  0.4519   56

   2   rms: 0.9624E-02   max: -.1259E+00   C at   56  2
       a = -1.500      CL = -0.2198
      Cm =  0.0225     CD =  0.01057   =>   CDf =  0.00756    CDp =  0.00302

 Side 1  free  transition at x/c =  0.2454   40
 Side 2  free  transition at x/c =  0.4566   56

   3   rms: 0.5648E-02   max: -.6727E-01   D at   40  1
       a = -1.500      CL = -0.2194
      Cm =  0.0225     CD =  0.01053   =>   CDf =  0.00754    CDp =  0.00299

 Side 1  free  transition at x/c =  0.2458   40
 Side 2  free  transition at x/c =  0.4569   56

   4   rms: 0.3867E-04   max: 0.5145E-03   D at   40  1
       a = -1.500      CL = -0.2194
      Cm =  0.0225     CD =  0.01053   =>   CDf =  0.00753    CDp =  0.00300
 plradd ia,ip,cpol            5           0  9.21176001E-02

 Point added to stored polar  1
 Point written to save file  zv15_35_Re500k.base.pol                         
 Dump file unspecified or not available
 Calculating wake trajectory ...
 Calculating source influence matrix ...

 Solving BL system ...

 Side 1  free  transition at x/c =  0.2458   40
 Side 2  free  transition at x/c =  0.4569   56

   1   rms: 0.7558E-01   max: 0.2027E+00   D at   56  2
       a = -1.000      CL = -0.1627
      Cm =  0.0230     CD =  0.01055   =>   CDf =  0.00755    CDp =  0.00299

 Side 1  free  transition at x/c =  0.2416   41
 Side 2  free  transition at x/c =  0.4792   56

   2   rms: 0.1176E-01   max: -.1849E+00   C at   56  2
       a = -1.000      CL = -0.1634
      Cm =  0.0231     CD =  0.01052   =>   CDf =  0.00754    CDp =  0.00298

 Side 1  free  transition at x/c =  0.2414   41
 Side 2  free  transition at x/c =  0.4818   57

   3   rms: 0.3732E-02   max: -.5766E-01   D at   56  2
       a = -1.000      CL = -0.1636
      Cm =  0.0232     CD =  0.01050   =>   CDf =  0.00749    CDp =  0.00301

 Side 1  free  transition at x/c =  0.2414   41
 Side 2  free  transition at x/c =  0.4821   57

   4   rms: 0.2799E-03   max: 0.3493E-02   C at   57  2
       a = -1.000      CL = -0.1636
      Cm =  0.0232     CD =  0.01050   =>   CDf =  0.00747    CDp =  0.00304

 Side 1  free  transition at x/c =  0.2414   41
 Side 2  free  transition at x/c =  0.4820   57

   5   rms: 0.1498E-05   max: -.2233E-04   D at   58  2
       a = -1.000      CL = -0.1636
      Cm =  0.0232     CD =  0.01050   =>   CDf =  0.00747    CDp =  0.00303
 plradd ia,ip,cpol            6           0  0.11109413    

 Point added to stored polar  1
 Point written to save file  zv15_35_Re500k.base.pol                         
 Dump file unspecified or not available
 Calculating wake trajectory ...
 Calculating source influence matrix ...

 Solving BL system ...

 Side 1  free  transition at x/c =  0.2414   41
 Side 2  free  transition at x/c =  0.4820   57

   1   rms: 0.8046E-01   max: 0.4242E+00   D at   57  2
       a = -0.500      CL = -0.1093
      Cm =  0.0241     CD =  0.01038   =>   CDf =  0.00748    CDp =  0.00291

 Side 1  free  transition at x/c =  0.2360   42
 Side 2  free  transition at x/c =  0.5002   56

   2   rms: 0.1508E-01   max: -.2062E+00   D at   56  2
       a = -0.500      CL = -0.1072
      Cm =  0.0237     CD =  0.01060   =>   CDf =  0.00756    CDp =  0.00304

 Side 1  free  transition at x/c =  0.2362   42
 Side 2  free  transition at x/c =  0.5103   57

   3   rms: 0.4785E-02   max: 0.6868E-01   C at   57  2
       a = -0.500      CL = -0.1083
      Cm =  0.0239     CD =  0.01050   =>   CDf =  0.00738    CDp =  0.00312

 Side 1  free  transition at x/c =  0.2363   42
 Side 2  free  transition at x/c =  0.5080   57

   4   rms: 0.2981E-03   max: -.5088E-02   D at   58  2
       a = -0.500      CL = -0.1083
      Cm =  0.0239     CD =  0.01050   =>   CDf =  0.00739    CDp =  0.00311

 Side 1  free  transition at x/c =  0.2363   42
 Side 2  free  transition at x/c =  0.5079   57

   5   rms: 0.1031E-05   max: -.1762E-04   D at   58  2
       a = -0.500      CL = -0.1083
      Cm =  0.0239     CD =  0.01050   =>   CDf =  0.00739    CDp =  0.00311
 plradd ia,ip,cpol            7           0  0.11089953    

 Point added to stored polar  1
 Point written to save file  zv15_35_Re500k.base.pol                         
 Dump file unspecified or not available
 Calculating wake trajectory ...
 Calculating source influence matrix ...

 Solving BL system ...

 Side 1  free  transition at x/c =  0.2363   42
 Side 2  free  transition at x/c =  0.5079   57

   1   rms: 0.7969E-01   max: -.4166E+00   C at   57  2
       a =  0.000      CL = -0.0534
      Cm =  0.0247     CD =  0.01053   =>   CDf =  0.00739    CDp =  0.00314

 Side 1  free  transition at x/c =  0.2315   43
 Side 2  free  transition at x/c =  0.5266   57

   2   rms: 0.1398E-01   max: -.1948E+00   C at   57  2
       a =  0.000      CL = -0.0534
      Cm =  0.0247     CD =  0.01062   =>   CDf =  0.00744    CDp =  0.00318

 Side 1  free  transition at x/c =  0.2310   43
 Side 2  free  transition at x/c =  0.5342   57

   3   rms: 0.2127E-02   max: -.3462E-01   C at   57  2
       a =  0.000      CL = -0.0533
      Cm =  0.0247     CD =  0.01064   =>   CDf =  0.00739    CDp =  0.00326

 Side 1  free  transition at x/c =  0.2309   43
 Side 2  free  transition at x/c =  0.5345   57

   4   rms: 0.3583E-04   max: 0.6368E-03   C at   57  2
       a =  0.000      CL = -0.0533
      Cm =  0.0247     CD =  0.01064   =>   CDf =  0.00738    CDp =  0.00326
 plradd ia,ip,cpol            8           0  0.11089953    

 Point added to stored polar  1
 Point written to save file  zv15_35_Re500k.base.pol                         
 Dump file unspecified or not available
 Calculating wake trajectory ...
 Calculating source influence matrix ...

 Solving BL system ...

 Side 1  free  transition at x/c =  0.2309   43
 Side 2  free  transition at x/c =  0.5345   57

   1   rms: 0.7919E-01   max: -.2839E+00   C at   57  2
       a =  0.500      CL =  0.0017
      Cm =  0.0254     CD =  0.01097   =>   CDf =  0.00737    CDp =  0.00360

 Side 1  free  transition at x/c =  0.2270   43
 Side 2  free  transition at x/c =  0.5600   57

   2   rms: 0.1459E-01   max: -.1071E+00   D at   44  1
       a =  0.500      CL =  0.0018
      Cm =  0.0254     CD =  0.01086   =>   CDf =  0.00734    CDp =  0.00352

 Side 1  free  transition at x/c =  0.2271   43
 Side 2  free  transition at x/c =  0.5606   57

   3   rms: 0.5569E-02   max: -.1083E+00   C at   57  2
       a =  0.500      CL =  0.0020
      Cm =  0.0254     CD =  0.01087   =>   CDf =  0.00737    CDp =  0.00350

 Side 1  free  transition at x/c =  0.2270   43
 Side 2  free  transition at x/c =  0.5608   57

   4   rms: 0.5312E-02   max: -.1044E+00   C at   57  2
       a =  0.500      CL =  0.0020
      Cm =  0.0254     CD =  0.01087   =>   CDf =  0.00737    CDp =  0.00350

 Side 1  free  transition at x/c =  0.2270   43
 Side 2  free  transition at x/c =  0.5608   57

   5   rms: 0.5345E-02   max: -.1049E+00   C at   57  2
       a =  0.500      CL =  0.0020
      Cm =  0.0254     CD =  0.01087   =>   CDf =  0.00737    CDp =  0.00350

 Side 1  free  transition at x/c =  0.2270   43
 Side 2  free  transition at x/c =  0.5608   57

   6   rms: 0.5341E-02   max: -.1049E+00   C at   57  2
       a =  0.500      CL =  0.0020
      Cm =  0.0254     CD =  0.01087   =>   CDf =  0.00737    CDp =  0.00350

 Side 1  free  transition at x/c =  0.2270   43
 Side 2  free  transition at x/c =  0.5608   57

   7   rms: 0.5341E-02   max: -.1049E+00   C at   57  2
       a =  0.500      CL =  0.0020
      Cm =  0.0254     CD =  0.01087   =>   CDf =  0.00737    CDp =  0.00350

 Side 1  free  transition at x/c =  0.2270   43
 Side 2  free  transition at x/c =  0.5608   57

   8   rms: 0.5341E-02   max: -.1049E+00   C at   57  2
       a =  0.500      CL =  0.0020
      Cm =  0.0254     CD =  0.01087   =>   CDf =  0.00737    CDp =  0.00350

 Side 1  free  transition at x/c =  0.2270   43
 Side 2  free  transition at x/c =  0.5608   57

   9   rms: 0.5341E-02   max: -.1049E+00   C at   57  2
       a =  0.500      CL =  0.0020
      Cm =  0.0254     CD =  0.01087   =>   CDf =  0.00737    CDp =  0.00350

 Side 1  free  transition at x/c =  0.2270   43
 Side 2  free  transition at x/c =  0.5608   57

  10   rms: 0.5341E-02   max: -.1049E+00   C at   57  2
       a =  0.500      CL =  0.0020
      Cm =  0.0254     CD =  0.01087   =>   CDf =  0.00737    CDp =  0.00350

 Side 1  free  transition at x/c =  0.2270   43
 Side 2  free  transition at x/c =  0.5608   57

  11   rms: 0.5341E-02   max: -.1049E+00   C at   57  2
       a =  0.500      CL =  0.0020
      Cm =  0.0254     CD =  0.01087   =>   CDf =  0.00737    CDp =  0.00350

 Side 1  free  transition at x/c =  0.2270   43
 Side 2  free  transition at x/c =  0.5608   57

  12   rms: 0.5341E-02   max: -.1049E+00   C at   57  2
       a =  0.500      CL =  0.0020
      Cm =  0.0254     CD =  0.01087   =>   CDf =  0.00737    CDp =  0.00350

 Side 1  free  transition at x/c =  0.2270   43
 Side 2  free  transition at x/c =  0.5608   57

  13   rms: 0.5341E-02   max: -.1049E+00   C at   57  2
       a =  0.500      CL =  0.0020
      Cm =  0.0254     CD =  0.01087   =>   CDf =  0.00737    CDp =  0.00350

 Side 1  free  transition at x/c =  0.2270   43
 Side 2  free  transition at x/c =  0.5608   57

  14   rms: 0.5341E-02   max: -.1049E+00   C at   57  2
       a =  0.500      CL =  0.0020
      Cm =  0.0254     CD =  0.01087   =>   CDf =  0.00737    CDp =  0.00350

 Side 1  free  transition at x/c =  0.2270   43
 Side 2  free  transition at x/c =  0.5608   57

  15   rms: 0.5341E-02   max: -.1049E+00   C at   57  2
       a =  0.500      CL =  0.0020
      Cm =  0.0254     CD =  0.01087   =>   CDf =  0.00737    CDp =  0.00350

 Side 1  free  transition at x/c =  0.2270   43
 Side 2  free  transition at x/c =  0.5608   57

  16   rms: 0.5341E-02   max: -.1049E+00   C at   57  2
       a =  0.500      CL =  0.0020
      Cm =  0.0254     CD =  0.01087   =>   CDf =  0.00737    CDp =  0.00350

 Side 1  free  transition at x/c =  0.2270   43
 Side 2  free  transition at x/c =  0.5608   57

  17   rms: 0.5341E-02   max: -.1049E+00   C at   57  2
       a =  0.500      CL =  0.0020
      Cm =  0.0254     CD =  0.01087   =>   CDf =  0.00737    CDp =  0.00350

 Side 1  free  transition at x/c =  0.2270   43
 Side 2  free  transition at x/c =  0.5608   57

  18   rms: 0.5341E-02   max: -.1049E+00   C at   57  2
       a =  0.500      CL =  0.0020
      Cm =  0.0254     CD =  0.01087   =>   CDf =  0.00737    CDp =  0.00350

 Side 1  free  transition at x/c =  0.2270   43
 Side 2  free  transition at x/c =  0.5608   57

  19   rms: 0.5341E-02   max: -.1049E+00   C at   57  2
       a =  0.500      CL =  0.0020
      Cm =  0.0254     CD =  0.01087   =>   CDf =  0.00737    CDp =  0.00350

 Side 1  free  transition at x/c =  0.2270   43
 Side 2  free  transition at x/c =  0.5608   57

  20   rms: 0.5341E-02   max: -.1049E+00   C at   57  2
       a =  0.500      CL =  0.0020
      Cm =  0.0254     CD =  0.01087   =>   CDf =  0.00737    CDp =  0.00350

 Side 1  free  transition at x/c =  0.2270   43
 Side 2  free  transition at x/c =  0.5608   57

  21   rms: 0.5341E-02   max: -.1049E+00   C at   57  2
       a =  0.500      CL =  0.0020
      Cm =  0.0254     CD =  0.01087   =>   CDf =  0.00737    CDp =  0.00350

 Side 1  free  transition at x/c =  0.2270   43
 Side 2  free  transition at x/c =  0.5608   57

  22   rms: 0.5341E-02   max: -.1049E+00   C at   57  2
       a =  0.500      CL =  0.0020
      Cm =  0.0254     CD =  0.01087   =>   CDf =  0.00737    CDp =  0.00350

 Side 1  free  transition at x/c =  0.2270   43
 Side 2  free  transition at x/c =  0.5608   57

  23   rms: 0.5341E-02   max: -.1049E+00   C at   57  2
       a =  0.500      CL =  0.0020
      Cm =  0.0254     CD =  0.01087   =>   CDf =  0.00737    CDp =  0.00350

 Side 1  free  transition at x/c =  0.2270   43
 Side 2  free  transition at x/c =  0.5608   57

  24   rms: 0.5341E-02   max: -.1049E+00   C at   57  2
       a =  0.500      CL =  0.0020
      Cm =  0.0254     CD =  0.01087   =>   CDf =  0.00737    CDp =  0.00350

 Side 1  free  transition at x/c =  0.2270   43
 Side 2  free  transition at x/c =  0.5608   57

  25   rms: 0.5341E-02   max: -.1049E+00   C at   57  2
       a =  0.500      CL =  0.0020
      Cm =  0.0254     CD =  0.01087   =>   CDf =  0.00737    CDp =  0.00350

 Side 1  free  transition at x/c =  0.2270   43
 Side 2  free  transition at x/c =  0.5608   57

  26   rms: 0.5341E-02   max: -.1049E+00   C at   57  2
       a =  0.500      CL =  0.0020
      Cm =  0.0254     CD =  0.01087   =>   CDf =  0.00737    CDp =  0.00350

 Side 1  free  transition at x/c =  0.2270   43
 Side 2  free  transition at x/c =  0.5608   57

  27   rms: 0.5342E-02   max: -.1049E+00   C at   57  2
       a =  0.500      CL =  0.0020
      Cm =  0.0254     CD =  0.01087   =>   CDf =  0.00737    CDp =  0.00350

 Side 1  free  transition at x/c =  0.2270   43
 Side 2  free  transition at x/c =  0.5608   57

  28   rms: 0.5341E-02   max: -.1049E+00   C at   57  2
       a =  0.500      CL =  0.0020
      Cm =  0.0254     CD =  0.01087   =>   CDf =  0.00737    CDp =  0.00350

 Side 1  free  transition at x/c =  0.2270   43
 Side 2  free  transition at x/c =  0.5608   57

  29   rms: 0.5341E-02   max: -.1049E+00   C at   57  2
       a =  0.500      CL =  0.0020
      Cm =  0.0254     CD =  0.01087   =>   CDf =  0.00737    CDp =  0.00350

 Side 1  free  transition at x/c =  0.2270   43
 Side 2  free  transition at x/c =  0.5608   57

  30   rms: 0.5341E-02   max: -.1049E+00   C at   57  2
       a =  0.500      CL =  0.0020
      Cm =  0.0254     CD =  0.01087   =>   CDf =  0.00737    CDp =  0.00350

 Side 1  free  transition at x/c =  0.2270   43
 Side 2  free  transition at x/c =  0.5608   57

  31   rms: 0.5341E-02   max: -.1049E+00   C at   57  2
       a =  0.500      CL =  0.0020
      Cm =  0.0254     CD =  0.01087   =>   CDf =  0.00737    CDp =  0.00350

 Side 1  free  transition at x/c =  0.2270   43
 Side 2  free  transition at x/c =  0.5608   57

  32   rms: 0.5341E-02   max: -.1049E+00   C at   57  2
       a =  0.500      CL =  0.0020
      Cm =  0.0254     CD =  0.01087   =>   CDf =  0.00737    CDp =  0.00350

 Side 1  free  transition at x/c =  0.2270   43
 Side 2  free  transition at x/c =  0.5608   57

  33   rms: 0.5341E-02   max: -.1049E+00   C at   57  2
       a =  0.500      CL =  0.0020
      Cm =  0.0254     CD =  0.01087   =>   CDf =  0.00737    CDp =  0.00350

 Side 1  free  transition at x/c =  0.2270   43
 Side 2  free  transition at x/c =  0.5608   57

  34   rms: 0.5341E-02   max: -.1049E+00   C at   57  2
       a =  0.500      CL =  0.0020
      Cm =  0.0254     CD =  0.01087   =>   CDf =  0.00737    CDp =  0.00350

 Side 1  free  transition at x/c =  0.2270   43
 Side 2  free  transition at x/c =  0.5608   57

  35   rms: 0.5341E-02   max: -.1049E+00   C at   57  2
       a =  0.500      CL =  0.0020
      Cm =  0.0254     CD =  0.01087   =>   CDf =  0.00737    CDp =  0.00350

 Side 1  free  transition at x/c =  0.2270   43
 Side 2  free  transition at x/c =  0.5608   57

  36   rms: 0.5341E-02   max: -.1049E+00   C at   57  2
       a =  0.500      CL =  0.0020
      Cm =  0.0254     CD =  0.01087   =>   CDf =  0.00737    CDp =  0.00350

 Side 1  free  transition at x/c =  0.2270   43
 Side 2  free  transition at x/c =  0.5608   57

  37   rms: 0.5341E-02   max: -.1049E+00   C at   57  2
       a =  0.500      CL =  0.0020
      Cm =  0.0254     CD =  0.01087   =>   CDf =  0.00737    CDp =  0.00350

 Side 1  free  transition at x/c =  0.2270   43
 Side 2  free  transition at x/c =  0.5608   57

  38   rms: 0.5341E-02   max: -.1049E+00   C at   57  2
       a =  0.500      CL =  0.0020
      Cm =  0.0254     CD =  0.01087   =>   CDf =  0.00737    CDp =  0.00350

 Side 1  free  transition at x/c =  0.2270   43
 Side 2  free  transition at x/c =  0.5608   57

  39   rms: 0.5341E-02   max: -.1049E+00   C at   57  2
       a =  0.500      CL =  0.0020
      Cm =  0.0254     CD =  0.01087   =>   CDf =  0.00737    CDp =  0.00350

 Side 1  free  transition at x/c =  0.2270   43
 Side 2  free  transition at x/c =  0.5608   57

  40   rms: 0.5342E-02   max: -.1049E+00   C at   57  2
       a =  0.500      CL =  0.0020
      Cm =  0.0254     CD =  0.01087   =>   CDf =  0.00737    CDp =  0.00350

 Side 1  free  transition at x/c =  0.2270   43
 Side 2  free  transition at x/c =  0.5608   57

  41   rms: 0.5341E-02   max: -.1049E+00   C at   57  2
       a =  0.500      CL =  0.0020
      Cm =  0.0254     CD =  0.01087   =>   CDf =  0.00737    CDp =  0.00350

 Side 1  free  transition at x/c =  0.2270   43
 Side 2  free  transition at x/c =  0.5608   57

  42   rms: 0.5341E-02   max: -.1049E+00   C at   57  2
       a =  0.500      CL =  0.0020
      Cm =  0.0254     CD =  0.01087   =>   CDf =  0.00737    CDp =  0.00350

 Side 1  free  transition at x/c =  0.2270   43
 Side 2  free  transition at x/c =  0.5608   57

  43   rms: 0.5341E-02   max: -.1049E+00   C at   57  2
       a =  0.500      CL =  0.0020
      Cm =  0.0254     CD =  0.01087   =>   CDf =  0.00737    CDp =  0.00350

 Side 1  free  transition at x/c =  0.2270   43
 Side 2  free  transition at x/c =  0.5608   57

  44   rms: 0.5341E-02   max: -.1049E+00   C at   57  2
       a =  0.500      CL =  0.0020
      Cm =  0.0254     CD =  0.01087   =>   CDf =  0.00737    CDp =  0.00350

 Side 1  free  transition at x/c =  0.2270   43
 Side 2  free  transition at x/c =  0.5608   57

  45   rms: 0.5341E-02   max: -.1049E+00   C at   57  2
       a =  0.500      CL =  0.0020
      Cm =  0.0254     CD =  0.01087   =>   CDf =  0.00737    CDp =  0.00350

 Side 1  free  transition at x/c =  0.2270   43
 Side 2  free  transition at x/c =  0.5608   57

  46   rms: 0.5342E-02   max: -.1049E+00   C at   57  2
       a =  0.500      CL =  0.0020
      Cm =  0.0254     CD =  0.01087   =>   CDf =  0.00737    CDp =  0.00350

 Side 1  free  transition at x/c =  0.2270   43
 Side 2  free  transition at x/c =  0.5608   57

  47   rms: 0.5341E-02   max: -.1049E+00   C at   57  2
       a =  0.500      CL =  0.0020
      Cm =  0.0254     CD =  0.01087   =>   CDf =  0.00737    CDp =  0.00350

 Side 1  free  transition at x/c =  0.2270   43
 Side 2  free  transition at x/c =  0.5608   57

  48   rms: 0.5341E-02   max: -.1049E+00   C at   57  2
       a =  0.500      CL =  0.0020
      Cm =  0.0254     CD =  0.01087   =>   CDf =  0.00737    CDp =  0.00350

 Side 1  free  transition at x/c =  0.2270   43
 Side 2  free  transition at x/c =  0.5608   57

  49   rms: 0.5341E-02   max: -.1049E+00   C at   57  2
       a =  0.500      CL =  0.0020
      Cm =  0.0254     CD =  0.01087   =>   CDf =  0.00737    CDp =  0.00350

 Side 1  free  transition at x/c =  0.2270   43
 Side 2  free  transition at x/c =  0.5608   57

  50   rms: 0.5341E-02   max: -.1049E+00   C at   57  2
       a =  0.500      CL =  0.0020
      Cm =  0.0254     CD =  0.01087   =>   CDf =  0.00737    CDp =  0.00350

 Side 1  free  transition at x/c =  0.2270   43
 Side 2  free  transition at x/c =  0.5608   57

  51   rms: 0.5341E-02   max: -.1049E+00   C at   57  2
       a =  0.500      CL =  0.0020
      Cm =  0.0254     CD =  0.01087   =>   CDf =  0.00737    CDp =  0.00350

 Side 1  free  transition at x/c =  0.2270   43
 Side 2  free  transition at x/c =  0.5608   57

  52   rms: 0.5341E-02   max: -.1049E+00   C at   57  2
       a =  0.500      CL =  0.0020
      Cm =  0.0254     CD =  0.01087   =>   CDf =  0.00737    CDp =  0.00350

 Side 1  free  transition at x/c =  0.2270   43
 Side 2  free  transition at x/c =  0.5608   57

  53   rms: 0.5341E-02   max: -.1049E+00   C at   57  2
       a =  0.500      CL =  0.0020
      Cm =  0.0254     CD =  0.01087   =>   CDf =  0.00737    CDp =  0.00350

 Side 1  free  transition at x/c =  0.2270   43
 Side 2  free  transition at x/c =  0.5608   57

  54   rms: 0.5341E-02   max: -.1049E+00   C at   57  2
       a =  0.500      CL =  0.0020
      Cm =  0.0254     CD =  0.01087   =>   CDf =  0.00737    CDp =  0.00350

 Side 1  free  transition at x/c =  0.2270   43
 Side 2  free  transition at x/c =  0.5608   57

  55   rms: 0.5341E-02   max: -.1049E+00   C at   57  2
       a =  0.500      CL =  0.0020
      Cm =  0.0254     CD =  0.01087   =>   CDf =  0.00737    CDp =  0.00350

 Side 1  free  transition at x/c =  0.2270   43
 Side 2  free  transition at x/c =  0.5608   57

  56   rms: 0.5341E-02   max: -.1049E+00   C at   57  2
       a =  0.500      CL =  0.0020
      Cm =  0.0254     CD =  0.01087   =>   CDf =  0.00737    CDp =  0.00350

 Side 1  free  transition at x/c =  0.2270   43
 Side 2  free  transition at x/c =  0.5608   57

  57   rms: 0.5342E-02   max: -.1049E+00   C at   57  2
       a =  0.500      CL =  0.0020
      Cm =  0.0254     CD =  0.01087   =>   CDf =  0.00737    CDp =  0.00350

 Side 1  free  transition at x/c =  0.2270   43
 Side 2  free  transition at x/c =  0.5608   57

  58   rms: 0.5341E-02   max: -.1049E+00   C at   57  2
       a =  0.500      CL =  0.0020
      Cm =  0.0254     CD =  0.01087   =>   CDf =  0.00737    CDp =  0.00350

 Side 1  free  transition at x/c =  0.2270   43
 Side 2  free  transition at x/c =  0.5608   57

  59   rms: 0.5341E-02   max: -.1049E+00   C at   57  2
       a =  0.500      CL =  0.0020
      Cm =  0.0254     CD =  0.01087   =>   CDf =  0.00737    CDp =  0.00350

 Side 1  free  transition at x/c =  0.2270   43
 Side 2  free  transition at x/c =  0.5608   57

  60   rms: 0.5341E-02   max: -.1049E+00   C at   57  2
       a =  0.500      CL =  0.0020
      Cm =  0.0254     CD =  0.01087   =>   CDf =  0.00737    CDp =  0.00350

 Side 1  free  transition at x/c =  0.2270   43
 Side 2  free  transition at x/c =  0.5608   57

  61   rms: 0.5341E-02   max: -.1049E+00   C at   57  2
       a =  0.500      CL =  0.0020
      Cm =  0.0254     CD =  0.01087   =>   CDf =  0.00737    CDp =  0.00350

 Side 1  free  transition at x/c =  0.2270   43
 Side 2  free  transition at x/c =  0.5608   57

  62   rms: 0.5341E-02   max: -.1049E+00   C at   57  2
       a =  0.500      CL =  0.0020
      Cm =  0.0254     CD =  0.01087   =>   CDf =  0.00737    CDp =  0.00350

 Side 1  free  transition at x/c =  0.2270   43
 Side 2  free  transition at x/c =  0.5608   57

  63   rms: 0.5341E-02   max: -.1049E+00   C at   57  2
       a =  0.500      CL =  0.0020
      Cm =  0.0254     CD =  0.01087   =>   CDf =  0.00737    CDp =  0.00350

 Side 1  free  transition at x/c =  0.2270   43
 Side 2  free  transition at x/c =  0.5608   57

  64   rms: 0.5341E-02   max: -.1049E+00   C at   57  2
       a =  0.500      CL =  0.0020
      Cm =  0.0254     CD =  0.01087   =>   CDf =  0.00737    CDp =  0.00350

 Side 1  free  transition at x/c =  0.2270   43
 Side 2  free  transition at x/c =  0.5608   57

  65   rms: 0.5342E-02   max: -.1049E+00   C at   57  2
       a =  0.500      CL =  0.0020
      Cm =  0.0254     CD =  0.01087   =>   CDf =  0.00737    CDp =  0.00350

 Side 1  free  transition at x/c =  0.2270   43
 Side 2  free  transition at x/c =  0.5608   57

  66   rms: 0.5341E-02   max: -.1049E+00   C at   57  2
       a =  0.500      CL =  0.0020
      Cm =  0.0254     CD =  0.01087   =>   CDf =  0.00737    CDp =  0.00350

 Side 1  free  transition at x/c =  0.2270   43
 Side 2  free  transition at x/c =  0.5608   57

  67   rms: 0.5341E-02   max: -.1049E+00   C at   57  2
       a =  0.500      CL =  0.0020
      Cm =  0.0254     CD =  0.01087   =>   CDf =  0.00737    CDp =  0.00350

 Side 1  free  transition at x/c =  0.2270   43
 Side 2  free  transition at x/c =  0.5608   57

  68   rms: 0.5342E-02   max: -.1049E+00   C at   57  2
       a =  0.500      CL =  0.0020
      Cm =  0.0254     CD =  0.01087   =>   CDf =  0.00737    CDp =  0.00350

 Side 1  free  transition at x/c =  0.2270   43
 Side 2  free  transition at x/c =  0.5608   57

  69   rms: 0.5341E-02   max: -.1049E+00   C at   57  2
       a =  0.500      CL =  0.0020
      Cm =  0.0254     CD =  0.01087   =>   CDf =  0.00737    CDp =  0.00350

 Side 1  free  transition at x/c =  0.2270   43
 Side 2  free  transition at x/c =  0.5608   57

  70   rms: 0.5341E-02   max: -.1049E+00   C at   57  2
       a =  0.500      CL =  0.0020
      Cm =  0.0254     CD =  0.01087   =>   CDf =  0.00737    CDp =  0.00350

 Side 1  free  transition at x/c =  0.2270   43
 Side 2  free  transition at x/c =  0.5608   57

  71   rms: 0.5341E-02   max: -.1049E+00   C at   57  2
       a =  0.500      CL =  0.0020
      Cm =  0.0254     CD =  0.01087   =>   CDf =  0.00737    CDp =  0.00350

 Side 1  free  transition at x/c =  0.2270   43
 Side 2  free  transition at x/c =  0.5608   57

  72   rms: 0.5342E-02   max: -.1049E+00   C at   57  2
       a =  0.500      CL =  0.0020
      Cm =  0.0254     CD =  0.01087   =>   CDf =  0.00737    CDp =  0.00350

 Side 1  free  transition at x/c =  0.2270   43
 Side 2  free  transition at x/c =  0.5608   57

  73   rms: 0.5341E-02   max: -.1049E+00   C at   57  2
       a =  0.500      CL =  0.0020
      Cm =  0.0254     CD =  0.01087   =>   CDf =  0.00737    CDp =  0.00350

 Side 1  free  transition at x/c =  0.2270   43
 Side 2  free  transition at x/c =  0.5608   57

  74   rms: 0.5341E-02   max: -.1049E+00   C at   57  2
       a =  0.500      CL =  0.0020
      Cm =  0.0254     CD =  0.01087   =>   CDf =  0.00737    CDp =  0.00350

 Side 1  free  transition at x/c =  0.2270   43
 Side 2  free  transition at x/c =  0.5608   57

  75   rms: 0.5341E-02   max: -.1049E+00   C at   57  2
       a =  0.500      CL =  0.0020
      Cm =  0.0254     CD =  0.01087   =>   CDf =  0.00737    CDp =  0.00350

 Side 1  free  transition at x/c =  0.2270   43
 Side 2  free  transition at x/c =  0.5608   57

  76   rms: 0.5342E-02   max: -.1049E+00   C at   57  2
       a =  0.500      CL =  0.0020
      Cm =  0.0254     CD =  0.01087   =>   CDf =  0.00737    CDp =  0.00350

 Side 1  free  transition at x/c =  0.2270   43
 Side 2  free  transition at x/c =  0.5608   57

  77   rms: 0.5341E-02   max: -.1049E+00   C at   57  2
       a =  0.500      CL =  0.0020
[...]
       a = 14.500      CL =  1.4108
      Cm =  0.0520     CD =  0.02409   =>   CDf =  0.00533    CDp =  0.01876

 Side 1  free  transition at x/c =  0.0932   52
 Side 2 forced transition at x/c =  1.0000   60

 114   rms: 0.4454E-02   max: -.7268E-01   C at   52  1
       a = 14.500      CL =  1.4108
      Cm =  0.0520     CD =  0.02409   =>   CDf =  0.00533    CDp =  0.01876

 Side 1  free  transition at x/c =  0.0932   52
 Side 2 forced transition at x/c =  1.0000   60

 115   rms: 0.4454E-02   max: -.7269E-01   C at   52  1
       a = 14.500      CL =  1.4108
      Cm =  0.0520     CD =  0.02409   =>   CDf =  0.00533    CDp =  0.01876

 Side 1  free  transition at x/c =  0.0932   52
 Side 2 forced transition at x/c =  1.0000   60

 116   rms: 0.4454E-02   max: -.7268E-01   C at   52  1
       a = 14.500      CL =  1.4108
      Cm =  0.0520     CD =  0.02409   =>   CDf =  0.00533    CDp =  0.01876

 Side 1  free  transition at x/c =  0.0932   52
 Side 2 forced transition at x/c =  1.0000   60

 117   rms: 0.4454E-02   max: -.7268E-01   C at   52  1
       a = 14.500      CL =  1.4108
      Cm =  0.0520     CD =  0.02409   =>   CDf =  0.00533    CDp =  0.01876

 Side 1  free  transition at x/c =  0.0932   52
 Side 2 forced transition at x/c =  1.0000   60

 118   rms: 0.4454E-02   max: -.7268E-01   C at   52  1
       a = 14.500      CL =  1.4108
      Cm =  0.0520     CD =  0.02409   =>   CDf =  0.00533    CDp =  0.01876

 Side 1  free  transition at x/c =  0.0932   52
 Side 2 forced transition at x/c =  1.0000   60

 119   rms: 0.4454E-02   max: -.7268E-01   C at   52  1
       a = 14.500      CL =  1.4108
      Cm =  0.0520     CD =  0.02409   =>   CDf =  0.00533    CDp =  0.01876

 Side 1  free  transition at x/c =  0.0932   52
 Side 2 forced transition at x/c =  1.0000   60

 120   rms: 0.4454E-02   max: -.7269E-01   C at   52  1
       a = 14.500      CL =  1.4108
      Cm =  0.0520     CD =  0.02409   =>   CDf =  0.00533    CDp =  0.01876

 Side 1  free  transition at x/c =  0.0932   52
 Side 2 forced transition at x/c =  1.0000   60

 121   rms: 0.4454E-02   max: -.7268E-01   C at   52  1
       a = 14.500      CL =  1.4108
      Cm =  0.0520     CD =  0.02409   =>   CDf =  0.00533    CDp =  0.01876

 Side 1  free  transition at x/c =  0.0932   52
 Side 2 forced transition at x/c =  1.0000   60

 122   rms: 0.4454E-02   max: -.7269E-01   C at   52  1
       a = 14.500      CL =  1.4108
      Cm =  0.0520     CD =  0.02409   =>   CDf =  0.00533    CDp =  0.01876

 Side 1  free  transition at x/c =  0.0932   52
 Side 2 forced transition at x/c =  1.0000   60

 123   rms: 0.4454E-02   max: -.7269E-01   C at   52  1
       a = 14.500      CL =  1.4108
      Cm =  0.0520     CD =  0.02409   =>   CDf =  0.00533    CDp =  0.01876

 Side 1  free  transition at x/c =  0.0932   52
 Side 2 forced transition at x/c =  1.0000   60

 124   rms: 0.4455E-02   max: -.7269E-01   C at   52  1
       a = 14.500      CL =  1.4108
      Cm =  0.0520     CD =  0.02409   =>   CDf =  0.00533    CDp =  0.01876

 Side 1  free  transition at x/c =  0.0932   52
 Side 2 forced transition at x/c =  1.0000   60

 125   rms: 0.4454E-02   max: -.7268E-01   C at   52  1
       a = 14.500      CL =  1.4108
      Cm =  0.0520     CD =  0.02409   =>   CDf =  0.00533    CDp =  0.01876

 Side 1  free  transition at x/c =  0.0932   52
 Side 2 forced transition at x/c =  1.0000   60

 126   rms: 0.4454E-02   max: -.7269E-01   C at   52  1
       a = 14.500      CL =  1.4108
      Cm =  0.0520     CD =  0.02409   =>   CDf =  0.00533    CDp =  0.01876

 Side 1  free  transition at x/c =  0.0932   52
 Side 2 forced transition at x/c =  1.0000   60

 127   rms: 0.4454E-02   max: -.7269E-01   C at   52  1
       a = 14.500      CL =  1.4108
      Cm =  0.0520     CD =  0.02409   =>   CDf =  0.00533    CDp =  0.01876

 Side 1  free  transition at x/c =  0.0932   52
 Side 2 forced transition at x/c =  1.0000   60

 128   rms: 0.4455E-02   max: -.7269E-01   C at   52  1
       a = 14.500      CL =  1.4108
      Cm =  0.0520     CD =  0.02409   =>   CDf =  0.00533    CDp =  0.01876

 Side 1  free  transition at x/c =  0.0932   52
 Side 2 forced transition at x/c =  1.0000   60

 129   rms: 0.4454E-02   max: -.7268E-01   C at   52  1
       a = 14.500      CL =  1.4108
      Cm =  0.0520     CD =  0.02409   =>   CDf =  0.00533    CDp =  0.01876

 Side 1  free  transition at x/c =  0.0932   52
 Side 2 forced transition at x/c =  1.0000   60

 130   rms: 0.4454E-02   max: -.7268E-01   C at   52  1
       a = 14.500      CL =  1.4108
      Cm =  0.0520     CD =  0.02409   =>   CDf =  0.00533    CDp =  0.01876

 Side 1  free  transition at x/c =  0.0932   52
 Side 2 forced transition at x/c =  1.0000   60

 131   rms: 0.4454E-02   max: -.7268E-01   C at   52  1
       a = 14.500      CL =  1.4108
      Cm =  0.0520     CD =  0.02409   =>   CDf =  0.00533    CDp =  0.01876

 Side 1  free  transition at x/c =  0.0932   52
 Side 2 forced transition at x/c =  1.0000   60

 132   rms: 0.4454E-02   max: -.7269E-01   C at   52  1
       a = 14.500      CL =  1.4108
      Cm =  0.0520     CD =  0.02409   =>   CDf =  0.00533    CDp =  0.01876

 Side 1  free  transition at x/c =  0.0932   52
 Side 2 forced transition at x/c =  1.0000   60

 133   rms: 0.4454E-02   max: -.7269E-01   C at   52  1
       a = 14.500      CL =  1.4108
      Cm =  0.0520     CD =  0.02409   =>   CDf =  0.00533    CDp =  0.01876

 Side 1  free  transition at x/c =  0.0932   52
 Side 2 forced transition at x/c =  1.0000   60

 134   rms: 0.4455E-02   max: -.7269E-01   C at   52  1
       a = 14.500      CL =  1.4108
      Cm =  0.0520     CD =  0.02409   =>   CDf =  0.00533    CDp =  0.01876

 Side 1  free  transition at x/c =  0.0932   52
 Side 2 forced transition at x/c =  1.0000   60

 135   rms: 0.4454E-02   max: -.7269E-01   C at   52  1
       a = 14.500      CL =  1.4108
      Cm =  0.0520     CD =  0.02409   =>   CDf =  0.00533    CDp =  0.01876

 Side 1  free  transition at x/c =  0.0932   52
 Side 2 forced transition at x/c =  1.0000   60

 136   rms: 0.4454E-02   max: -.7269E-01   C at   52  1
       a = 14.500      CL =  1.4108
      Cm =  0.0520     CD =  0.02409   =>   CDf =  0.00533    CDp =  0.01876

 Side 1  free  transition at x/c =  0.0932   52
 Side 2 forced transition at x/c =  1.0000   60

 137   rms: 0.4455E-02   max: -.7269E-01   C at   52  1
       a = 14.500      CL =  1.4108
      Cm =  0.0520     CD =  0.02409   =>   CDf =  0.00533    CDp =  0.01876

 Side 1  free  transition at x/c =  0.0932   52
 Side 2 forced transition at x/c =  1.0000   60

 138   rms: 0.4454E-02   max: -.7268E-01   C at   52  1
       a = 14.500      CL =  1.4108
      Cm =  0.0520     CD =  0.02409   =>   CDf =  0.00533    CDp =  0.01876

 Side 1  free  transition at x/c =  0.0932   52
 Side 2 forced transition at x/c =  1.0000   60

 139   rms: 0.4454E-02   max: -.7268E-01   C at   52  1
       a = 14.500      CL =  1.4108
      Cm =  0.0520     CD =  0.02409   =>   CDf =  0.00533    CDp =  0.01876

 Side 1  free  transition at x/c =  0.0932   52
 Side 2 forced transition at x/c =  1.0000   60

 140   rms: 0.4454E-02   max: -.7269E-01   C at   52  1
       a = 14.500      CL =  1.4108
      Cm =  0.0520     CD =  0.02409   =>   CDf =  0.00533    CDp =  0.01876

 Side 1  free  transition at x/c =  0.0932   52
 Side 2 forced transition at x/c =  1.0000   60

 141   rms: 0.4454E-02   max: -.7269E-01   C at   52  1
       a = 14.500      CL =  1.4108
      Cm =  0.0520     CD =  0.02409   =>   CDf =  0.00533    CDp =  0.01876

 Side 1  free  transition at x/c =  0.0932   52
 Side 2 forced transition at x/c =  1.0000   60

 142   rms: 0.4454E-02   max: -.7269E-01   C at   52  1
       a = 14.500      CL =  1.4108
      Cm =  0.0520     CD =  0.02409   =>   CDf =  0.00533    CDp =  0.01876

 Side 1  free  transition at x/c =  0.0932   52
 Side 2 forced transition at x/c =  1.0000   60

 143   rms: 0.4454E-02   max: -.7268E-01   C at   52  1
       a = 14.500      CL =  1.4108
      Cm =  0.0520     CD =  0.02409   =>   CDf =  0.00533    CDp =  0.01876

 Side 1  free  transition at x/c =  0.0932   52
 Side 2 forced transition at x/c =  1.0000   60

 144   rms: 0.4454E-02   max: -.7268E-01   C at   52  1
       a = 14.500      CL =  1.4108
      Cm =  0.0520     CD =  0.02409   =>   CDf =  0.00533    CDp =  0.01876

 Side 1  free  transition at x/c =  0.0932   52
 Side 2 forced transition at x/c =  1.0000   60

 145   rms: 0.4454E-02   max: -.7269E-01   C at   52  1
       a = 14.500      CL =  1.4108
      Cm =  0.0520     CD =  0.02409   =>   CDf =  0.00533    CDp =  0.01876

 Side 1  free  transition at x/c =  0.0932   52
 Side 2 forced transition at x/c =  1.0000   60

 146   rms: 0.4454E-02   max: -.7269E-01   C at   52  1
       a = 14.500      CL =  1.4108
      Cm =  0.0520     CD =  0.02409   =>   CDf =  0.00533    CDp =  0.01876

 Side 1  free  transition at x/c =  0.0932   52
 Side 2 forced transition at x/c =  1.0000   60

 147   rms: 0.4454E-02   max: -.7268E-01   C at   52  1
       a = 14.500      CL =  1.4108
      Cm =  0.0520     CD =  0.02409   =>   CDf =  0.00533    CDp =  0.01876

 Side 1  free  transition at x/c =  0.0932   52
 Side 2 forced transition at x/c =  1.0000   60

 148   rms: 0.4454E-02   max: -.7269E-01   C at   52  1
       a = 14.500      CL =  1.4108
      Cm =  0.0520     CD =  0.02409   =>   CDf =  0.00533    CDp =  0.01876

 Side 1  free  transition at x/c =  0.0932   52
 Side 2 forced transition at x/c =  1.0000   60

 149   rms: 0.4454E-02   max: -.7269E-01   C at   52  1
       a = 14.500      CL =  1.4108
      Cm =  0.0520     CD =  0.02409   =>   CDf =  0.00533    CDp =  0.01876

 Side 1  free  transition at x/c =  0.0932   52
 Side 2 forced transition at x/c =  1.0000   60

 150   rms: 0.4454E-02   max: -.7269E-01   C at   52  1
       a = 14.500      CL =  1.4108
      Cm =  0.0520     CD =  0.02409   =>   CDf =  0.00533    CDp =  0.01876

 Side 1  free  transition at x/c =  0.0932   52
 Side 2 forced transition at x/c =  1.0000   60

 151   rms: 0.4454E-02   max: -.7268E-01   C at   52  1
       a = 14.500      CL =  1.4108
      Cm =  0.0520     CD =  0.02409   =>   CDf =  0.00533    CDp =  0.01876

 Side 1  free  transition at x/c =  0.0932   52
 Side 2 forced transition at x/c =  1.0000   60

 152   rms: 0.4454E-02   max: -.7269E-01   C at   52  1
       a = 14.500      CL =  1.4108
      Cm =  0.0520     CD =  0.02409   =>   CDf =  0.00533    CDp =  0.01876

 Side 1  free  transition at x/c =  0.0932   52
 Side 2 forced transition at x/c =  1.0000   60

 153   rms: 0.4454E-02   max: -.7268E-01   C at   52  1
       a = 14.500      CL =  1.4108
      Cm =  0.0520     CD =  0.02409   =>   CDf =  0.00533    CDp =  0.01876

 Side 1  free  transition at x/c =  0.0932   52
 Side 2 forced transition at x/c =  1.0000   60

 154   rms: 0.4454E-02   max: -.7268E-01   C at   52  1
       a = 14.500      CL =  1.4108
      Cm =  0.0520     CD =  0.02409   =>   CDf =  0.00533    CDp =  0.01876

 Side 1  free  transition at x/c =  0.0932   52
 Side 2 forced transition at x/c =  1.0000   60

 155   rms: 0.4454E-02   max: -.7269E-01   C at   52  1
       a = 14.500      CL =  1.4108
      Cm =  0.0520     CD =  0.02409   =>   CDf =  0.00533    CDp =  0.01876
 VISCAL:  Convergence failed
 Calculating wake trajectory ...
 Calculating source influence matrix ...

 Solving BL system ...

 Side 1  free  transition at x/c =  0.0932   52
 Side 2 forced transition at x/c =  1.0000   60

   1   rms: 0.3234E-01   max: -.2549E+00   C at   52  1
       a = 14.750      CL =  1.4231
      Cm =  0.0534     CD =  0.02488   =>   CDf =  0.00534    CDp =  0.01954

 Side 1  free  transition at x/c =  0.0899   52
 Side 2 forced transition at x/c =  1.0000   60

   2   rms: 0.6804E-02   max: 0.3947E-01   D at   96  1
       a = 14.750      CL =  1.4173
      Cm =  0.0537     CD =  0.02514   =>   CDf =  0.00523    CDp =  0.01991

 Side 1  free  transition at x/c =  0.0903   52
 Side 2 forced transition at x/c =  1.0000   60

   3   rms: 0.2569E-03   max: 0.4469E-02   D at   95  1
       a = 14.750      CL =  1.4172
      Cm =  0.0537     CD =  0.02514   =>   CDf =  0.00522    CDp =  0.01992

 Side 1  free  transition at x/c =  0.0903   52
 Side 2 forced transition at x/c =  1.0000   60

   4   rms: 0.3249E-05   max: 0.4253E-04   D at   95  1
       a = 14.750      CL =  1.4172
      Cm =  0.0537     CD =  0.02514   =>   CDf =  0.00522    CDp =  0.01992
 plradd ia,ip,cpol           46           0  1.33511573E-02

 Point added to stored polar  1
 Point written to save file  zv15_35_Re500k.base.pol                         
 Dump file unspecified or not available
 Calculating wake trajectory ...
 Calculating source influence matrix ...

 Solving BL system ...

 Side 1  free  transition at x/c =  0.0903   52
 Side 2 forced transition at x/c =  1.0000   60

   1   rms: 0.3547E-01   max: 0.1104E+00   D at   92  1
       a = 15.000      CL =  1.4210
      Cm =  0.0552     CD =  0.02649   =>   CDf =  0.00522    CDp =  0.02127

 Side 1  free  transition at x/c =  0.0871   52
 Side 2 forced transition at x/c =  1.0000   60

   2   rms: 0.6731E-02   max: 0.5047E-01   D at   94  1
       a = 15.000      CL =  1.4166
      Cm =  0.0552     CD =  0.02673   =>   CDf =  0.00519    CDp =  0.02154

 Side 1  free  transition at x/c =  0.0875   52
 Side 2 forced transition at x/c =  1.0000   60

   3   rms: 0.3102E-03   max: 0.5182E-02   D at   92  1
       a = 15.000      CL =  1.4165
      Cm =  0.0551     CD =  0.02673   =>   CDf =  0.00517    CDp =  0.02157

 Side 1  free  transition at x/c =  0.0875   52
 Side 2 forced transition at x/c =  1.0000   60

   4   rms: 0.4878E-05   max: -.8552E-04   C at   60  2
       a = 15.000      CL =  1.4165
      Cm =  0.0551     CD =  0.02673   =>   CDf =  0.00517    CDp =  0.02157
 plradd ia,ip,cpol           47           0  1.33511573E-02

 Point added to stored polar  1
 Point written to save file  zv15_35_Re500k.base.pol                         
 Dump file unspecified or not available
 Calculating wake trajectory ...
 Calculating source influence matrix ...

 Solving BL system ...

 Side 1  free  transition at x/c =  0.0875   52
 Side 2 forced transition at x/c =  1.0000   60

   1   rms: 0.4240E-01   max: 0.1504E+00   D at   90  1
       a = 15.250      CL =  1.4141
      Cm =  0.0562     CD =  0.02875   =>   CDf =  0.00517    CDp =  0.02358

 Side 1  free  transition at x/c =  0.0852   51
 Side 2 forced transition at x/c =  1.0000   60

   2   rms: 0.9317E-02   max: 0.6879E-01   D at   91  1
       a = 15.250      CL =  1.4088
      Cm =  0.0559     CD =  0.02915   =>   CDf =  0.00513    CDp =  0.02402

 Side 1  free  transition at x/c =  0.0853   51
 Side 2 forced transition at x/c =  1.0000   60

   3   rms: 0.6591E-03   max: 0.1092E-01   D at   89  1
       a = 15.250      CL =  1.4085
      Cm =  0.0559     CD =  0.02914   =>   CDf =  0.00512    CDp =  0.02402

 Side 1  free  transition at x/c =  0.0853   51
 Side 2 forced transition at x/c =  1.0000   60

   4   rms: 0.4237E-04   max: 0.2127E-03   D at   88  1
       a = 15.250      CL =  1.4085
      Cm =  0.0559     CD =  0.02914   =>   CDf =  0.00512    CDp =  0.02402
 plradd ia,ip,cpol           48           0  1.33511573E-02

 Point added to stored polar  1
 Point written to save file  zv15_35_Re500k.base.pol                         
 Dump file unspecified or not available
 Calculating wake trajectory ...
 Calculating source influence matrix ...

 Solving BL system ...

 Side 1  free  transition at x/c =  0.0853   51
 Side 2 forced transition at x/c =  1.0000   60

   1   rms: 0.3735E-01   max: 0.1229E+00   D at   87  1
       a = 15.500      CL =  1.4135
      Cm =  0.0559     CD =  0.03105   =>   CDf =  0.00482    CDp =  0.02623

 Side 1  free  transition at x/c =  0.0825   52
 Side 2 forced transition at x/c =  1.0000   59

   2   rms: 0.1005E-01   max: 0.6493E-01   D at   88  1
       a = 15.500      CL =  1.4074
      Cm =  0.0556     CD =  0.03153   =>   CDf =  0.00501    CDp =  0.02652

 Side 1  free  transition at x/c =  0.0830   52
 Side 2 forced transition at x/c =  1.0000   59

   3   rms: 0.8706E-03   max: 0.1043E-01   D at   87  1
       a = 15.500      CL =  1.4071
      Cm =  0.0556     CD =  0.03151   =>   CDf =  0.00499    CDp =  0.02652

 Side 1  free  transition at x/c =  0.0830   52
 Side 2 forced transition at x/c =  1.0000   59

   4   rms: 0.3830E-04   max: 0.1865E-03   D at   66  2
       a = 15.500      CL =  1.4071
      Cm =  0.0556     CD =  0.03151   =>   CDf =  0.00498    CDp =  0.02652
 plradd ia,ip,cpol           49           0  1.33511573E-02

 Point added to stored polar  1
 Point written to save file  zv15_35_Re500k.base.pol                         
 Dump file unspecified or not available
 Calculating wake trajectory ...
 Calculating source influence matrix ...

 Solving BL system ...

 Side 1  free  transition at x/c =  0.0830   52
 Side 2 forced transition at x/c =  1.0000   59

   1   rms: 0.4745E-01   max: 0.1824E+00   D at   85  1
       a = 15.750      CL =  1.4041
      Cm =  0.0547     CD =  0.03462   =>   CDf =  0.00499    CDp =  0.02963

 Side 1  free  transition at x/c =  0.0805   52
 Side 2 forced transition at x/c =  1.0000   59

   2   rms: 0.1253E-01   max: 0.9166E-01   D at   85  1
       a = 15.750      CL =  1.3976
      Cm =  0.0541     CD =  0.03521   =>   CDf =  0.00492    CDp =  0.03030

 Side 1  free  transition at x/c =  0.0810   52
 Side 2 forced transition at x/c =  1.0000   59

   3   rms: 0.9047E-03   max: 0.1254E-01   D at   83  1
       a = 15.750      CL =  1.3973
      Cm =  0.0541     CD =  0.03516   =>   CDf =  0.00488    CDp =  0.03028

 Side 1  free  transition at x/c =  0.0810   52
 Side 2 forced transition at x/c =  1.0000   59

   4   rms: 0.3358E-04   max: 0.2265E-03   D at   83  1
       a = 15.750      CL =  1.3973
      Cm =  0.0541     CD =  0.03516   =>   CDf =  0.00488    CDp =  0.03028
 plradd ia,ip,cpol           50           0  1.33511573E-02

 Point added to stored polar  1
 Point written to save file  zv15_35_Re500k.base.pol                         
 Dump file unspecified or not available
 Calculating wake trajectory ...
 Calculating source influence matrix ...

 Solving BL system ...

 Side 1  free  transition at x/c =  0.0810   52
 Side 2 forced transition at x/c =  1.0000   59

   1   rms: 0.5985E-01   max: 0.2468E+00   D at   82  1   RLX: 0.960
       a = 16.000      CL =  1.3881
      Cm =  0.0516     CD =  0.03968   =>   CDf =  0.00488    CDp =  0.03480

 Side 1  free  transition at x/c =  0.0791   52
 Side 2 forced transition at x/c =  1.0000   59

   2   rms: 0.2084E-01   max: 0.1397E+00   D at   81  1
       a = 16.000      CL =  1.3785
      Cm =  0.0508     CD =  0.04077   =>   CDf =  0.00482    CDp =  0.03595

 Side 1  free  transition at x/c =  0.0794   52
 Side 2 forced transition at x/c =  1.0000   59

   3   rms: 0.2467E-02   max: 0.2948E-01   D at   79  1
       a = 16.000      CL =  1.3774
      Cm =  0.0508     CD =  0.04070   =>   CDf =  0.00476    CDp =  0.03594

 Side 1  free  transition at x/c =  0.0794   52
 Side 2 forced transition at x/c =  1.0000   59

   4   rms: 0.1634E-03   max: 0.1419E-02   D at   78  1
       a = 16.000      CL =  1.3773
      Cm =  0.0508     CD =  0.04069   =>   CDf =  0.00475    CDp =  0.03593

 Side 1  free  transition at x/c =  0.0794   52
 Side 2 forced transition at x/c =  1.0000   59

   5   rms: 0.4690E-05   max: -.3686E-04   C at   59  2
       a = 16.000      CL =  1.3773
      Cm =  0.0508     CD =  0.04069   =>   CDf =  0.00475    CDp =  0.03593
 plradd ia,ip,cpol           51           0  1.33511573E-02

 Point added to stored polar  1
 Point written to save file  zv15_35_Re500k.base.pol                         
 Dump file unspecified or not available

.OPERva   c>  
 Polar accumulation disabled

.OPERv   c>  
 XFOIL   c>  
 XFOIL   c>  